MODEL 1
REMARK VINA RESULT:      -8.3      0.000      0.000
REMARK  Name = 
REMARK  8 active torsions:
REMARK  status: ('A' for Active; 'I' for Inactive)
REMARK    1  A    between atoms: C_2  and  C_3
REMARK    2  A    between atoms: C_3  and  C_4
REMARK    3  A    between atoms: C_4  and  C_5
REMARK    4  A    between atoms: N_14  and  CA_15
REMARK    5  A    between atoms: CA_15  and  CB_16
REMARK    6  A    between atoms: CA_15  and  C_23
REMARK    7  A    between atoms: CB_16  and  CG_17
REMARK    8  A    between atoms: C_23  and  OXT_25
REMARK                            x       y       z     vdW  Elec       q    Type
REMARK                         _______ _______ _______ _____ _____    ______ ____
ROOT
ATOM      1  O   UNK A   0       8.386   7.293  18.760  0.00  0.00    +0.000 OA
ATOM      2  C   UNK A   0       7.874   8.035  17.927  0.00  0.00    +0.000 C 
ATOM      3  N   PHE A   1       6.851   7.620  17.113  0.00  0.00    +0.000 N 
ATOM      4  H   PHE A   1       6.566   8.217  16.342  0.00  0.00    +0.000 HD
ENDROOT
BRANCH   2   5
ATOM      5  C   UNK A   0       8.392   9.458  17.690  0.00  0.00    +0.000 C 
BRANCH   5   6
ATOM      6  C   UNK A   0       9.129  10.095  18.874  0.00  0.00    +0.000 C 
BRANCH   6   7
ATOM      7  C   UNK A   0       9.986  11.287  18.501  0.00  0.00    +0.000 A 
ATOM      8  C   UNK A   0      11.371  11.299  18.375  0.00  0.00    +0.000 A 
ATOM      9  N   UNK A   0      11.775  12.580  18.106  0.00  0.00    +0.000 N 
ATOM     10  C   UNK A   0      10.694  13.425  18.046  0.00  0.00    +0.000 A 
ATOM     11  C   UNK A   0      10.642  14.809  17.817  0.00  0.00    +0.000 A 
ATOM     12  C   UNK A   0       9.382  15.416  17.814  0.00  0.00    +0.000 A 
ATOM     13  C   UNK A   0       8.230  14.668  18.028  0.00  0.00    +0.000 A 
ATOM     14  C   UNK A   0       8.302  13.287  18.261  0.00  0.00    +0.000 A 
ATOM     15  C   UNK A   0       9.559  12.642  18.272  0.00  0.00    +0.000 A 
ATOM     16  H   UNK A   0      12.732  12.875  17.988  0.00  0.00    +0.000 HD
ENDBRANCH   6   7
ENDBRANCH   5   6
ENDBRANCH   2   5
BRANCH   3  17
ATOM     17  CA  PHE A   1       6.308   6.238  17.058  0.00  0.00    +0.000 C 
BRANCH  17  18
ATOM     18  C   PHE A   1       7.313   5.365  16.287  0.00  0.00    +0.000 C 
ATOM     19  O   PHE A   1       7.924   4.436  16.819  0.00  0.00    +0.000 OA
BRANCH  18  20
ATOM     20  OXT PHE A   1       7.433   5.614  14.966  0.00  0.00    +0.000 OA
ATOM     21  HXT PHE A   1       6.740   5.242  14.385  0.00  0.00    +0.000 HD
ENDBRANCH  18  20
ENDBRANCH  17  18
BRANCH  17  22
ATOM     22  CB  PHE A   1       4.898   6.105  16.463  0.00  0.00    +0.000 C 
BRANCH  22  23
ATOM     23  CG  PHE A   1       3.966   5.165  17.187  0.00  0.00    +0.000 A 
ATOM     24  CD1 PHE A   1       2.951   5.636  18.032  0.00  0.00    +0.000 A 
ATOM     25  CE1 PHE A   1       2.036   4.746  18.597  0.00  0.00    +0.000 A 
ATOM     26  CZ  PHE A   1       2.136   3.381  18.331  0.00  0.00    +0.000 A 
ATOM     27  CE2 PHE A   1       3.172   2.901  17.532  0.00  0.00    +0.000 A 
ATOM     28  CD2 PHE A   1       4.086   3.787  16.969  0.00  0.00    +0.000 A 
ENDBRANCH  22  23
ENDBRANCH  17  22
ENDBRANCH   3  17
TORSDOF 8
ENDMDL
MODEL 2
REMARK VINA RESULT:      -8.2      1.680      2.110
REMARK  Name = 
REMARK  8 active torsions:
REMARK  status: ('A' for Active; 'I' for Inactive)
REMARK    1  A    between atoms: C_2  and  C_3
REMARK    2  A    between atoms: C_3  and  C_4
REMARK    3  A    between atoms: C_4  and  C_5
REMARK    4  A    between atoms: N_14  and  CA_15
REMARK    5  A    between atoms: CA_15  and  CB_16
REMARK    6  A    between atoms: CA_15  and  C_23
REMARK    7  A    between atoms: CB_16  and  CG_17
REMARK    8  A    between atoms: C_23  and  OXT_25
REMARK                            x       y       z     vdW  Elec       q    Type
REMARK                         _______ _______ _______ _____ _____    ______ ____
ROOT
ATOM      1  O   UNK A   0       7.136   8.054  16.805  0.00  0.00    +0.000 OA
ATOM      2  C   UNK A   0       7.621   7.642  17.855  0.00  0.00    +0.000 C 
ATOM      3  N   PHE A   1       7.355   6.385  18.336  0.00  0.00    +0.000 N 
ATOM      4  H   PHE A   1       7.656   6.147  19.277  0.00  0.00    +0.000 HD
ENDROOT
BRANCH   2   5
ATOM      5  C   UNK A   0       8.503   8.532  18.738  0.00  0.00    +0.000 C 
BRANCH   5   6
ATOM      6  C   UNK A   0       8.815   9.921  18.169  0.00  0.00    +0.000 C 
BRANCH   6   7
ATOM      7  C   UNK A   0       9.622  10.804  19.098  0.00  0.00    +0.000 A 
ATOM      8  C   UNK A   0       9.570  10.802  20.488  0.00  0.00    +0.000 A 
ATOM      9  N   UNK A   0      10.386  11.796  20.957  0.00  0.00    +0.000 N 
ATOM     10  C   UNK A   0      10.984  12.463  19.916  0.00  0.00    +0.000 A 
ATOM     11  C   UNK A   0      11.871  13.551  19.932  0.00  0.00    +0.000 A 
ATOM     12  C   UNK A   0      12.325  14.032  18.700  0.00  0.00    +0.000 A 
ATOM     13  C   UNK A   0      11.909  13.446  17.509  0.00  0.00    +0.000 A 
ATOM     14  C   UNK A   0      11.018  12.364  17.513  0.00  0.00    +0.000 A 
ATOM     15  C   UNK A   0      10.539  11.854  18.741  0.00  0.00    +0.000 A 
ATOM     16  H   UNK A   0      10.519  12.029  21.930  0.00  0.00    +0.000 HD
ENDBRANCH   6   7
ENDBRANCH   5   6
ENDBRANCH   2   5
BRANCH   3  17
ATOM     17  CA  PHE A   1       6.401   5.422  17.730  0.00  0.00    +0.000 C 
BRANCH  17  18
ATOM     18  C   PHE A   1       6.856   5.149  16.287  0.00  0.00    +0.000 C 
ATOM     19  O   PHE A   1       7.809   4.412  16.022  0.00  0.00    +0.000 OA
BRANCH  18  20
ATOM     20  OXT PHE A   1       6.104   5.696  15.307  0.00  0.00    +0.000 OA
ATOM     21  HXT PHE A   1       5.136   5.669  15.432  0.00  0.00    +0.000 HD
ENDBRANCH  18  20
ENDBRANCH  17  18
BRANCH  17  22
ATOM     22  CB  PHE A   1       4.924   5.841  17.768  0.00  0.00    +0.000 C 
BRANCH  22  23
ATOM     23  CG  PHE A   1       3.921   4.714  17.771  0.00  0.00    +0.000 A 
ATOM     24  CD1 PHE A   1       4.319   3.371  17.708  0.00  0.00    +0.000 A 
ATOM     25  CE1 PHE A   1       3.374   2.350  17.827  0.00  0.00    +0.000 A 
ATOM     26  CZ  PHE A   1       2.027   2.664  17.998  0.00  0.00    +0.000 A 
ATOM     27  CE2 PHE A   1       1.618   3.996  18.011  0.00  0.00    +0.000 A 
ATOM     28  CD2 PHE A   1       2.560   5.015  17.892  0.00  0.00    +0.000 A 
ENDBRANCH  22  23
ENDBRANCH  17  22
ENDBRANCH   3  17
TORSDOF 8
ENDMDL
MODEL 3
REMARK VINA RESULT:      -8.0      4.561      7.089
REMARK  Name = 
REMARK  8 active torsions:
REMARK  status: ('A' for Active; 'I' for Inactive)
REMARK    1  A    between atoms: C_2  and  C_3
REMARK    2  A    between atoms: C_3  and  C_4
REMARK    3  A    between atoms: C_4  and  C_5
REMARK    4  A    between atoms: N_14  and  CA_15
REMARK    5  A    between atoms: CA_15  and  CB_16
REMARK    6  A    between atoms: CA_15  and  C_23
REMARK    7  A    between atoms: CB_16  and  CG_17
REMARK    8  A    between atoms: C_23  and  OXT_25
REMARK                            x       y       z     vdW  Elec       q    Type
REMARK                         _______ _______ _______ _____ _____    ______ ____
ROOT
ATOM      1  O   UNK A   0       4.786   3.030  19.559  0.00  0.00    +0.000 OA
ATOM      2  C   UNK A   0       3.906   3.405  18.790  0.00  0.00    +0.000 C 
ATOM      3  N   PHE A   1       2.857   4.183  19.210  0.00  0.00    +0.000 N 
ATOM      4  H   PHE A   1       2.079   4.341  18.574  0.00  0.00    +0.000 HD
ENDROOT
BRANCH   2   5
ATOM      5  C   UNK A   0       3.881   2.972  17.321  0.00  0.00    +0.000 C 
BRANCH   5   6
ATOM      6  C   UNK A   0       5.159   3.269  16.527  0.00  0.00    +0.000 C 
BRANCH   6   7
ATOM      7  C   UNK A   0       5.529   4.738  16.477  0.00  0.00    +0.000 A 
ATOM      8  C   UNK A   0       5.091   5.666  15.538  0.00  0.00    +0.000 A 
ATOM      9  N   UNK A   0       5.710   6.862  15.785  0.00  0.00    +0.000 N 
ATOM     10  C   UNK A   0       6.550   6.758  16.866  0.00  0.00    +0.000 A 
ATOM     11  C   UNK A   0       7.388   7.719  17.454  0.00  0.00    +0.000 A 
ATOM     12  C   UNK A   0       8.144   7.325  18.563  0.00  0.00    +0.000 A 
ATOM     13  C   UNK A   0       8.060   6.029  19.058  0.00  0.00    +0.000 A 
ATOM     14  C   UNK A   0       7.221   5.081  18.455  0.00  0.00    +0.000 A 
ATOM     15  C   UNK A   0       6.445   5.445  17.332  0.00  0.00    +0.000 A 
ATOM     16  H   UNK A   0       5.590   7.703  15.240  0.00  0.00    +0.000 HD
ENDBRANCH   6   7
ENDBRANCH   5   6
ENDBRANCH   2   5
BRANCH   3  17
ATOM     17  CA  PHE A   1       2.595   4.580  20.617  0.00  0.00    +0.000 C 
BRANCH  17  18
ATOM     18  C   PHE A   1       1.942   3.386  21.332  0.00  0.00    +0.000 C 
ATOM     19  O   PHE A   1       2.478   2.811  22.282  0.00  0.00    +0.000 OA
BRANCH  18  20
ATOM     20  OXT PHE A   1       0.702   3.044  20.919  0.00  0.00    +0.000 OA
ATOM     21  HXT PHE A   1      -0.041   3.557  21.293  0.00  0.00    +0.000 HD
ENDBRANCH  18  20
ENDBRANCH  17  18
BRANCH  17  22
ATOM     22  CB  PHE A   1       1.754   5.853  20.799  0.00  0.00    +0.000 C 
BRANCH  22  23
ATOM     23  CG  PHE A   1       2.025   6.966  19.818  0.00  0.00    +0.000 A 
ATOM     24  CD1 PHE A   1       2.868   6.786  18.712  0.00  0.00    +0.000 A 
ATOM     25  CE1 PHE A   1       3.010   7.800  17.763  0.00  0.00    +0.000 A 
ATOM     26  CZ  PHE A   1       2.320   9.002  17.918  0.00  0.00    +0.000 A 
ATOM     27  CE2 PHE A   1       1.521   9.206  19.041  0.00  0.00    +0.000 A 
ATOM     28  CD2 PHE A   1       1.380   8.196  19.989  0.00  0.00    +0.000 A 
ENDBRANCH  22  23
ENDBRANCH  17  22
ENDBRANCH   3  17
TORSDOF 8
ENDMDL
MODEL 4
REMARK VINA RESULT:      -8.0      5.729      7.452
REMARK  Name = 
REMARK  8 active torsions:
REMARK  status: ('A' for Active; 'I' for Inactive)
REMARK    1  A    between atoms: C_2  and  C_3
REMARK    2  A    between atoms: C_3  and  C_4
REMARK    3  A    between atoms: C_4  and  C_5
REMARK    4  A    between atoms: N_14  and  CA_15
REMARK    5  A    between atoms: CA_15  and  CB_16
REMARK    6  A    between atoms: CA_15  and  C_23
REMARK    7  A    between atoms: CB_16  and  CG_17
REMARK    8  A    between atoms: C_23  and  OXT_25
REMARK                            x       y       z     vdW  Elec       q    Type
REMARK                         _______ _______ _______ _____ _____    ______ ____
ROOT
ATOM      1  O   UNK A   0       3.497   3.500  17.551  0.00  0.00    +0.000 OA
ATOM      2  C   UNK A   0       3.580   4.723  17.613  0.00  0.00    +0.000 C 
ATOM      3  N   PHE A   1       4.720   5.394  17.248  0.00  0.00    +0.000 N 
ATOM      4  H   PHE A   1       4.792   6.385  17.458  0.00  0.00    +0.000 HD
ENDROOT
BRANCH   2   5
ATOM      5  C   UNK A   0       2.438   5.581  18.168  0.00  0.00    +0.000 C 
BRANCH   5   6
ATOM      6  C   UNK A   0       2.866   6.722  19.098  0.00  0.00    +0.000 C 
BRANCH   6   7
ATOM      7  C   UNK A   0       2.091   8.008  18.897  0.00  0.00    +0.000 A 
ATOM      8  C   UNK A   0       2.092   8.800  17.753  0.00  0.00    +0.000 A 
ATOM      9  N   UNK A   0       1.334   9.915  17.992  0.00  0.00    +0.000 N 
ATOM     10  C   UNK A   0       0.824   9.889  19.267  0.00  0.00    +0.000 A 
ATOM     11  C   UNK A   0       0.019  10.823  19.936  0.00  0.00    +0.000 A 
ATOM     12  C   UNK A   0      -0.354  10.530  21.252  0.00  0.00    +0.000 A 
ATOM     13  C   UNK A   0       0.061   9.353  21.865  0.00  0.00    +0.000 A 
ATOM     14  C   UNK A   0       0.870   8.433  21.182  0.00  0.00    +0.000 A 
ATOM     15  C   UNK A   0       1.266   8.700  19.852  0.00  0.00    +0.000 A 
ATOM     16  H   UNK A   0       1.183  10.667  17.337  0.00  0.00    +0.000 HD
ENDBRANCH   6   7
ENDBRANCH   5   6
ENDBRANCH   2   5
BRANCH   3  17
ATOM     17  CA  PHE A   1       5.996   4.753  16.841  0.00  0.00    +0.000 C 
BRANCH  17  18
ATOM     18  C   PHE A   1       6.863   4.584  18.099  0.00  0.00    +0.000 C 
ATOM     19  O   PHE A   1       6.439   4.827  19.231  0.00  0.00    +0.000 OA
BRANCH  18  20
ATOM     20  OXT PHE A   1       8.099   4.073  17.912  0.00  0.00    +0.000 OA
ATOM     21  HXT PHE A   1       8.801   4.705  17.662  0.00  0.00    +0.000 HD
ENDBRANCH  18  20
ENDBRANCH  17  18
BRANCH  17  22
ATOM     22  CB  PHE A   1       6.775   5.478  15.732  0.00  0.00    +0.000 C 
BRANCH  22  23
ATOM     23  CG  PHE A   1       6.757   4.816  14.376  0.00  0.00    +0.000 A 
ATOM     24  CD1 PHE A   1       5.808   3.838  14.045  0.00  0.00    +0.000 A 
ATOM     25  CE1 PHE A   1       5.749   3.327  12.747  0.00  0.00    +0.000 A 
ATOM     26  CZ  PHE A   1       6.642   3.782  11.777  0.00  0.00    +0.000 A 
ATOM     27  CE2 PHE A   1       7.618   4.716  12.113  0.00  0.00    +0.000 A 
ATOM     28  CD2 PHE A   1       7.680   5.225  13.407  0.00  0.00    +0.000 A 
ENDBRANCH  22  23
ENDBRANCH  17  22
ENDBRANCH   3  17
TORSDOF 8
ENDMDL
MODEL 5
REMARK VINA RESULT:      -7.9      6.024      8.816
REMARK  Name = 
REMARK  8 active torsions:
REMARK  status: ('A' for Active; 'I' for Inactive)
REMARK    1  A    between atoms: C_2  and  C_3
REMARK    2  A    between atoms: C_3  and  C_4
REMARK    3  A    between atoms: C_4  and  C_5
REMARK    4  A    between atoms: N_14  and  CA_15
REMARK    5  A    between atoms: CA_15  and  CB_16
REMARK    6  A    between atoms: CA_15  and  C_23
REMARK    7  A    between atoms: CB_16  and  CG_17
REMARK    8  A    between atoms: C_23  and  OXT_25
REMARK                            x       y       z     vdW  Elec       q    Type
REMARK                         _______ _______ _______ _____ _____    ______ ____
ROOT
ATOM      1  O   UNK A   0       2.460   8.580  17.358  0.00  0.00    +0.000 OA
ATOM      2  C   UNK A   0       2.042   8.331  18.485  0.00  0.00    +0.000 C 
ATOM      3  N   PHE A   1       1.067   9.090  19.083  0.00  0.00    +0.000 N 
ATOM      4  H   PHE A   1       0.864   8.937  20.067  0.00  0.00    +0.000 HD
ENDROOT
BRANCH   2   5
ATOM      5  C   UNK A   0       2.630   7.196  19.330  0.00  0.00    +0.000 C 
BRANCH   5   6
ATOM      6  C   UNK A   0       2.481   5.790  18.737  0.00  0.00    +0.000 C 
BRANCH   6   7
ATOM      7  C   UNK A   0       3.794   5.064  18.528  0.00  0.00    +0.000 A 
ATOM      8  C   UNK A   0       4.363   4.127  19.384  0.00  0.00    +0.000 A 
ATOM      9  N   UNK A   0       5.586   3.765  18.885  0.00  0.00    +0.000 N 
ATOM     10  C   UNK A   0       5.849   4.434  17.716  0.00  0.00    +0.000 A 
ATOM     11  C   UNK A   0       6.978   4.387  16.884  0.00  0.00    +0.000 A 
ATOM     12  C   UNK A   0       6.972   5.192  15.740  0.00  0.00    +0.000 A 
ATOM     13  C   UNK A   0       5.882   6.004  15.446  0.00  0.00    +0.000 A 
ATOM     14  C   UNK A   0       4.765   6.042  16.292  0.00  0.00    +0.000 A 
ATOM     15  C   UNK A   0       4.739   5.242  17.457  0.00  0.00    +0.000 A 
ATOM     16  H   UNK A   0       6.221   3.113  19.321  0.00  0.00    +0.000 HD
ENDBRANCH   6   7
ENDBRANCH   5   6
ENDBRANCH   2   5
BRANCH   3  17
ATOM     17  CA  PHE A   1       0.478  10.329  18.514  0.00  0.00    +0.000 C 
BRANCH  17  18
ATOM     18  C   PHE A   1       1.473  11.477  18.750  0.00  0.00    +0.000 C 
ATOM     19  O   PHE A   1       1.511  12.112  19.807  0.00  0.00    +0.000 OA
BRANCH  18  20
ATOM     20  OXT PHE A   1       2.369  11.706  17.766  0.00  0.00    +0.000 OA
ATOM     21  HXT PHE A   1       2.565  10.958  17.169  0.00  0.00    +0.000 HD
ENDBRANCH  18  20
ENDBRANCH  17  18
BRANCH  17  22
ATOM     22  CB  PHE A   1      -0.918  10.698  19.039  0.00  0.00    +0.000 C 
BRANCH  22  23
ATOM     23  CG  PHE A   1      -2.029  10.681  18.019  0.00  0.00    +0.000 A 
ATOM     24  CD1 PHE A   1      -3.166  11.491  18.150  0.00  0.00    +0.000 A 
ATOM     25  CE1 PHE A   1      -4.121  11.534  17.134  0.00  0.00    +0.000 A 
ATOM     26  CZ  PHE A   1      -3.953  10.760  15.986  0.00  0.00    +0.000 A 
ATOM     27  CE2 PHE A   1      -2.851   9.916  15.870  0.00  0.00    +0.000 A 
ATOM     28  CD2 PHE A   1      -1.898   9.871  16.884  0.00  0.00    +0.000 A 
ENDBRANCH  22  23
ENDBRANCH  17  22
ENDBRANCH   3  17
TORSDOF 8
ENDMDL
MODEL 6
REMARK VINA RESULT:      -7.9      1.967      2.319
REMARK  Name = 
REMARK  8 active torsions:
REMARK  status: ('A' for Active; 'I' for Inactive)
REMARK    1  A    between atoms: C_2  and  C_3
REMARK    2  A    between atoms: C_3  and  C_4
REMARK    3  A    between atoms: C_4  and  C_5
REMARK    4  A    between atoms: N_14  and  CA_15
REMARK    5  A    between atoms: CA_15  and  CB_16
REMARK    6  A    between atoms: CA_15  and  C_23
REMARK    7  A    between atoms: CB_16  and  CG_17
REMARK    8  A    between atoms: C_23  and  OXT_25
REMARK                            x       y       z     vdW  Elec       q    Type
REMARK                         _______ _______ _______ _____ _____    ______ ____
ROOT
ATOM      1  O   UNK A   0       6.096   7.607  17.356  0.00  0.00    +0.000 OA
ATOM      2  C   UNK A   0       7.231   7.165  17.510  0.00  0.00    +0.000 C 
ATOM      3  N   PHE A   1       7.588   5.912  17.081  0.00  0.00    +0.000 N 
ATOM      4  H   PHE A   1       8.489   5.535  17.364  0.00  0.00    +0.000 HD
ENDROOT
BRANCH   2   5
ATOM      5  C   UNK A   0       8.310   7.958  18.255  0.00  0.00    +0.000 C 
BRANCH   5   6
ATOM      6  C   UNK A   0       8.318   9.468  17.987  0.00  0.00    +0.000 C 
BRANCH   6   7
ATOM      7  C   UNK A   0       9.162  10.264  18.962  0.00  0.00    +0.000 A 
ATOM      8  C   UNK A   0       9.037  10.267  20.347  0.00  0.00    +0.000 A 
ATOM      9  N   UNK A   0       9.924  11.174  20.864  0.00  0.00    +0.000 N 
ATOM     10  C   UNK A   0      10.640  11.776  19.860  0.00  0.00    +0.000 A 
ATOM     11  C   UNK A   0      11.630  12.769  19.928  0.00  0.00    +0.000 A 
ATOM     12  C   UNK A   0      12.194  13.202  18.723  0.00  0.00    +0.000 A 
ATOM     13  C   UNK A   0      11.784  12.662  17.509  0.00  0.00    +0.000 A 
ATOM     14  C   UNK A   0      10.789  11.675  17.461  0.00  0.00    +0.000 A 
ATOM     15  C   UNK A   0      10.197  11.216  18.659  0.00  0.00    +0.000 A 
ATOM     16  H   UNK A   0      10.029  11.391  21.844  0.00  0.00    +0.000 HD
ENDBRANCH   6   7
ENDBRANCH   5   6
ENDBRANCH   2   5
BRANCH   3  17
ATOM     17  CA  PHE A   1       6.661   4.915  16.487  0.00  0.00    +0.000 C 
BRANCH  17  18
ATOM     18  C   PHE A   1       7.001   4.785  14.993  0.00  0.00    +0.000 C 
ATOM     19  O   PHE A   1       6.415   3.996  14.248  0.00  0.00    +0.000 OA
BRANCH  18  20
ATOM     20  OXT PHE A   1       7.924   5.644  14.511  0.00  0.00    +0.000 OA
ATOM     21  HXT PHE A   1       7.600   6.344  13.911  0.00  0.00    +0.000 HD
ENDBRANCH  18  20
ENDBRANCH  17  18
BRANCH  17  22
ATOM     22  CB  PHE A   1       5.164   5.202  16.684  0.00  0.00    +0.000 C 
BRANCH  22  23
ATOM     23  CG  PHE A   1       4.401   4.182  17.491  0.00  0.00    +0.000 A 
ATOM     24  CD1 PHE A   1       4.795   3.820  18.787  0.00  0.00    +0.000 A 
ATOM     25  CE1 PHE A   1       4.004   2.958  19.548  0.00  0.00    +0.000 A 
ATOM     26  CZ  PHE A   1       2.822   2.444  19.017  0.00  0.00    +0.000 A 
ATOM     27  CE2 PHE A   1       2.450   2.761  17.712  0.00  0.00    +0.000 A 
ATOM     28  CD2 PHE A   1       3.239   3.619  16.951  0.00  0.00    +0.000 A 
ENDBRANCH  22  23
ENDBRANCH  17  22
ENDBRANCH   3  17
TORSDOF 8
ENDMDL
MODEL 7
REMARK VINA RESULT:      -7.8      1.651      2.192
REMARK  Name = 
REMARK  8 active torsions:
REMARK  status: ('A' for Active; 'I' for Inactive)
REMARK    1  A    between atoms: C_2  and  C_3
REMARK    2  A    between atoms: C_3  and  C_4
REMARK    3  A    between atoms: C_4  and  C_5
REMARK    4  A    between atoms: N_14  and  CA_15
REMARK    5  A    between atoms: CA_15  and  CB_16
REMARK    6  A    between atoms: CA_15  and  C_23
REMARK    7  A    between atoms: CB_16  and  CG_17
REMARK    8  A    between atoms: C_23  and  OXT_25
REMARK                            x       y       z     vdW  Elec       q    Type
REMARK                         _______ _______ _______ _____ _____    ______ ____
ROOT
ATOM      1  O   UNK A   0       7.935   7.056  16.423  0.00  0.00    +0.000 OA
ATOM      2  C   UNK A   0       7.483   7.577  17.438  0.00  0.00    +0.000 C 
ATOM      3  N   PHE A   1       6.632   6.909  18.282  0.00  0.00    +0.000 N 
ATOM      4  H   PHE A   1       6.168   7.428  19.022  0.00  0.00    +0.000 HD
ENDROOT
BRANCH   2   5
ATOM      5  C   UNK A   0       7.782   9.037  17.796  0.00  0.00    +0.000 C 
BRANCH   5   6
ATOM      6  C   UNK A   0       8.909   9.246  18.814  0.00  0.00    +0.000 C 
BRANCH   6   7
ATOM      7  C   UNK A   0       9.454  10.659  18.852  0.00  0.00    +0.000 A 
ATOM      8  C   UNK A   0      10.112  11.316  17.818  0.00  0.00    +0.000 A 
ATOM      9  N   UNK A   0      10.519  12.544  18.269  0.00  0.00    +0.000 N 
ATOM     10  C   UNK A   0      10.149  12.724  19.579  0.00  0.00    +0.000 A 
ATOM     11  C   UNK A   0      10.373  13.812  20.437  0.00  0.00    +0.000 A 
ATOM     12  C   UNK A   0       9.876  13.718  21.741  0.00  0.00    +0.000 A 
ATOM     13  C   UNK A   0       9.184  12.587  22.161  0.00  0.00    +0.000 A 
ATOM     14  C   UNK A   0       8.975  11.508  21.290  0.00  0.00    +0.000 A 
ATOM     15  C   UNK A   0       9.466  11.569  19.967  0.00  0.00    +0.000 A 
ATOM     16  H   UNK A   0      11.039  13.219  17.728  0.00  0.00    +0.000 HD
ENDBRANCH   6   7
ENDBRANCH   5   6
ENDBRANCH   2   5
BRANCH   3  17
ATOM     17  CA  PHE A   1       6.082   5.550  18.042  0.00  0.00    +0.000 C 
BRANCH  17  18
ATOM     18  C   PHE A   1       7.252   4.622  17.680  0.00  0.00    +0.000 C 
ATOM     19  O   PHE A   1       8.162   4.366  18.473  0.00  0.00    +0.000 OA
BRANCH  18  20
ATOM     20  OXT PHE A   1       7.195   4.027  16.469  0.00  0.00    +0.000 OA
ATOM     21  HXT PHE A   1       6.578   4.417  15.819  0.00  0.00    +0.000 HD
ENDBRANCH  18  20
ENDBRANCH  17  18
BRANCH  17  22
ATOM     22  CB  PHE A   1       4.969   5.465  16.985  0.00  0.00    +0.000 C 
BRANCH  22  23
ATOM     23  CG  PHE A   1       3.756   4.656  17.373  0.00  0.00    +0.000 A 
ATOM     24  CD1 PHE A   1       3.702   3.268  17.183  0.00  0.00    +0.000 A 
ATOM     25  CE1 PHE A   1       2.612   2.534  17.654  0.00  0.00    +0.000 A 
ATOM     26  CZ  PHE A   1       1.566   3.184  18.308  0.00  0.00    +0.000 A 
ATOM     27  CE2 PHE A   1       1.590   4.568  18.457  0.00  0.00    +0.000 A 
ATOM     28  CD2 PHE A   1       2.676   5.301  17.985  0.00  0.00    +0.000 A 
ENDBRANCH  22  23
ENDBRANCH  17  22
ENDBRANCH   3  17
TORSDOF 8
ENDMDL
MODEL 8
REMARK VINA RESULT:      -7.7      1.851      2.165
REMARK  Name = 
REMARK  8 active torsions:
REMARK  status: ('A' for Active; 'I' for Inactive)
REMARK    1  A    between atoms: C_2  and  C_3
REMARK    2  A    between atoms: C_3  and  C_4
REMARK    3  A    between atoms: C_4  and  C_5
REMARK    4  A    between atoms: N_14  and  CA_15
REMARK    5  A    between atoms: CA_15  and  CB_16
REMARK    6  A    between atoms: CA_15  and  C_23
REMARK    7  A    between atoms: CB_16  and  CG_17
REMARK    8  A    between atoms: C_23  and  OXT_25
REMARK                            x       y       z     vdW  Elec       q    Type
REMARK                         _______ _______ _______ _____ _____    ______ ____
ROOT
ATOM      1  O   UNK A   0       6.464   8.086  17.292  0.00  0.00    +0.000 OA
ATOM      2  C   UNK A   0       7.427   7.540  17.821  0.00  0.00    +0.000 C 
ATOM      3  N   PHE A   1       7.514   6.176  17.942  0.00  0.00    +0.000 N 
ATOM      4  H   PHE A   1       8.253   5.782  18.518  0.00  0.00    +0.000 HD
ENDROOT
BRANCH   2   5
ATOM      5  C   UNK A   0       8.568   8.349  18.447  0.00  0.00    +0.000 C 
BRANCH   5   6
ATOM      6  C   UNK A   0       8.568   9.847  18.120  0.00  0.00    +0.000 C 
BRANCH   6   7
ATOM      7  C   UNK A   0       9.410  10.685  19.060  0.00  0.00    +0.000 A 
ATOM      8  C   UNK A   0       9.324  10.704  20.447  0.00  0.00    +0.000 A 
ATOM      9  N   UNK A   0      10.193  11.648  20.927  0.00  0.00    +0.000 N 
ATOM     10  C   UNK A   0      10.860  12.260  19.894  0.00  0.00    +0.000 A 
ATOM     11  C   UNK A   0      11.818  13.286  19.921  0.00  0.00    +0.000 A 
ATOM     12  C   UNK A   0      12.333  13.720  18.696  0.00  0.00    +0.000 A 
ATOM     13  C   UNK A   0      11.909  13.148  17.501  0.00  0.00    +0.000 A 
ATOM     14  C   UNK A   0      10.947  12.128  17.494  0.00  0.00    +0.000 A 
ATOM     15  C   UNK A   0      10.404  11.667  18.715  0.00  0.00    +0.000 A 
ATOM     16  H   UNK A   0      10.317  11.883  21.900  0.00  0.00    +0.000 HD
ENDBRANCH   6   7
ENDBRANCH   5   6
ENDBRANCH   2   5
BRANCH   3  17
ATOM     17  CA  PHE A   1       6.451   5.214  17.556  0.00  0.00    +0.000 C 
BRANCH  17  18
ATOM     18  C   PHE A   1       6.426   5.125  16.021  0.00  0.00    +0.000 C 
ATOM     19  O   PHE A   1       6.975   4.210  15.403  0.00  0.00    +0.000 OA
BRANCH  18  20
ATOM     20  OXT PHE A   1       5.696   6.062  15.378  0.00  0.00    +0.000 OA
ATOM     21  HXT PHE A   1       5.276   6.748  15.934  0.00  0.00    +0.000 HD
ENDBRANCH  18  20
ENDBRANCH  17  18
BRANCH  17  22
ATOM     22  CB  PHE A   1       5.050   5.519  18.109  0.00  0.00    +0.000 C 
BRANCH  22  23
ATOM     23  CG  PHE A   1       4.128   4.333  18.252  0.00  0.00    +0.000 A 
ATOM     24  CD1 PHE A   1       2.972   4.198  17.470  0.00  0.00    +0.000 A 
ATOM     25  CE1 PHE A   1       2.202   3.036  17.548  0.00  0.00    +0.000 A 
ATOM     26  CZ  PHE A   1       2.575   2.009  18.415  0.00  0.00    +0.000 A 
ATOM     27  CE2 PHE A   1       3.694   2.158  19.230  0.00  0.00    +0.000 A 
ATOM     28  CD2 PHE A   1       4.462   3.317  19.155  0.00  0.00    +0.000 A 
ENDBRANCH  22  23
ENDBRANCH  17  22
ENDBRANCH   3  17
TORSDOF 8
ENDMDL
MODEL 9
REMARK VINA RESULT:      -7.7      5.620      7.450
REMARK  Name = 
REMARK  8 active torsions:
REMARK  status: ('A' for Active; 'I' for Inactive)
REMARK    1  A    between atoms: C_2  and  C_3
REMARK    2  A    between atoms: C_3  and  C_4
REMARK    3  A    between atoms: C_4  and  C_5
REMARK    4  A    between atoms: N_14  and  CA_15
REMARK    5  A    between atoms: CA_15  and  CB_16
REMARK    6  A    between atoms: CA_15  and  C_23
REMARK    7  A    between atoms: CB_16  and  CG_17
REMARK    8  A    between atoms: C_23  and  OXT_25
REMARK                            x       y       z     vdW  Elec       q    Type
REMARK                         _______ _______ _______ _____ _____    ______ ____
ROOT
ATOM      1  O   UNK A   0       2.349   6.419  19.970  0.00  0.00    +0.000 OA
ATOM      2  C   UNK A   0       2.829   6.645  18.863  0.00  0.00    +0.000 C 
ATOM      3  N   PHE A   1       4.008   6.077  18.452  0.00  0.00    +0.000 N 
ATOM      4  H   PHE A   1       4.438   6.410  17.593  0.00  0.00    +0.000 HD
ENDROOT
BRANCH   2   5
ATOM      5  C   UNK A   0       2.177   7.633  17.889  0.00  0.00    +0.000 C 
BRANCH   5   6
ATOM      6  C   UNK A   0       2.293   9.111  18.278  0.00  0.00    +0.000 C 
BRANCH   6   7
ATOM      7  C   UNK A   0       1.061   9.670  18.961  0.00  0.00    +0.000 A 
ATOM      8  C   UNK A   0       0.026  10.369  18.349  0.00  0.00    +0.000 A 
ATOM      9  N   UNK A   0      -0.858  10.774  19.313  0.00  0.00    +0.000 N 
ATOM     10  C   UNK A   0      -0.441  10.362  20.555  0.00  0.00    +0.000 A 
ATOM     11  C   UNK A   0      -1.022  10.569  21.816  0.00  0.00    +0.000 A 
ATOM     12  C   UNK A   0      -0.366  10.027  22.926  0.00  0.00    +0.000 A 
ATOM     13  C   UNK A   0       0.816   9.310  22.775  0.00  0.00    +0.000 A 
ATOM     14  C   UNK A   0       1.385   9.118  21.507  0.00  0.00    +0.000 A 
ATOM     15  C   UNK A   0       0.748   9.654  20.365  0.00  0.00    +0.000 A 
ATOM     16  H   UNK A   0      -1.691  11.319  19.147  0.00  0.00    +0.000 HD
ENDBRANCH   6   7
ENDBRANCH   5   6
ENDBRANCH   2   5
BRANCH   3  17
ATOM     17  CA  PHE A   1       4.886   5.224  19.292  0.00  0.00    +0.000 C 
BRANCH  17  18
ATOM     18  C   PHE A   1       6.345   5.590  18.976  0.00  0.00    +0.000 C 
ATOM     19  O   PHE A   1       6.678   6.122  17.913  0.00  0.00    +0.000 OA
BRANCH  18  20
ATOM     20  OXT PHE A   1       7.245   5.377  19.960  0.00  0.00    +0.000 OA
ATOM     21  HXT PHE A   1       7.931   4.703  19.788  0.00  0.00    +0.000 HD
ENDBRANCH  18  20
ENDBRANCH  17  18
BRANCH  17  22
ATOM     22  CB  PHE A   1       4.661   3.710  19.159  0.00  0.00    +0.000 C 
BRANCH  22  23
ATOM     23  CG  PHE A   1       3.258   3.228  19.431  0.00  0.00    +0.000 A 
ATOM     24  CD1 PHE A   1       2.762   3.095  20.736  0.00  0.00    +0.000 A 
ATOM     25  CE1 PHE A   1       1.426   2.755  20.950  0.00  0.00    +0.000 A 
ATOM     26  CZ  PHE A   1       0.580   2.535  19.864  0.00  0.00    +0.000 A 
ATOM     27  CE2 PHE A   1       1.078   2.616  18.566  0.00  0.00    +0.000 A 
ATOM     28  CD2 PHE A   1       2.411   2.954  18.351  0.00  0.00    +0.000 A 
ENDBRANCH  22  23
ENDBRANCH  17  22
ENDBRANCH   3  17
TORSDOF 8
ENDMDL
