MODEL 1
REMARK VINA RESULT:      -7.4      0.000      0.000
REMARK  Name = 
REMARK  6 active torsions:
REMARK  status: ('A' for Active; 'I' for Inactive)
REMARK    1  A    between atoms: C_1  and  C_2
REMARK    2  A    between atoms: N_10  and  C_11
REMARK    3  A    between atoms: C_11  and  C_12
REMARK    4  A    between atoms: C_12  and  C_13
REMARK    5  A    between atoms: C_13  and  O_14
REMARK    6  A    between atoms: O_14  and  C_15
REMARK                            x       y       z     vdW  Elec       q    Type
REMARK                         _______ _______ _______ _____ _____    ______ ____
ROOT
ATOM      1  C   UNL     1       7.160   5.876  17.713  0.00  0.00    +0.000 C 
ATOM      2  C   UNL     1       6.995   5.360  16.327  0.00  0.00    +0.000 A 
ATOM      3  N   UNL     1       7.716   5.743  15.295  0.00  0.00    +0.000 NA
ATOM      4  C   UNL     1       7.237   5.039  14.224  0.00  0.00    +0.000 A 
ATOM      5  C   UNL     1       7.660   5.084  12.885  0.00  0.00    +0.000 A 
ATOM      6  C   UNL     1       7.027   4.273  11.938  0.00  0.00    +0.000 A 
ATOM      7  C   UNL     1       5.990   3.430  12.319  0.00  0.00    +0.000 A 
ATOM      8  C   UNL     1       5.556   3.375  13.647  0.00  0.00    +0.000 A 
ATOM      9  C   UNL     1       6.194   4.191  14.598  0.00  0.00    +0.000 A 
ATOM     10  N   UNL     1       6.054   4.412  15.954  0.00  0.00    +0.000 N 
ENDROOT
BRANCH  10  11
ATOM     11  C   UNL     1       5.120   3.815  16.902  0.00  0.00    +0.000 C 
BRANCH  11  12
ATOM     12  C   UNL     1       3.699   4.365  16.903  0.00  0.00    +0.000 C 
BRANCH  12  13
ATOM     13  C   UNL     1       3.537   5.613  17.750  0.00  0.00    +0.000 C 
BRANCH  13  14
ATOM     14  O   UNL     1       2.213   5.649  18.269  0.00  0.00    +0.000 OA
BRANCH  14  15
ATOM     15  C   UNL     1       1.907   4.684  19.188  0.00  0.00    +0.000 A 
ATOM     16  C   UNL     1       1.131   3.546  18.948  0.00  0.00    +0.000 A 
ATOM     17  C   UNL     1       0.889   2.634  19.976  0.00  0.00    +0.000 A 
ATOM     18  C   UNL     1       1.421   2.851  21.243  0.00  0.00    +0.000 A 
ATOM     19  C   UNL     1       2.197   3.983  21.489  0.00  0.00    +0.000 A 
ATOM     20  C   UNL     1       2.438   4.896  20.462  0.00  0.00    +0.000 A 
ENDBRANCH  14  15
ENDBRANCH  13  14
ENDBRANCH  12  13
ENDBRANCH  11  12
ENDBRANCH  10  11
TORSDOF 5
ENDMDL
MODEL 2
REMARK VINA RESULT:      -7.1      0.841      1.406
REMARK  Name = 
REMARK  6 active torsions:
REMARK  status: ('A' for Active; 'I' for Inactive)
REMARK    1  A    between atoms: C_1  and  C_2
REMARK    2  A    between atoms: N_10  and  C_11
REMARK    3  A    between atoms: C_11  and  C_12
REMARK    4  A    between atoms: C_12  and  C_13
REMARK    5  A    between atoms: C_13  and  O_14
REMARK    6  A    between atoms: O_14  and  C_15
REMARK                            x       y       z     vdW  Elec       q    Type
REMARK                         _______ _______ _______ _____ _____    ______ ____
ROOT
ATOM      1  C   UNL     1       7.127   6.477  17.328  0.00  0.00    +0.000 C 
ATOM      2  C   UNL     1       6.862   5.744  16.060  0.00  0.00    +0.000 A 
ATOM      3  N   UNL     1       7.715   5.638  15.064  0.00  0.00    +0.000 NA
ATOM      4  C   UNL     1       7.076   4.902  14.103  0.00  0.00    +0.000 A 
ATOM      5  C   UNL     1       7.549   4.511  12.840  0.00  0.00    +0.000 A 
ATOM      6  C   UNL     1       6.723   3.753  12.003  0.00  0.00    +0.000 A 
ATOM      7  C   UNL     1       5.448   3.391  12.418  0.00  0.00    +0.000 A 
ATOM      8  C   UNL     1       4.962   3.774  13.672  0.00  0.00    +0.000 A 
ATOM      9  C   UNL     1       5.793   4.536  14.512  0.00  0.00    +0.000 A 
ATOM     10  N   UNL     1       5.675   5.086  15.774  0.00  0.00    +0.000 N 
ENDROOT
BRANCH  10  11
ATOM     11  C   UNL     1       4.553   5.045  16.704  0.00  0.00    +0.000 C 
BRANCH  11  12
ATOM     12  C   UNL     1       4.168   3.678  17.256  0.00  0.00    +0.000 C 
BRANCH  12  13
ATOM     13  C   UNL     1       2.769   3.242  16.863  0.00  0.00    +0.000 C 
BRANCH  13  14
ATOM     14  O   UNL     1       1.824   4.016  17.592  0.00  0.00    +0.000 OA
BRANCH  14  15
ATOM     15  C   UNL     1       1.888   3.906  18.954  0.00  0.00    +0.000 A 
ATOM     16  C   UNL     1       2.252   4.928  19.837  0.00  0.00    +0.000 A 
ATOM     17  C   UNL     1       2.281   4.688  21.210  0.00  0.00    +0.000 A 
ATOM     18  C   UNL     1       1.945   3.433  21.709  0.00  0.00    +0.000 A 
ATOM     19  C   UNL     1       1.580   2.411  20.834  0.00  0.00    +0.000 A 
ATOM     20  C   UNL     1       1.553   2.650  19.460  0.00  0.00    +0.000 A 
ENDBRANCH  14  15
ENDBRANCH  13  14
ENDBRANCH  12  13
ENDBRANCH  11  12
ENDBRANCH  10  11
TORSDOF 5
ENDMDL
MODEL 3
REMARK VINA RESULT:      -7.0      2.194      6.867
REMARK  Name = 
REMARK  6 active torsions:
REMARK  status: ('A' for Active; 'I' for Inactive)
REMARK    1  A    between atoms: C_1  and  C_2
REMARK    2  A    between atoms: N_10  and  C_11
REMARK    3  A    between atoms: C_11  and  C_12
REMARK    4  A    between atoms: C_12  and  C_13
REMARK    5  A    between atoms: C_13  and  O_14
REMARK    6  A    between atoms: O_14  and  C_15
REMARK                            x       y       z     vdW  Elec       q    Type
REMARK                         _______ _______ _______ _____ _____    ______ ____
ROOT
ATOM      1  C   UNL     1       6.893   5.433  19.313  0.00  0.00    +0.000 C 
ATOM      2  C   UNL     1       5.543   4.830  19.146  0.00  0.00    +0.000 A 
ATOM      3  N   UNL     1       5.178   3.666  19.638  0.00  0.00    +0.000 NA
ATOM      4  C   UNL     1       3.877   3.488  19.249  0.00  0.00    +0.000 A 
ATOM      5  C   UNL     1       3.025   2.404  19.508  0.00  0.00    +0.000 A 
ATOM      6  C   UNL     1       1.718   2.424  19.011  0.00  0.00    +0.000 A 
ATOM      7  C   UNL     1       1.268   3.507  18.267  0.00  0.00    +0.000 A 
ATOM      8  C   UNL     1       2.104   4.595  17.999  0.00  0.00    +0.000 A 
ATOM      9  C   UNL     1       3.418   4.573  18.499  0.00  0.00    +0.000 A 
ATOM     10  N   UNL     1       4.504   5.426  18.446  0.00  0.00    +0.000 N 
ENDROOT
BRANCH  10  11
ATOM     11  C   UNL     1       4.635   6.724  17.795  0.00  0.00    +0.000 C 
BRANCH  11  12
ATOM     12  C   UNL     1       4.885   6.717  16.293  0.00  0.00    +0.000 C 
BRANCH  12  13
ATOM     13  C   UNL     1       5.304   5.360  15.758  0.00  0.00    +0.000 C 
BRANCH  13  14
ATOM     14  O   UNL     1       6.597   5.474  15.177  0.00  0.00    +0.000 OA
BRANCH  14  15
ATOM     15  C   UNL     1       6.749   4.900  13.945  0.00  0.00    +0.000 A 
ATOM     16  C   UNL     1       7.682   5.286  12.976  0.00  0.00    +0.000 A 
ATOM     17  C   UNL     1       7.736   4.620  11.752  0.00  0.00    +0.000 A 
ATOM     18  C   UNL     1       6.864   3.567  11.490  0.00  0.00    +0.000 A 
ATOM     19  C   UNL     1       5.934   3.176  12.451  0.00  0.00    +0.000 A 
ATOM     20  C   UNL     1       5.878   3.844  13.675  0.00  0.00    +0.000 A 
ENDBRANCH  14  15
ENDBRANCH  13  14
ENDBRANCH  12  13
ENDBRANCH  11  12
ENDBRANCH  10  11
TORSDOF 5
ENDMDL
MODEL 4
REMARK VINA RESULT:      -6.9      2.252      7.124
REMARK  Name = 
REMARK  6 active torsions:
REMARK  status: ('A' for Active; 'I' for Inactive)
REMARK    1  A    between atoms: C_1  and  C_2
REMARK    2  A    between atoms: N_10  and  C_11
REMARK    3  A    between atoms: C_11  and  C_12
REMARK    4  A    between atoms: C_12  and  C_13
REMARK    5  A    between atoms: C_13  and  O_14
REMARK    6  A    between atoms: O_14  and  C_15
REMARK                            x       y       z     vdW  Elec       q    Type
REMARK                         _______ _______ _______ _____ _____    ______ ____
ROOT
ATOM      1  C   UNL     1       2.490   8.236  18.005  0.00  0.00    +0.000 C 
ATOM      2  C   UNL     1       2.745   6.884  18.571  0.00  0.00    +0.000 A 
ATOM      3  N   UNL     1       2.121   6.380  19.613  0.00  0.00    +0.000 NA
ATOM      4  C   UNL     1       2.657   5.135  19.802  0.00  0.00    +0.000 A 
ATOM      5  C   UNL     1       2.343   4.185  20.787  0.00  0.00    +0.000 A 
ATOM      6  C   UNL     1       3.021   2.961  20.802  0.00  0.00    +0.000 A 
ATOM      7  C   UNL     1       3.994   2.688  19.849  0.00  0.00    +0.000 A 
ATOM      8  C   UNL     1       4.319   3.623  18.862  0.00  0.00    +0.000 A 
ATOM      9  C   UNL     1       3.638   4.854  18.850  0.00  0.00    +0.000 A 
ATOM     10  N   UNL     1       3.678   5.991  18.066  0.00  0.00    +0.000 N 
ENDROOT
BRANCH  10  11
ATOM     11  C   UNL     1       4.514   6.294  16.910  0.00  0.00    +0.000 C 
BRANCH  11  12
ATOM     12  C   UNL     1       5.972   6.638  17.188  0.00  0.00    +0.000 C 
BRANCH  12  13
ATOM     13  C   UNL     1       6.942   5.567  16.724  0.00  0.00    +0.000 C 
BRANCH  13  14
ATOM     14  O   UNL     1       6.231   4.604  15.956  0.00  0.00    +0.000 OA
BRANCH  14  15
ATOM     15  C   UNL     1       6.564   4.536  14.631  0.00  0.00    +0.000 A 
ATOM     16  C   UNL     1       7.566   5.283  14.003  0.00  0.00    +0.000 A 
ATOM     17  C   UNL     1       7.807   5.122  12.639  0.00  0.00    +0.000 A 
ATOM     18  C   UNL     1       7.054   4.216  11.897  0.00  0.00    +0.000 A 
ATOM     19  C   UNL     1       6.056   3.467  12.518  0.00  0.00    +0.000 A 
ATOM     20  C   UNL     1       5.812   3.629  13.882  0.00  0.00    +0.000 A 
ENDBRANCH  14  15
ENDBRANCH  13  14
ENDBRANCH  12  13
ENDBRANCH  11  12
ENDBRANCH  10  11
TORSDOF 5
ENDMDL
MODEL 5
REMARK VINA RESULT:      -6.9      1.294      2.179
REMARK  Name = 
REMARK  6 active torsions:
REMARK  status: ('A' for Active; 'I' for Inactive)
REMARK    1  A    between atoms: C_1  and  C_2
REMARK    2  A    between atoms: N_10  and  C_11
REMARK    3  A    between atoms: C_11  and  C_12
REMARK    4  A    between atoms: C_12  and  C_13
REMARK    5  A    between atoms: C_13  and  O_14
REMARK    6  A    between atoms: O_14  and  C_15
REMARK                            x       y       z     vdW  Elec       q    Type
REMARK                         _______ _______ _______ _____ _____    ______ ____
ROOT
ATOM      1  C   UNL     1       8.049   7.532  18.450  0.00  0.00    +0.000 C 
ATOM      2  C   UNL     1       7.462   6.538  17.511  0.00  0.00    +0.000 A 
ATOM      3  N   UNL     1       7.699   6.498  16.218  0.00  0.00    +0.000 NA
ATOM      4  C   UNL     1       6.962   5.451  15.736  0.00  0.00    +0.000 A 
ATOM      5  C   UNL     1       6.857   4.987  14.415  0.00  0.00    +0.000 A 
ATOM      6  C   UNL     1       6.037   3.889  14.136  0.00  0.00    +0.000 A 
ATOM      7  C   UNL     1       5.334   3.263  15.157  0.00  0.00    +0.000 A 
ATOM      8  C   UNL     1       5.426   3.713  16.477  0.00  0.00    +0.000 A 
ATOM      9  C   UNL     1       6.250   4.817  16.756  0.00  0.00    +0.000 A 
ATOM     10  N   UNL     1       6.587   5.530  17.890  0.00  0.00    +0.000 N 
ENDROOT
BRANCH  10  11
ATOM     11  C   UNL     1       6.151   5.343  19.269  0.00  0.00    +0.000 C 
BRANCH  11  12
ATOM     12  C   UNL     1       4.649   5.286  19.513  0.00  0.00    +0.000 C 
BRANCH  12  13
ATOM     13  C   UNL     1       3.870   6.322  18.725  0.00  0.00    +0.000 C 
BRANCH  13  14
ATOM     14  O   UNL     1       2.518   6.317  19.168  0.00  0.00    +0.000 OA
BRANCH  14  15
ATOM     15  C   UNL     1       1.942   5.086  19.310  0.00  0.00    +0.000 A 
ATOM     16  C   UNL     1       1.465   4.542  20.507  0.00  0.00    +0.000 A 
ATOM     17  C   UNL     1       0.898   3.268  20.520  0.00  0.00    +0.000 A 
ATOM     18  C   UNL     1       0.801   2.533  19.342  0.00  0.00    +0.000 A 
ATOM     19  C   UNL     1       1.272   3.070  18.145  0.00  0.00    +0.000 A 
ATOM     20  C   UNL     1       1.842   4.343  18.132  0.00  0.00    +0.000 A 
ENDBRANCH  14  15
ENDBRANCH  13  14
ENDBRANCH  12  13
ENDBRANCH  11  12
ENDBRANCH  10  11
TORSDOF 5
ENDMDL
MODEL 6
REMARK VINA RESULT:      -6.9      4.070      7.797
REMARK  Name = 
REMARK  6 active torsions:
REMARK  status: ('A' for Active; 'I' for Inactive)
REMARK    1  A    between atoms: C_1  and  C_2
REMARK    2  A    between atoms: N_10  and  C_11
REMARK    3  A    between atoms: C_11  and  C_12
REMARK    4  A    between atoms: C_12  and  C_13
REMARK    5  A    between atoms: C_13  and  O_14
REMARK    6  A    between atoms: O_14  and  C_15
REMARK                            x       y       z     vdW  Elec       q    Type
REMARK                         _______ _______ _______ _____ _____    ______ ____
ROOT
ATOM      1  C   UNL     1       7.155   4.419  15.788  0.00  0.00    +0.000 C 
ATOM      2  C   UNL     1       5.933   4.563  16.624  0.00  0.00    +0.000 A 
ATOM      3  N   UNL     1       4.776   3.993  16.363  0.00  0.00    +0.000 NA
ATOM      4  C   UNL     1       3.931   4.389  17.364  0.00  0.00    +0.000 A 
ATOM      5  C   UNL     1       2.578   4.064  17.548  0.00  0.00    +0.000 A 
ATOM      6  C   UNL     1       1.891   4.584  18.651  0.00  0.00    +0.000 A 
ATOM      7  C   UNL     1       2.543   5.413  19.554  0.00  0.00    +0.000 A 
ATOM      8  C   UNL     1       3.890   5.747  19.384  0.00  0.00    +0.000 A 
ATOM      9  C   UNL     1       4.579   5.225  18.275  0.00  0.00    +0.000 A 
ATOM     10  N   UNL     1       5.866   5.323  17.782  0.00  0.00    +0.000 N 
ENDROOT
BRANCH  10  11
ATOM     11  C   UNL     1       7.007   6.065  18.304  0.00  0.00    +0.000 C 
BRANCH  11  12
ATOM     12  C   UNL     1       7.284   7.426  17.679  0.00  0.00    +0.000 C 
BRANCH  12  13
ATOM     13  C   UNL     1       8.422   8.176  18.347  0.00  0.00    +0.000 C 
BRANCH  13  14
ATOM     14  O   UNL     1       8.277   9.565  18.078  0.00  0.00    +0.000 OA
BRANCH  14  15
ATOM     15  C   UNL     1       9.187  10.387  18.684  0.00  0.00    +0.000 A 
ATOM     16  C   UNL     1       9.301  10.602  20.061  0.00  0.00    +0.000 A 
ATOM     17  C   UNL     1      10.274  11.470  20.556  0.00  0.00    +0.000 A 
ATOM     18  C   UNL     1      11.137  12.124  19.683  0.00  0.00    +0.000 A 
ATOM     19  C   UNL     1      11.031  11.913  18.309  0.00  0.00    +0.000 A 
ATOM     20  C   UNL     1      10.056  11.047  17.813  0.00  0.00    +0.000 A 
ENDBRANCH  14  15
ENDBRANCH  13  14
ENDBRANCH  12  13
ENDBRANCH  11  12
ENDBRANCH  10  11
TORSDOF 5
ENDMDL
MODEL 7
REMARK VINA RESULT:      -6.9      2.078      7.280
REMARK  Name = 
REMARK  6 active torsions:
REMARK  status: ('A' for Active; 'I' for Inactive)
REMARK    1  A    between atoms: C_1  and  C_2
REMARK    2  A    between atoms: N_10  and  C_11
REMARK    3  A    between atoms: C_11  and  C_12
REMARK    4  A    between atoms: C_12  and  C_13
REMARK    5  A    between atoms: C_13  and  O_14
REMARK    6  A    between atoms: O_14  and  C_15
REMARK                            x       y       z     vdW  Elec       q    Type
REMARK                         _______ _______ _______ _____ _____    ______ ____
ROOT
ATOM      1  C   UNL     1       3.979   6.405  17.086  0.00  0.00    +0.000 C 
ATOM      2  C   UNL     1       3.453   5.510  18.152  0.00  0.00    +0.000 A 
ATOM      3  N   UNL     1       2.304   5.678  18.770  0.00  0.00    +0.000 NA
ATOM      4  C   UNL     1       2.212   4.652  19.672  0.00  0.00    +0.000 A 
ATOM      5  C   UNL     1       1.182   4.376  20.585  0.00  0.00    +0.000 A 
ATOM      6  C   UNL     1       1.290   3.264  21.426  0.00  0.00    +0.000 A 
ATOM      7  C   UNL     1       2.406   2.440  21.358  0.00  0.00    +0.000 A 
ATOM      8  C   UNL     1       3.441   2.701  20.455  0.00  0.00    +0.000 A 
ATOM      9  C   UNL     1       3.332   3.820  19.611  0.00  0.00    +0.000 A 
ATOM     10  N   UNL     1       4.117   4.388  18.626  0.00  0.00    +0.000 N 
ENDROOT
BRANCH  10  11
ATOM     11  C   UNL     1       5.416   3.968  18.116  0.00  0.00    +0.000 C 
BRANCH  11  12
ATOM     12  C   UNL     1       6.484   5.047  17.984  0.00  0.00    +0.000 C 
BRANCH  12  13
ATOM     13  C   UNL     1       7.540   4.726  16.944  0.00  0.00    +0.000 C 
BRANCH  13  14
ATOM     14  O   UNL     1       7.354   5.578  15.820  0.00  0.00    +0.000 OA
BRANCH  14  15
ATOM     15  C   UNL     1       7.009   4.957  14.652  0.00  0.00    +0.000 A 
ATOM     16  C   UNL     1       5.975   4.028  14.498  0.00  0.00    +0.000 A 
ATOM     17  C   UNL     1       5.724   3.462  13.248  0.00  0.00    +0.000 A 
ATOM     18  C   UNL     1       6.499   3.820  12.149  0.00  0.00    +0.000 A 
ATOM     19  C   UNL     1       7.529   4.747  12.296  0.00  0.00    +0.000 A 
ATOM     20  C   UNL     1       7.783   5.312  13.546  0.00  0.00    +0.000 A 
ENDBRANCH  14  15
ENDBRANCH  13  14
ENDBRANCH  12  13
ENDBRANCH  11  12
ENDBRANCH  10  11
TORSDOF 5
ENDMDL
MODEL 8
REMARK VINA RESULT:      -6.9      1.346      1.539
REMARK  Name = 
REMARK  6 active torsions:
REMARK  status: ('A' for Active; 'I' for Inactive)
REMARK    1  A    between atoms: C_1  and  C_2
REMARK    2  A    between atoms: N_10  and  C_11
REMARK    3  A    between atoms: C_11  and  C_12
REMARK    4  A    between atoms: C_12  and  C_13
REMARK    5  A    between atoms: C_13  and  O_14
REMARK    6  A    between atoms: O_14  and  C_15
REMARK                            x       y       z     vdW  Elec       q    Type
REMARK                         _______ _______ _______ _____ _____    ______ ____
ROOT
ATOM      1  C   UNL     1       7.165   6.564  17.423  0.00  0.00    +0.000 C 
ATOM      2  C   UNL     1       6.890   5.832  16.156  0.00  0.00    +0.000 A 
ATOM      3  N   UNL     1       7.764   5.655  15.190  0.00  0.00    +0.000 NA
ATOM      4  C   UNL     1       7.107   4.950  14.218  0.00  0.00    +0.000 A 
ATOM      5  C   UNL     1       7.590   4.509  12.976  0.00  0.00    +0.000 A 
ATOM      6  C   UNL     1       6.741   3.797  12.122  0.00  0.00    +0.000 A 
ATOM      7  C   UNL     1       5.432   3.528  12.501  0.00  0.00    +0.000 A 
ATOM      8  C   UNL     1       4.935   3.960  13.734  0.00  0.00    +0.000 A 
ATOM      9  C   UNL     1       5.789   4.677  14.590  0.00  0.00    +0.000 A 
ATOM     10  N   UNL     1       5.670   5.252  15.841  0.00  0.00    +0.000 N 
ENDROOT
BRANCH  10  11
ATOM     11  C   UNL     1       4.520   5.300  16.736  0.00  0.00    +0.000 C 
BRANCH  11  12
ATOM     12  C   UNL     1       3.745   4.002  16.929  0.00  0.00    +0.000 C 
BRANCH  12  13
ATOM     13  C   UNL     1       4.562   2.904  17.583  0.00  0.00    +0.000 C 
BRANCH  13  14
ATOM     14  O   UNL     1       3.678   1.911  18.087  0.00  0.00    +0.000 OA
BRANCH  14  15
ATOM     15  C   UNL     1       2.823   2.319  19.074  0.00  0.00    +0.000 A 
ATOM     16  C   UNL     1       1.466   2.614  18.906  0.00  0.00    +0.000 A 
ATOM     17  C   UNL     1       0.700   3.025  19.996  0.00  0.00    +0.000 A 
ATOM     18  C   UNL     1       1.280   3.141  21.256  0.00  0.00    +0.000 A 
ATOM     19  C   UNL     1       2.631   2.847  21.430  0.00  0.00    +0.000 A 
ATOM     20  C   UNL     1       3.399   2.438  20.340  0.00  0.00    +0.000 A 
ENDBRANCH  14  15
ENDBRANCH  13  14
ENDBRANCH  12  13
ENDBRANCH  11  12
ENDBRANCH  10  11
TORSDOF 5
ENDMDL
MODEL 9
REMARK VINA RESULT:      -6.8      2.950      6.564
REMARK  Name = 
REMARK  6 active torsions:
REMARK  status: ('A' for Active; 'I' for Inactive)
REMARK    1  A    between atoms: C_1  and  C_2
REMARK    2  A    between atoms: N_10  and  C_11
REMARK    3  A    between atoms: C_11  and  C_12
REMARK    4  A    between atoms: C_12  and  C_13
REMARK    5  A    between atoms: C_13  and  O_14
REMARK    6  A    between atoms: O_14  and  C_15
REMARK                            x       y       z     vdW  Elec       q    Type
REMARK                         _______ _______ _______ _____ _____    ______ ____
ROOT
ATOM      1  C   UNL     1       2.582   2.756  21.118  0.00  0.00    +0.000 C 
ATOM      2  C   UNL     1       2.553   4.091  20.461  0.00  0.00    +0.000 A 
ATOM      3  N   UNL     1       2.036   5.177  20.995  0.00  0.00    +0.000 NA
ATOM      4  C   UNL     1       2.206   6.167  20.065  0.00  0.00    +0.000 A 
ATOM      5  C   UNL     1       1.824   7.515  20.140  0.00  0.00    +0.000 A 
ATOM      6  C   UNL     1       2.094   8.367  19.064  0.00  0.00    +0.000 A 
ATOM      7  C   UNL     1       2.737   7.882  17.932  0.00  0.00    +0.000 A 
ATOM      8  C   UNL     1       3.123   6.541  17.841  0.00  0.00    +0.000 A 
ATOM      9  C   UNL     1       2.849   5.687  18.923  0.00  0.00    +0.000 A 
ATOM     10  N   UNL     1       3.065   4.350  19.198  0.00  0.00    +0.000 N 
ENDROOT
BRANCH  10  11
ATOM     11  C   UNL     1       3.696   3.322  18.379  0.00  0.00    +0.000 C 
BRANCH  11  12
ATOM     12  C   UNL     1       3.920   3.657  16.910  0.00  0.00    +0.000 C 
BRANCH  12  13
ATOM     13  C   UNL     1       5.385   3.688  16.515  0.00  0.00    +0.000 C 
BRANCH  13  14
ATOM     14  O   UNL     1       5.712   4.997  16.063  0.00  0.00    +0.000 OA
BRANCH  14  15
ATOM     15  C   UNL     1       6.508   5.733  16.896  0.00  0.00    +0.000 A 
ATOM     16  C   UNL     1       6.787   7.097  16.761  0.00  0.00    +0.000 A 
ATOM     17  C   UNL     1       7.620   7.735  17.680  0.00  0.00    +0.000 A 
ATOM     18  C   UNL     1       8.175   7.019  18.737  0.00  0.00    +0.000 A 
ATOM     19  C   UNL     1       7.899   5.660  18.878  0.00  0.00    +0.000 A 
ATOM     20  C   UNL     1       7.068   5.020  17.958  0.00  0.00    +0.000 A 
ENDBRANCH  14  15
ENDBRANCH  13  14
ENDBRANCH  12  13
ENDBRANCH  11  12
ENDBRANCH  10  11
TORSDOF 5
ENDMDL
