MODEL 1
REMARK VINA RESULT:      -8.1      0.000      0.000
REMARK  Name = 
REMARK  5 active torsions:
REMARK  status: ('A' for Active; 'I' for Inactive)
REMARK    1  A    between atoms: C_2  and  C_3
REMARK    2  A    between atoms: C_6  and  C_7
REMARK    3  A    between atoms: C_7  and  N_8
REMARK    4  A    between atoms: C_10  and  N_11
REMARK    5  A    between atoms: C_12  and  C_14
REMARK                            x       y       z     vdW  Elec       q    Type
REMARK                         _______ _______ _______ _____ _____    ______ ____
ROOT
ATOM      1  N   UNL     1       2.624   3.583  20.000  0.00  0.00    +0.000 N 
ATOM      2  C   UNL     1       2.786   4.477  21.021  0.00  0.00    +0.000 A 
ATOM      3  C   UNL     1       1.776   5.378  20.777  0.00  0.00    +0.000 A 
ATOM      4  C   UNL     1       0.779   4.580  20.177  0.00  0.00    +0.000 A 
ATOM      5  N   UNL     1       1.315   3.457  19.666  0.00  0.00    +0.000 NA
ENDROOT
BRANCH   3   6
ATOM      6  N   UNL     1       1.825   6.752  20.952  0.00  0.00    +0.000 N 
ATOM      7  C   UNL     1       2.019   7.555  19.827  0.00  0.00    +0.000 C 
ATOM      8  O   UNL     1       2.621   7.211  18.811  0.00  0.00    +0.000 OA
ATOM      9  H   UNL     1       1.223   7.157  21.664  0.00  0.00    +0.000 HD
BRANCH   7  10
ATOM     10  C   UNL     1       1.329   8.855  19.881  0.00  0.00    +0.000 A 
ATOM     11  N   UNL     1       1.306   9.726  18.850  0.00  0.00    +0.000 NA
ATOM     12  N   UNL     1       0.562  10.752  19.322  0.00  0.00    +0.000 N 
ATOM     13  C   UNL     1       0.123  10.596  20.610  0.00  0.00    +0.000 A 
ATOM     14  C   UNL     1      -0.675  11.397  21.436  0.00  0.00    +0.000 A 
ATOM     15  C   UNL     1      -0.926  10.930  22.733  0.00  0.00    +0.000 A 
ATOM     16  C   UNL     1      -0.377   9.733  23.189  0.00  0.00    +0.000 A 
ATOM     17  C   UNL     1       0.416   8.951  22.345  0.00  0.00    +0.000 A 
ATOM     18  C   UNL     1       0.647   9.379  21.023  0.00  0.00    +0.000 A 
ATOM     19  H   UNL     1       0.387  11.543  18.711  0.00  0.00    +0.000 HD
ENDBRANCH   7  10
ENDBRANCH   3   6
BRANCH   1  20
ATOM     20  C   UNL     1       3.690   2.803  19.373  0.00  0.00    +0.000 C 
BRANCH  20  24
ATOM     21  C   UNL     1       6.146   4.562  16.205  0.00  0.00    +0.000 A 
ATOM     22  C   UNL     1       6.522   4.710  17.544  0.00  0.00    +0.000 A 
ATOM     23  C   UNL     1       5.717   4.198  18.583  0.00  0.00    +0.000 A 
ATOM     24  C   UNL     1       4.513   3.525  18.304  0.00  0.00    +0.000 A 
ATOM     25  C   UNL     1       4.137   3.394  16.950  0.00  0.00    +0.000 A 
ATOM     26  C   UNL     1       4.950   3.904  15.914  0.00  0.00    +0.000 A 
BRANCH  21  28
ATOM     27  N   UNL     1       7.656   5.488  14.295  0.00  0.00    +0.000 NA
ATOM     28  C   UNL     1       6.978   5.066  15.137  0.00  0.00    +0.000 C 
ENDBRANCH  21  28
ENDBRANCH  20  24
ENDBRANCH   1  20
TORSDOF 5
ENDMDL
MODEL 2
REMARK VINA RESULT:      -8.0      2.563      9.062
REMARK  Name = 
REMARK  5 active torsions:
REMARK  status: ('A' for Active; 'I' for Inactive)
REMARK    1  A    between atoms: C_2  and  C_3
REMARK    2  A    between atoms: C_6  and  C_7
REMARK    3  A    between atoms: C_7  and  N_8
REMARK    4  A    between atoms: C_10  and  N_11
REMARK    5  A    between atoms: C_12  and  C_14
REMARK                            x       y       z     vdW  Elec       q    Type
REMARK                         _______ _______ _______ _____ _____    ______ ____
ROOT
ATOM      1  N   UNL     1       0.985  10.910  19.031  0.00  0.00    +0.000 N 
ATOM      2  C   UNL     1       2.066  10.576  18.263  0.00  0.00    +0.000 A 
ATOM      3  C   UNL     1       1.773   9.280  17.905  0.00  0.00    +0.000 A 
ATOM      4  C   UNL     1       0.363   9.275  17.860  0.00  0.00    +0.000 A 
ATOM      5  N   UNL     1      -0.138  10.289  18.589  0.00  0.00    +0.000 NA
ENDROOT
BRANCH   3   6
ATOM      6  N   UNL     1       2.668   8.229  17.777  0.00  0.00    +0.000 N 
ATOM      7  C   UNL     1       2.640   7.217  18.738  0.00  0.00    +0.000 C 
ATOM      8  O   UNL     1       2.286   7.366  19.907  0.00  0.00    +0.000 OA
ATOM      9  H   UNL     1       2.895   7.916  16.837  0.00  0.00    +0.000 HD
BRANCH   7  10
ATOM     10  C   UNL     1       2.961   5.877  18.220  0.00  0.00    +0.000 A 
ATOM     11  N   UNL     1       3.891   5.651  17.268  0.00  0.00    +0.000 NA
ATOM     12  N   UNL     1       3.867   4.308  17.117  0.00  0.00    +0.000 N 
ATOM     13  C   UNL     1       2.956   3.659  17.907  0.00  0.00    +0.000 A 
ATOM     14  C   UNL     1       2.645   2.303  18.066  0.00  0.00    +0.000 A 
ATOM     15  C   UNL     1       1.626   1.981  18.973  0.00  0.00    +0.000 A 
ATOM     16  C   UNL     1       0.932   2.973  19.662  0.00  0.00    +0.000 A 
ATOM     17  C   UNL     1       1.262   4.320  19.487  0.00  0.00    +0.000 A 
ATOM     18  C   UNL     1       2.311   4.665  18.613  0.00  0.00    +0.000 A 
ATOM     19  H   UNL     1       4.504   3.886  16.449  0.00  0.00    +0.000 HD
ENDBRANCH   7  10
ENDBRANCH   3   6
BRANCH   1  20
ATOM     20  C   UNL     1       0.992  11.855  20.146  0.00  0.00    +0.000 C 
BRANCH  20  24
ATOM     21  C   UNL     1      -2.409  12.067  22.894  0.00  0.00    +0.000 A 
ATOM     22  C   UNL     1      -1.413  11.105  23.088  0.00  0.00    +0.000 A 
ATOM     23  C   UNL     1      -0.337  10.984  22.185  0.00  0.00    +0.000 A 
ATOM     24  C   UNL     1      -0.234  11.826  21.061  0.00  0.00    +0.000 A 
ATOM     25  C   UNL     1      -1.253  12.782  20.868  0.00  0.00    +0.000 A 
ATOM     26  C   UNL     1      -2.324  12.902  21.780  0.00  0.00    +0.000 A 
BRANCH  21  28
ATOM     27  N   UNL     1      -4.380  12.297  24.581  0.00  0.00    +0.000 NA
ATOM     28  C   UNL     1      -3.501  12.208  23.829  0.00  0.00    +0.000 C 
ENDBRANCH  21  28
ENDBRANCH  20  24
ENDBRANCH   1  20
TORSDOF 5
ENDMDL
MODEL 3
REMARK VINA RESULT:      -7.9      2.761      8.748
REMARK  Name = 
REMARK  5 active torsions:
REMARK  status: ('A' for Active; 'I' for Inactive)
REMARK    1  A    between atoms: C_2  and  C_3
REMARK    2  A    between atoms: C_6  and  C_7
REMARK    3  A    between atoms: C_7  and  N_8
REMARK    4  A    between atoms: C_10  and  N_11
REMARK    5  A    between atoms: C_12  and  C_14
REMARK                            x       y       z     vdW  Elec       q    Type
REMARK                         _______ _______ _______ _____ _____    ______ ____
ROOT
ATOM      1  N   UNL     1       1.353   8.814  19.409  0.00  0.00    +0.000 N 
ATOM      2  C   UNL     1       1.952   7.758  18.780  0.00  0.00    +0.000 A 
ATOM      3  C   UNL     1       2.440   7.032  19.842  0.00  0.00    +0.000 A 
ATOM      4  C   UNL     1       1.509   7.304  20.866  0.00  0.00    +0.000 A 
ATOM      5  N   UNL     1       0.837   8.440  20.607  0.00  0.00    +0.000 NA
ENDROOT
BRANCH   3   6
ATOM      6  N   UNL     1       3.641   6.340  19.896  0.00  0.00    +0.000 N 
ATOM      7  C   UNL     1       3.736   5.128  19.211  0.00  0.00    +0.000 C 
ATOM      8  O   UNL     1       2.792   4.372  18.981  0.00  0.00    +0.000 OA
ATOM      9  H   UNL     1       4.498   6.886  19.914  0.00  0.00    +0.000 HD
BRANCH   7  10
ATOM     10  C   UNL     1       5.069   4.849  18.650  0.00  0.00    +0.000 A 
ATOM     11  N   UNL     1       6.124   4.467  19.399  0.00  0.00    +0.000 NA
ATOM     12  N   UNL     1       7.113   4.306  18.491  0.00  0.00    +0.000 N 
ATOM     13  C   UNL     1       6.754   4.585  17.199  0.00  0.00    +0.000 A 
ATOM     14  C   UNL     1       7.460   4.519  15.991  0.00  0.00    +0.000 A 
ATOM     15  C   UNL     1       6.775   4.896  14.827  0.00  0.00    +0.000 A 
ATOM     16  C   UNL     1       5.457   5.347  14.878  0.00  0.00    +0.000 A 
ATOM     17  C   UNL     1       4.774   5.402  16.096  0.00  0.00    +0.000 A 
ATOM     18  C   UNL     1       5.428   4.988  17.273  0.00  0.00    +0.000 A 
ATOM     19  H   UNL     1       8.024   4.002  18.817  0.00  0.00    +0.000 HD
ENDBRANCH   7  10
ENDBRANCH   3   6
BRANCH   1  20
ATOM     20  C   UNL     1       1.215  10.163  18.863  0.00  0.00    +0.000 C 
BRANCH  20  24
ATOM     21  C   UNL     1      -2.936  11.263  18.009  0.00  0.00    +0.000 A 
ATOM     22  C   UNL     1      -2.355  10.170  17.358  0.00  0.00    +0.000 A 
ATOM     23  C   UNL     1      -1.004   9.831  17.578  0.00  0.00    +0.000 A 
ATOM     24  C   UNL     1      -0.200  10.582  18.456  0.00  0.00    +0.000 A 
ATOM     25  C   UNL     1      -0.793  11.691  19.096  0.00  0.00    +0.000 A 
ATOM     26  C   UNL     1      -2.148  12.021  18.876  0.00  0.00    +0.000 A 
BRANCH  21  28
ATOM     27  N   UNL     1      -5.438  11.867  17.613  0.00  0.00    +0.000 NA
ATOM     28  C   UNL     1      -4.325  11.601  17.803  0.00  0.00    +0.000 C 
ENDBRANCH  21  28
ENDBRANCH  20  24
ENDBRANCH   1  20
TORSDOF 5
ENDMDL
MODEL 4
REMARK VINA RESULT:      -7.9      2.111      3.111
REMARK  Name = 
REMARK  5 active torsions:
REMARK  status: ('A' for Active; 'I' for Inactive)
REMARK    1  A    between atoms: C_2  and  C_3
REMARK    2  A    between atoms: C_6  and  C_7
REMARK    3  A    between atoms: C_7  and  N_8
REMARK    4  A    between atoms: C_10  and  N_11
REMARK    5  A    between atoms: C_12  and  C_14
REMARK                            x       y       z     vdW  Elec       q    Type
REMARK                         _______ _______ _______ _____ _____    ______ ____
ROOT
ATOM      1  N   UNL     1       3.500   3.269  17.570  0.00  0.00    +0.000 N 
ATOM      2  C   UNL     1       3.427   3.424  18.927  0.00  0.00    +0.000 A 
ATOM      3  C   UNL     1       2.179   3.978  19.085  0.00  0.00    +0.000 A 
ATOM      4  C   UNL     1       1.448   3.425  18.012  0.00  0.00    +0.000 A 
ATOM      5  N   UNL     1       2.279   2.997  17.045  0.00  0.00    +0.000 NA
ENDROOT
BRANCH   3   6
ATOM      6  N   UNL     1       1.811   4.955  19.998  0.00  0.00    +0.000 N 
ATOM      7  C   UNL     1       2.535   6.148  20.016  0.00  0.00    +0.000 C 
ATOM      8  O   UNL     1       3.716   6.261  19.691  0.00  0.00    +0.000 OA
ATOM      9  H   UNL     1       0.821   5.056  20.206  0.00  0.00    +0.000 HD
BRANCH   7  10
ATOM     10  C   UNL     1       1.737   7.340  20.351  0.00  0.00    +0.000 A 
ATOM     11  N   UNL     1       0.972   7.434  21.458  0.00  0.00    +0.000 NA
ATOM     12  N   UNL     1       0.446   8.677  21.373  0.00  0.00    +0.000 N 
ATOM     13  C   UNL     1       0.817   9.379  20.257  0.00  0.00    +0.000 A 
ATOM     14  C   UNL     1       0.519  10.676  19.819  0.00  0.00    +0.000 A 
ATOM     15  C   UNL     1       1.070  11.082  18.596  0.00  0.00    +0.000 A 
ATOM     16  C   UNL     1       1.854  10.218  17.835  0.00  0.00    +0.000 A 
ATOM     17  C   UNL     1       2.138   8.929  18.293  0.00  0.00    +0.000 A 
ATOM     18  C   UNL     1       1.631   8.513  19.540  0.00  0.00    +0.000 A 
ATOM     19  H   UNL     1      -0.169   8.993  22.115  0.00  0.00    +0.000 HD
ENDBRANCH   7  10
ENDBRANCH   3   6
BRANCH   1  20
ATOM     20  C   UNL     1       4.723   3.319  16.771  0.00  0.00    +0.000 C 
BRANCH  20  24
ATOM     21  C   UNL     1       7.026   6.979  17.452  0.00  0.00    +0.000 A 
ATOM     22  C   UNL     1       5.838   7.028  16.717  0.00  0.00    +0.000 A 
ATOM     23  C   UNL     1       5.108   5.853  16.441  0.00  0.00    +0.000 A 
ATOM     24  C   UNL     1       5.555   4.597  16.893  0.00  0.00    +0.000 A 
ATOM     25  C   UNL     1       6.763   4.558  17.621  0.00  0.00    +0.000 A 
ATOM     26  C   UNL     1       7.485   5.739  17.900  0.00  0.00    +0.000 A 
BRANCH  21  28
ATOM     27  N   UNL     1       8.380   9.136  17.999  0.00  0.00    +0.000 NA
ATOM     28  C   UNL     1       7.765   8.182  17.756  0.00  0.00    +0.000 C 
ENDBRANCH  21  28
ENDBRANCH  20  24
ENDBRANCH   1  20
TORSDOF 5
ENDMDL
MODEL 5
REMARK VINA RESULT:      -7.9      1.907      8.145
REMARK  Name = 
REMARK  5 active torsions:
REMARK  status: ('A' for Active; 'I' for Inactive)
REMARK    1  A    between atoms: C_2  and  C_3
REMARK    2  A    between atoms: C_6  and  C_7
REMARK    3  A    between atoms: C_7  and  N_8
REMARK    4  A    between atoms: C_10  and  N_11
REMARK    5  A    between atoms: C_12  and  C_14
REMARK                            x       y       z     vdW  Elec       q    Type
REMARK                         _______ _______ _______ _____ _____    ______ ____
ROOT
ATOM      1  N   UNL     1       2.809   4.030  19.685  0.00  0.00    +0.000 N 
ATOM      2  C   UNL     1       2.526   3.803  18.366  0.00  0.00    +0.000 A 
ATOM      3  C   UNL     1       3.777   3.575  17.841  0.00  0.00    +0.000 A 
ATOM      4  C   UNL     1       4.473   2.993  18.922  0.00  0.00    +0.000 A 
ATOM      5  N   UNL     1       3.877   3.297  20.088  0.00  0.00    +0.000 NA
ENDROOT
BRANCH   3   6
ATOM      6  N   UNL     1       4.243   3.975  16.598  0.00  0.00    +0.000 N 
ATOM      7  C   UNL     1       4.967   5.165  16.515  0.00  0.00    +0.000 C 
ATOM      8  O   UNL     1       4.833   6.125  17.274  0.00  0.00    +0.000 OA
ATOM      9  H   UNL     1       4.545   3.249  15.954  0.00  0.00    +0.000 HD
BRANCH   7  10
ATOM     10  C   UNL     1       6.029   5.163  15.495  0.00  0.00    +0.000 A 
ATOM     11  N   UNL     1       7.197   5.824  15.639  0.00  0.00    +0.000 NA
ATOM     12  N   UNL     1       7.863   5.536  14.497  0.00  0.00    +0.000 N 
ATOM     13  C   UNL     1       7.175   4.742  13.619  0.00  0.00    +0.000 A 
ATOM     14  C   UNL     1       7.515   4.209  12.368  0.00  0.00    +0.000 A 
ATOM     15  C   UNL     1       6.547   3.430  11.720  0.00  0.00    +0.000 A 
ATOM     16  C   UNL     1       5.290   3.221  12.284  0.00  0.00    +0.000 A 
ATOM     17  C   UNL     1       4.976   3.763  13.533  0.00  0.00    +0.000 A 
ATOM     18  C   UNL     1       5.947   4.515  14.223  0.00  0.00    +0.000 A 
ATOM     19  H   UNL     1       8.795   5.917  14.373  0.00  0.00    +0.000 HD
ENDBRANCH   7  10
ENDBRANCH   3   6
BRANCH   1  20
ATOM     20  C   UNL     1       2.043   4.892  20.583  0.00  0.00    +0.000 C 
BRANCH  20  24
ATOM     21  C   UNL     1       1.474   9.074  19.420  0.00  0.00    +0.000 A 
ATOM     22  C   UNL     1       2.155   8.199  18.569  0.00  0.00    +0.000 A 
ATOM     23  C   UNL     1       2.397   6.861  18.947  0.00  0.00    +0.000 A 
ATOM     24  C   UNL     1       1.961   6.369  20.192  0.00  0.00    +0.000 A 
ATOM     25  C   UNL     1       1.288   7.265  21.048  0.00  0.00    +0.000 A 
ATOM     26  C   UNL     1       1.044   8.601  20.661  0.00  0.00    +0.000 A 
BRANCH  21  28
ATOM     27  N   UNL     1       0.978  11.526  18.694  0.00  0.00    +0.000 NA
ATOM     28  C   UNL     1       1.206  10.438  19.028  0.00  0.00    +0.000 C 
ENDBRANCH  21  28
ENDBRANCH  20  24
ENDBRANCH   1  20
TORSDOF 5
ENDMDL
MODEL 6
REMARK VINA RESULT:      -7.9      2.742      7.916
REMARK  Name = 
REMARK  5 active torsions:
REMARK  status: ('A' for Active; 'I' for Inactive)
REMARK    1  A    between atoms: C_2  and  C_3
REMARK    2  A    between atoms: C_6  and  C_7
REMARK    3  A    between atoms: C_7  and  N_8
REMARK    4  A    between atoms: C_10  and  N_11
REMARK    5  A    between atoms: C_12  and  C_14
REMARK                            x       y       z     vdW  Elec       q    Type
REMARK                         _______ _______ _______ _____ _____    ______ ____
ROOT
ATOM      1  N   UNL     1       0.023  10.095  21.488  0.00  0.00    +0.000 N 
ATOM      2  C   UNL     1      -0.306   8.768  21.531  0.00  0.00    +0.000 A 
ATOM      3  C   UNL     1       0.926   8.165  21.429  0.00  0.00    +0.000 A 
ATOM      4  C   UNL     1       1.786   9.094  22.053  0.00  0.00    +0.000 A 
ATOM      5  N   UNL     1       1.228  10.318  22.071  0.00  0.00    +0.000 NA
ENDROOT
BRANCH   3   6
ATOM      6  N   UNL     1       1.229   7.001  20.740  0.00  0.00    +0.000 N 
ATOM      7  C   UNL     1       2.092   7.086  19.646  0.00  0.00    +0.000 C 
ATOM      8  O   UNL     1       2.227   8.078  18.932  0.00  0.00    +0.000 OA
ATOM      9  H   UNL     1       1.310   6.143  21.279  0.00  0.00    +0.000 HD
BRANCH   7  10
ATOM     10  C   UNL     1       2.955   5.907  19.459  0.00  0.00    +0.000 A 
ATOM     11  N   UNL     1       4.303   5.961  19.499  0.00  0.00    +0.000 NA
ATOM     12  N   UNL     1       4.675   4.676  19.300  0.00  0.00    +0.000 N 
ATOM     13  C   UNL     1       3.637   3.803  19.114  0.00  0.00    +0.000 A 
ATOM     14  C   UNL     1       3.598   2.417  18.909  0.00  0.00    +0.000 A 
ATOM     15  C   UNL     1       2.337   1.830  18.739  0.00  0.00    +0.000 A 
ATOM     16  C   UNL     1       1.175   2.599  18.745  0.00  0.00    +0.000 A 
ATOM     17  C   UNL     1       1.240   3.979  18.952  0.00  0.00    +0.000 A 
ATOM     18  C   UNL     1       2.493   4.586  19.167  0.00  0.00    +0.000 A 
ATOM     19  H   UNL     1       5.665   4.454  19.301  0.00  0.00    +0.000 HD
ENDBRANCH   7  10
ENDBRANCH   3   6
BRANCH   1  20
ATOM     20  C   UNL     1      -0.818  11.164  20.953  0.00  0.00    +0.000 C 
BRANCH  20  24
ATOM     21  C   UNL     1      -2.297  10.580  16.874  0.00  0.00    +0.000 A 
ATOM     22  C   UNL     1      -1.150   9.905  17.304  0.00  0.00    +0.000 A 
ATOM     23  C   UNL     1      -0.625  10.120  18.596  0.00  0.00    +0.000 A 
ATOM     24  C   UNL     1      -1.239  11.019  19.488  0.00  0.00    +0.000 A 
ATOM     25  C   UNL     1      -2.387  11.704  19.038  0.00  0.00    +0.000 A 
ATOM     26  C   UNL     1      -2.910  11.480  17.745  0.00  0.00    +0.000 A 
BRANCH  21  28
ATOM     27  N   UNL     1      -3.272  10.169  14.493  0.00  0.00    +0.000 NA
ATOM     28  C   UNL     1      -2.849  10.347  15.559  0.00  0.00    +0.000 C 
ENDBRANCH  21  28
ENDBRANCH  20  24
ENDBRANCH   1  20
TORSDOF 5
ENDMDL
MODEL 7
REMARK VINA RESULT:      -7.8      2.251      8.666
REMARK  Name = 
REMARK  5 active torsions:
REMARK  status: ('A' for Active; 'I' for Inactive)
REMARK    1  A    between atoms: C_2  and  C_3
REMARK    2  A    between atoms: C_6  and  C_7
REMARK    3  A    between atoms: C_7  and  N_8
REMARK    4  A    between atoms: C_10  and  N_11
REMARK    5  A    between atoms: C_12  and  C_14
REMARK                            x       y       z     vdW  Elec       q    Type
REMARK                         _______ _______ _______ _____ _____    ______ ____
ROOT
ATOM      1  N   UNL     1       3.831   4.853  19.571  0.00  0.00    +0.000 N 
ATOM      2  C   UNL     1       3.956   3.810  18.694  0.00  0.00    +0.000 A 
ATOM      3  C   UNL     1       5.095   4.152  18.004  0.00  0.00    +0.000 A 
ATOM      4  C   UNL     1       5.846   4.862  18.964  0.00  0.00    +0.000 A 
ATOM      5  N   UNL     1       5.048   5.325  19.943  0.00  0.00    +0.000 NA
ENDROOT
BRANCH   3   6
ATOM      6  N   UNL     1       5.340   3.958  16.653  0.00  0.00    +0.000 N 
ATOM      7  C   UNL     1       5.391   5.080  15.823  0.00  0.00    +0.000 C 
ATOM      8  O   UNL     1       4.785   6.132  16.023  0.00  0.00    +0.000 OA
ATOM      9  H   UNL     1       5.975   3.209  16.393  0.00  0.00    +0.000 HD
BRANCH   7  10
ATOM     10  C   UNL     1       6.345   4.969  14.707  0.00  0.00    +0.000 A 
ATOM     11  N   UNL     1       7.499   5.667  14.645  0.00  0.00    +0.000 NA
ATOM     12  N   UNL     1       8.057   5.250  13.487  0.00  0.00    +0.000 N 
ATOM     13  C   UNL     1       7.312   4.335  12.790  0.00  0.00    +0.000 A 
ATOM     14  C   UNL     1       7.543   3.653  11.588  0.00  0.00    +0.000 A 
ATOM     15  C   UNL     1       6.543   2.777  11.146  0.00  0.00    +0.000 A 
ATOM     16  C   UNL     1       5.356   2.616  11.859  0.00  0.00    +0.000 A 
ATOM     17  C   UNL     1       5.150   3.307  13.056  0.00  0.00    +0.000 A 
ATOM     18  C   UNL     1       6.159   4.161  13.542  0.00  0.00    +0.000 A 
ATOM     19  H   UNL     1       8.958   5.631  13.219  0.00  0.00    +0.000 HD
ENDBRANCH   7  10
ENDBRANCH   3   6
BRANCH   1  20
ATOM     20  C   UNL     1       2.573   5.370  20.105  0.00  0.00    +0.000 C 
BRANCH  20  24
ATOM     21  C   UNL     1       1.306   9.445  19.125  0.00  0.00    +0.000 A 
ATOM     22  C   UNL     1       1.994   8.680  18.177  0.00  0.00    +0.000 A 
ATOM     23  C   UNL     1       2.458   7.385  18.490  0.00  0.00    +0.000 A 
ATOM     24  C   UNL     1       2.245   6.826  19.764  0.00  0.00    +0.000 A 
ATOM     25  C   UNL     1       1.563   7.612  20.716  0.00  0.00    +0.000 A 
ATOM     26  C   UNL     1       1.096   8.905  20.394  0.00  0.00    +0.000 A 
BRANCH  21  28
ATOM     27  N   UNL     1       0.433  11.825  18.530  0.00  0.00    +0.000 NA
ATOM     28  C   UNL     1       0.811  10.762  18.801  0.00  0.00    +0.000 C 
ENDBRANCH  21  28
ENDBRANCH  20  24
ENDBRANCH   1  20
TORSDOF 5
ENDMDL
MODEL 8
REMARK VINA RESULT:      -7.8      2.333      9.405
REMARK  Name = 
REMARK  5 active torsions:
REMARK  status: ('A' for Active; 'I' for Inactive)
REMARK    1  A    between atoms: C_2  and  C_3
REMARK    2  A    between atoms: C_6  and  C_7
REMARK    3  A    between atoms: C_7  and  N_8
REMARK    4  A    between atoms: C_10  and  N_11
REMARK    5  A    between atoms: C_12  and  C_14
REMARK                            x       y       z     vdW  Elec       q    Type
REMARK                         _______ _______ _______ _____ _____    ______ ____
ROOT
ATOM      1  N   UNL     1       0.857  11.103  19.050  0.00  0.00    +0.000 N 
ATOM      2  C   UNL     1       1.944  10.806  18.275  0.00  0.00    +0.000 A 
ATOM      3  C   UNL     1       1.684   9.507  17.903  0.00  0.00    +0.000 A 
ATOM      4  C   UNL     1       0.275   9.466  17.863  0.00  0.00    +0.000 A 
ATOM      5  N   UNL     1      -0.250  10.458  18.604  0.00  0.00    +0.000 NA
ENDROOT
BRANCH   3   6
ATOM      6  N   UNL     1       2.606   8.481  17.762  0.00  0.00    +0.000 N 
ATOM      7  C   UNL     1       2.557   7.420  18.667  0.00  0.00    +0.000 C 
ATOM      8  O   UNL     1       2.149   7.499  19.825  0.00  0.00    +0.000 OA
ATOM      9  H   UNL     1       2.881   8.222  16.818  0.00  0.00    +0.000 HD
BRANCH   7  10
ATOM     10  C   UNL     1       2.929   6.115  18.095  0.00  0.00    +0.000 A 
ATOM     11  N   UNL     1       2.120   5.034  18.123  0.00  0.00    +0.000 NA
ATOM     12  N   UNL     1       2.840   4.085  17.483  0.00  0.00    +0.000 N 
ATOM     13  C   UNL     1       4.079   4.493  17.065  0.00  0.00    +0.000 A 
ATOM     14  C   UNL     1       5.097   3.837  16.360  0.00  0.00    +0.000 A 
ATOM     15  C   UNL     1       6.268   4.563  16.102  0.00  0.00    +0.000 A 
ATOM     16  C   UNL     1       6.421   5.872  16.555  0.00  0.00    +0.000 A 
ATOM     17  C   UNL     1       5.391   6.505  17.255  0.00  0.00    +0.000 A 
ATOM     18  C   UNL     1       4.188   5.810  17.490  0.00  0.00    +0.000 A 
ATOM     19  H   UNL     1       2.429   3.166  17.363  0.00  0.00    +0.000 HD
ENDBRANCH   7  10
ENDBRANCH   3   6
BRANCH   1  20
ATOM     20  C   UNL     1       0.843  12.036  20.174  0.00  0.00    +0.000 C 
BRANCH  20  24
ATOM     21  C   UNL     1      -2.526  12.089  22.970  0.00  0.00    +0.000 A 
ATOM     22  C   UNL     1      -1.492  11.162  23.139  0.00  0.00    +0.000 A 
ATOM     23  C   UNL     1      -0.425  11.092  22.220  0.00  0.00    +0.000 A 
ATOM     24  C   UNL     1      -0.369  11.950  21.105  0.00  0.00    +0.000 A 
ATOM     25  C   UNL     1      -1.425  12.871  20.937  0.00  0.00    +0.000 A 
ATOM     26  C   UNL     1      -2.487  12.940  21.865  0.00  0.00    +0.000 A 
BRANCH  21  28
ATOM     27  N   UNL     1      -4.491  12.267  24.670  0.00  0.00    +0.000 NA
ATOM     28  C   UNL     1      -3.610  12.178  23.920  0.00  0.00    +0.000 C 
ENDBRANCH  21  28
ENDBRANCH  20  24
ENDBRANCH   1  20
TORSDOF 5
ENDMDL
MODEL 9
REMARK VINA RESULT:      -7.8      3.343      4.602
REMARK  Name = 
REMARK  5 active torsions:
REMARK  status: ('A' for Active; 'I' for Inactive)
REMARK    1  A    between atoms: C_2  and  C_3
REMARK    2  A    between atoms: C_6  and  C_7
REMARK    3  A    between atoms: C_7  and  N_8
REMARK    4  A    between atoms: C_10  and  N_11
REMARK    5  A    between atoms: C_12  and  C_14
REMARK                            x       y       z     vdW  Elec       q    Type
REMARK                         _______ _______ _______ _____ _____    ______ ____
ROOT
ATOM      1  N   UNL     1       1.851   7.762  19.390  0.00  0.00    +0.000 N 
ATOM      2  C   UNL     1       1.375   9.016  19.125  0.00  0.00    +0.000 A 
ATOM      3  C   UNL     1       0.626   9.282  20.248  0.00  0.00    +0.000 A 
ATOM      4  C   UNL     1       1.305   8.566  21.257  0.00  0.00    +0.000 A 
ATOM      5  N   UNL     1       2.061   7.592  20.720  0.00  0.00    +0.000 NA
ENDROOT
BRANCH   3   6
ATOM      6  N   UNL     1      -0.579   9.965  20.303  0.00  0.00    +0.000 N 
ATOM      7  C   UNL     1      -0.640  11.245  19.749  0.00  0.00    +0.000 C 
ATOM      8  O   UNL     1       0.312  12.020  19.661  0.00  0.00    +0.000 OA
ATOM      9  H   UNL     1      -1.432   9.421  20.210  0.00  0.00    +0.000 HD
BRANCH   7  10
ATOM     10  C   UNL     1      -1.937  11.584  19.141  0.00  0.00    +0.000 A 
ATOM     11  N   UNL     1      -2.824  12.429  19.708  0.00  0.00    +0.000 NA
ATOM     12  N   UNL     1      -3.841  12.462  18.818  0.00  0.00    +0.000 N 
ATOM     13  C   UNL     1      -3.664  11.665  17.718  0.00  0.00    +0.000 A 
ATOM     14  C   UNL     1      -4.451  11.443  16.580  0.00  0.00    +0.000 A 
ATOM     15  C   UNL     1      -3.963  10.534  15.632  0.00  0.00    +0.000 A 
ATOM     16  C   UNL     1      -2.761   9.858  15.829  0.00  0.00    +0.000 A 
ATOM     17  C   UNL     1      -1.993  10.098  16.972  0.00  0.00    +0.000 A 
ATOM     18  C   UNL     1      -2.442  11.039  17.920  0.00  0.00    +0.000 A 
ATOM     19  H   UNL     1      -4.641  13.052  19.020  0.00  0.00    +0.000 HD
ENDBRANCH   7  10
ENDBRANCH   3   6
BRANCH   1  20
ATOM     20  C   UNL     1       2.164   6.742  18.392  0.00  0.00    +0.000 C 
BRANCH  20  24
ATOM     21  C   UNL     1       6.228   5.149  18.054  0.00  0.00    +0.000 A 
ATOM     22  C   UNL     1       5.327   4.580  18.960  0.00  0.00    +0.000 A 
ATOM     23  C   UNL     1       4.031   5.111  19.124  0.00  0.00    +0.000 A 
ATOM     24  C   UNL     1       3.606   6.229  18.382  0.00  0.00    +0.000 A 
ATOM     25  C   UNL     1       4.527   6.803  17.482  0.00  0.00    +0.000 A 
ATOM     26  C   UNL     1       5.822   6.262  17.318  0.00  0.00    +0.000 A 
BRANCH  21  28
ATOM     27  N   UNL     1       8.600   4.126  17.718  0.00  0.00    +0.000 NA
ATOM     28  C   UNL     1       7.549   4.594  17.868  0.00  0.00    +0.000 C 
ENDBRANCH  21  28
ENDBRANCH  20  24
ENDBRANCH   1  20
TORSDOF 5
ENDMDL
