MODEL 1
REMARK VINA RESULT:      -7.3      0.000      0.000
REMARK  Name = 
REMARK  5 active torsions:
REMARK  status: ('A' for Active; 'I' for Inactive)
REMARK    1  A    between atoms: C_1  and  C_2
REMARK    2  A    between atoms: C_2  and  C_3
REMARK    3  A    between atoms: C_11  and  C_12
REMARK    4  A    between atoms: C_19  and  C_20
REMARK    5  A    between atoms: N_27  and  C_28
REMARK                            x       y       z     vdW  Elec       q    Type
REMARK                         _______ _______ _______ _____ _____    ______ ____
ROOT
ATOM      1  C   UNL     1       1.959  13.282  19.537  0.00  0.00    +0.000 C 
ATOM      2  C   UNL     1       1.029  13.679  20.687  0.00  0.00    +0.000 C 
ATOM      3  C   UNL     1       1.772  14.589  21.662  0.00  0.00    +0.000 C 
ATOM      4  O   UNL     1      -0.046  14.399  20.101  0.00  0.00    +0.000 OA
ATOM      5  C   UNL     1      -1.244  14.447  20.720  0.00  0.00    +0.000 C 
ATOM      6  O   UNL     1      -1.968  15.416  20.514  0.00  0.00    +0.000 OA
ATOM      7  C   UNL     1      -1.658  13.209  21.502  0.00  0.00    +0.000 C 
ATOM      8  C   UNL     1      -0.481  12.469  22.094  0.00  0.00    +0.000 C 
ATOM      9  O   UNL     1      -0.550  11.758  23.095  0.00  0.00    +0.000 OA
ATOM     10  O   UNL     1       0.676  12.502  21.398  0.00  0.00    +0.000 OA
ATOM     11  C   UNL     1      -2.683  13.497  22.643  0.00  0.00    +0.000 C 
ATOM     12  C   UNL     1      -3.978  13.234  21.899  0.00  0.00    +0.000 C 
ATOM     13  N   UNL     1      -3.838  12.617  20.760  0.00  0.00    +0.000 NA
ATOM     14  N   UNL     1      -2.498  12.345  20.610  0.00  0.00    +0.000 N 
ENDROOT
BRANCH  11  15
ATOM     15  C   UNL     1      -2.534  14.775  23.445  0.00  0.00    +0.000 A 
ATOM     16  C   UNL     1      -3.371  15.889  23.273  0.00  0.00    +0.000 A 
ATOM     17  C   UNL     1      -3.179  17.053  24.018  0.00  0.00    +0.000 A 
ATOM     18  C   UNL     1      -2.155  17.106  24.950  0.00  0.00    +0.000 A 
ATOM     19  F   UNL     1      -1.965  18.226  25.661  0.00  0.00    +0.000 F 
ATOM     20  C   UNL     1      -1.325  16.015  25.161  0.00  0.00    +0.000 A 
ATOM     21  C   UNL     1      -1.511  14.854  24.409  0.00  0.00    +0.000 A 
ENDBRANCH  11  15
BRANCH  14  22
ATOM     22  C   UNL     1      -2.059  11.608  19.516  0.00  0.00    +0.000 A 
ATOM     23  C   UNL     1      -0.952  10.748  19.607  0.00  0.00    +0.000 A 
ATOM     24  C   UNL     1      -0.511   9.986  18.514  0.00  0.00    +0.000 A 
ATOM     25  C   UNL     1      -1.172  10.063  17.293  0.00  0.00    +0.000 A 
ATOM     26  C   UNL     1      -2.238  10.938  17.164  0.00  0.00    +0.000 A 
ATOM     27 CL   UNL     1      -3.085  11.060  15.668  0.00  0.00    +0.000 Cl
ATOM     28  C   UNL     1      -2.641  11.722  18.246  0.00  0.00    +0.000 A 
ENDBRANCH  14  22
BRANCH  12  29
ATOM     29  C   UNL     1      -5.306  13.535  22.492  0.00  0.00    +0.000 A 
ATOM     30  C   UNL     1      -5.697  12.914  23.681  0.00  0.00    +0.000 A 
ATOM     31  C   UNL     1      -6.955  13.190  24.230  0.00  0.00    +0.000 A 
ATOM     32  C   UNL     1      -7.814  14.096  23.603  0.00  0.00    +0.000 A 
ATOM     33  C   UNL     1      -7.417  14.734  22.430  0.00  0.00    +0.000 A 
ATOM     34  C   UNL     1      -6.164  14.455  21.876  0.00  0.00    +0.000 A 
ENDBRANCH  12  29
TORSDOF 3
ENDMDL
MODEL 2
REMARK VINA RESULT:      -7.2      0.122      1.177
REMARK  Name = 
REMARK  5 active torsions:
REMARK  status: ('A' for Active; 'I' for Inactive)
REMARK    1  A    between atoms: C_1  and  C_2
REMARK    2  A    between atoms: C_2  and  C_3
REMARK    3  A    between atoms: C_11  and  C_12
REMARK    4  A    between atoms: C_19  and  C_20
REMARK    5  A    between atoms: N_27  and  C_28
REMARK                            x       y       z     vdW  Elec       q    Type
REMARK                         _______ _______ _______ _____ _____    ______ ____
ROOT
ATOM      1  C   UNL     1       1.887  13.262  19.509  0.00  0.00    +0.000 C 
ATOM      2  C   UNL     1       0.971  13.645  20.674  0.00  0.00    +0.000 C 
ATOM      3  C   UNL     1       1.726  14.540  21.653  0.00  0.00    +0.000 C 
ATOM      4  O   UNL     1      -0.110  14.374  20.111  0.00  0.00    +0.000 OA
ATOM      5  C   UNL     1      -1.300  14.414  20.744  0.00  0.00    +0.000 C 
ATOM      6  O   UNL     1      -2.026  15.388  20.560  0.00  0.00    +0.000 OA
ATOM      7  C   UNL     1      -1.708  13.166  21.514  0.00  0.00    +0.000 C 
ATOM      8  C   UNL     1      -0.525  12.417  22.081  0.00  0.00    +0.000 C 
ATOM      9  O   UNL     1      -0.583  11.692  23.073  0.00  0.00    +0.000 OA
ATOM     10  O   UNL     1       0.624  12.457  21.373  0.00  0.00    +0.000 OA
ATOM     11  C   UNL     1      -2.719  13.439  22.670  0.00  0.00    +0.000 C 
ATOM     12  C   UNL     1      -4.023  13.188  21.937  0.00  0.00    +0.000 C 
ATOM     13  N   UNL     1      -3.897  12.587  20.788  0.00  0.00    +0.000 NA
ATOM     14  N   UNL     1      -2.559  12.316  20.619  0.00  0.00    +0.000 N 
ENDROOT
BRANCH  11  15
ATOM     15  C   UNL     1      -2.559  14.706  23.488  0.00  0.00    +0.000 A 
ATOM     16  C   UNL     1      -1.512  14.900  24.404  0.00  0.00    +0.000 A 
ATOM     17  C   UNL     1      -1.422  16.073  25.152  0.00  0.00    +0.000 A 
ATOM     18  C   UNL     1      -2.371  17.068  24.980  0.00  0.00    +0.000 A 
ATOM     19  F   UNL     1      -2.290  18.193  25.704  0.00  0.00    +0.000 F 
ATOM     20  C   UNL     1      -3.404  16.918  24.066  0.00  0.00    +0.000 A 
ATOM     21  C   UNL     1      -3.501  15.740  23.325  0.00  0.00    +0.000 A 
ENDBRANCH  11  15
BRANCH  14  22
ATOM     22  C   UNL     1      -2.133  11.594  19.510  0.00  0.00    +0.000 A 
ATOM     23  C   UNL     1      -1.038  10.716  19.581  0.00  0.00    +0.000 A 
ATOM     24  C   UNL     1      -0.612   9.969  18.472  0.00  0.00    +0.000 A 
ATOM     25  C   UNL     1      -1.275  10.079  17.255  0.00  0.00    +0.000 A 
ATOM     26  C   UNL     1      -2.328  10.972  17.146  0.00  0.00    +0.000 A 
ATOM     27 CL   UNL     1      -3.177  11.135  15.655  0.00  0.00    +0.000 Cl
ATOM     28  C   UNL     1      -2.717  11.741  18.244  0.00  0.00    +0.000 A 
ENDBRANCH  14  22
BRANCH  12  29
ATOM     29  C   UNL     1      -5.344  13.482  22.549  0.00  0.00    +0.000 A 
ATOM     30  C   UNL     1      -6.220  14.374  21.925  0.00  0.00    +0.000 A 
ATOM     31  C   UNL     1      -7.459  14.659  22.513  0.00  0.00    +0.000 A 
ATOM     32  C   UNL     1      -7.828  14.043  23.712  0.00  0.00    +0.000 A 
ATOM     33  C   UNL     1      -6.966  13.136  24.323  0.00  0.00    +0.000 A 
ATOM     34  C   UNL     1      -5.726  12.854  23.742  0.00  0.00    +0.000 A 
ENDBRANCH  12  29
TORSDOF 3
ENDMDL
MODEL 3
REMARK VINA RESULT:      -7.1      0.888      1.458
REMARK  Name = 
REMARK  5 active torsions:
REMARK  status: ('A' for Active; 'I' for Inactive)
REMARK    1  A    between atoms: C_1  and  C_2
REMARK    2  A    between atoms: C_2  and  C_3
REMARK    3  A    between atoms: C_11  and  C_12
REMARK    4  A    between atoms: C_19  and  C_20
REMARK    5  A    between atoms: N_27  and  C_28
REMARK                            x       y       z     vdW  Elec       q    Type
REMARK                         _______ _______ _______ _____ _____    ______ ____
ROOT
ATOM      1  C   UNL     1       1.839  13.148  19.379  0.00  0.00    +0.000 C 
ATOM      2  C   UNL     1       0.966  13.558  20.568  0.00  0.00    +0.000 C 
ATOM      3  C   UNL     1       1.775  14.423  21.531  0.00  0.00    +0.000 C 
ATOM      4  O   UNL     1      -0.103  14.327  20.033  0.00  0.00    +0.000 OA
ATOM      5  C   UNL     1      -1.275  14.407  20.696  0.00  0.00    +0.000 C 
ATOM      6  O   UNL     1      -1.970  15.406  20.532  0.00  0.00    +0.000 OA
ATOM      7  C   UNL     1      -1.708  13.171  21.472  0.00  0.00    +0.000 C 
ATOM      8  C   UNL     1      -0.538  12.379  22.008  0.00  0.00    +0.000 C 
ATOM      9  O   UNL     1      -0.598  11.653  22.999  0.00  0.00    +0.000 OA
ATOM     10  O   UNL     1       0.594  12.381  21.272  0.00  0.00    +0.000 OA
ATOM     11  C   UNL     1      -2.679  13.476  22.653  0.00  0.00    +0.000 C 
ATOM     12  C   UNL     1      -4.009  13.273  21.952  0.00  0.00    +0.000 C 
ATOM     13  N   UNL     1      -3.932  12.672  20.798  0.00  0.00    +0.000 NA
ATOM     14  N   UNL     1      -2.609  12.355  20.596  0.00  0.00    +0.000 N 
ENDROOT
BRANCH  11  15
ATOM     15  C   UNL     1      -2.455  14.734  23.470  0.00  0.00    +0.000 A 
ATOM     16  C   UNL     1      -3.262  15.877  23.353  0.00  0.00    +0.000 A 
ATOM     17  C   UNL     1      -3.000  17.020  24.109  0.00  0.00    +0.000 A 
ATOM     18  C   UNL     1      -1.938  17.022  24.998  0.00  0.00    +0.000 A 
ATOM     19  F   UNL     1      -1.681  18.122  25.720  0.00  0.00    +0.000 F 
ATOM     20  C   UNL     1      -1.136  15.901  25.155  0.00  0.00    +0.000 A 
ATOM     21  C   UNL     1      -1.391  14.761  24.392  0.00  0.00    +0.000 A 
ENDBRANCH  11  15
BRANCH  14  22
ATOM     22  C   UNL     1      -2.236  11.622  19.475  0.00  0.00    +0.000 A 
ATOM     23  C   UNL     1      -3.066  11.534  18.345  0.00  0.00    +0.000 A 
ATOM     24  C   UNL     1      -2.691  10.812  17.202  0.00  0.00    +0.000 A 
ATOM     25  C   UNL     1      -1.466  10.154  17.157  0.00  0.00    +0.000 A 
ATOM     26  C   UNL     1      -0.650  10.186  18.276  0.00  0.00    +0.000 A 
ATOM     27 CL   UNL     1       0.876   9.386  18.260  0.00  0.00    +0.000 Cl
ATOM     28  C   UNL     1      -1.052  10.873  19.423  0.00  0.00    +0.000 A 
ENDBRANCH  14  22
BRANCH  12  29
ATOM     29  C   UNL     1      -5.303  13.612  22.597  0.00  0.00    +0.000 A 
ATOM     30  C   UNL     1      -6.124  14.597  22.042  0.00  0.00    +0.000 A 
ATOM     31  C   UNL     1      -7.337  14.923  22.662  0.00  0.00    +0.000 A 
ATOM     32  C   UNL     1      -7.737  14.256  23.822  0.00  0.00    +0.000 A 
ATOM     33  C   UNL     1      -6.932  13.256  24.363  0.00  0.00    +0.000 A 
ATOM     34  C   UNL     1      -5.717  12.934  23.751  0.00  0.00    +0.000 A 
ENDBRANCH  12  29
TORSDOF 3
ENDMDL
MODEL 4
REMARK VINA RESULT:      -7.1      9.165     12.123
REMARK  Name = 
REMARK  5 active torsions:
REMARK  status: ('A' for Active; 'I' for Inactive)
REMARK    1  A    between atoms: C_1  and  C_2
REMARK    2  A    between atoms: C_2  and  C_3
REMARK    3  A    between atoms: C_11  and  C_12
REMARK    4  A    between atoms: C_19  and  C_20
REMARK    5  A    between atoms: N_27  and  C_28
REMARK                            x       y       z     vdW  Elec       q    Type
REMARK                         _______ _______ _______ _____ _____    ______ ____
ROOT
ATOM      1  C   UNL     1       4.898  15.989  25.929  0.00  0.00    +0.000 C 
ATOM      2  C   UNL     1       5.381  15.835  24.484  0.00  0.00    +0.000 C 
ATOM      3  C   UNL     1       4.920  17.031  23.654  0.00  0.00    +0.000 C 
ATOM      4  O   UNL     1       6.800  15.819  24.536  0.00  0.00    +0.000 OA
ATOM      5  C   UNL     1       7.505  15.211  23.559  0.00  0.00    +0.000 C 
ATOM      6  O   UNL     1       8.644  15.609  23.328  0.00  0.00    +0.000 OA
ATOM      7  C   UNL     1       6.878  13.973  22.934  0.00  0.00    +0.000 C 
ATOM      8  C   UNL     1       5.368  14.029  22.914  0.00  0.00    +0.000 C 
ATOM      9  O   UNL     1       4.670  13.428  22.099  0.00  0.00    +0.000 OA
ATOM     10  O   UNL     1       4.765  14.679  23.932  0.00  0.00    +0.000 OA
ATOM     11  C   UNL     1       7.379  13.676  21.487  0.00  0.00    +0.000 C 
ATOM     12  C   UNL     1       8.512  12.717  21.798  0.00  0.00    +0.000 C 
ATOM     13  N   UNL     1       8.514  12.250  23.014  0.00  0.00    +0.000 NA
ATOM     14  N   UNL     1       7.406  12.765  23.646  0.00  0.00    +0.000 N 
ENDROOT
BRANCH  11  15
ATOM     15  C   UNL     1       7.630  14.843  20.551  0.00  0.00    +0.000 A 
ATOM     16  C   UNL     1       8.917  15.300  20.225  0.00  0.00    +0.000 A 
ATOM     17  C   UNL     1       9.097  16.394  19.380  0.00  0.00    +0.000 A 
ATOM     18  C   UNL     1       7.990  17.032  18.843  0.00  0.00    +0.000 A 
ATOM     19  F   UNL     1       8.161  18.089  18.036  0.00  0.00    +0.000 F 
ATOM     20  C   UNL     1       6.705  16.591  19.126  0.00  0.00    +0.000 A 
ATOM     21  C   UNL     1       6.525  15.503  19.981  0.00  0.00    +0.000 A 
ENDBRANCH  11  15
BRANCH  14  22
ATOM     22  C   UNL     1       7.099  12.366  24.942  0.00  0.00    +0.000 A 
ATOM     23  C   UNL     1       6.172  11.341  25.195  0.00  0.00    +0.000 A 
ATOM     24  C   UNL     1       5.869  10.919  26.498  0.00  0.00    +0.000 A 
ATOM     25  C   UNL     1       6.490  11.513  27.591  0.00  0.00    +0.000 A 
ATOM     26  C   UNL     1       7.373  12.557  27.372  0.00  0.00    +0.000 A 
ATOM     27 CL   UNL     1       8.165  13.318  28.699  0.00  0.00    +0.000 Cl
ATOM     28  C   UNL     1       7.635  12.997  26.073  0.00  0.00    +0.000 A 
ENDBRANCH  14  22
BRANCH  12  29
ATOM     29  C   UNL     1       9.459  12.246  20.755  0.00  0.00    +0.000 A 
ATOM     30  C   UNL     1       8.976  11.606  19.611  0.00  0.00    +0.000 A 
ATOM     31  C   UNL     1       9.874  11.152  18.636  0.00  0.00    +0.000 A 
ATOM     32  C   UNL     1      11.247  11.350  18.796  0.00  0.00    +0.000 A 
ATOM     33  C   UNL     1      11.729  12.009  19.925  0.00  0.00    +0.000 A 
ATOM     34  C   UNL     1      10.837  12.458  20.902  0.00  0.00    +0.000 A 
ENDBRANCH  12  29
TORSDOF 3
ENDMDL
MODEL 5
REMARK VINA RESULT:      -7.1      0.914      1.476
REMARK  Name = 
REMARK  5 active torsions:
REMARK  status: ('A' for Active; 'I' for Inactive)
REMARK    1  A    between atoms: C_1  and  C_2
REMARK    2  A    between atoms: C_2  and  C_3
REMARK    3  A    between atoms: C_11  and  C_12
REMARK    4  A    between atoms: C_19  and  C_20
REMARK    5  A    between atoms: N_27  and  C_28
REMARK                            x       y       z     vdW  Elec       q    Type
REMARK                         _______ _______ _______ _____ _____    ______ ____
ROOT
ATOM      1  C   UNL     1       1.898  13.308  19.547  0.00  0.00    +0.000 C 
ATOM      2  C   UNL     1       0.975  13.682  20.710  0.00  0.00    +0.000 C 
ATOM      3  C   UNL     1       1.723  14.577  21.696  0.00  0.00    +0.000 C 
ATOM      4  O   UNL     1      -0.107  14.409  20.145  0.00  0.00    +0.000 OA
ATOM      5  C   UNL     1      -1.300  14.442  20.775  0.00  0.00    +0.000 C 
ATOM      6  O   UNL     1      -2.029  15.413  20.591  0.00  0.00    +0.000 OA
ATOM      7  C   UNL     1      -1.705  13.189  21.538  0.00  0.00    +0.000 C 
ATOM      8  C   UNL     1      -0.521  12.443  22.107  0.00  0.00    +0.000 C 
ATOM      9  O   UNL     1      -0.580  11.714  23.096  0.00  0.00    +0.000 OA
ATOM     10  O   UNL     1       0.630  12.491  21.403  0.00  0.00    +0.000 OA
ATOM     11  C   UNL     1      -2.721  13.453  22.691  0.00  0.00    +0.000 C 
ATOM     12  C   UNL     1      -4.021  13.200  21.952  0.00  0.00    +0.000 C 
ATOM     13  N   UNL     1      -3.888  12.603  20.802  0.00  0.00    +0.000 NA
ATOM     14  N   UNL     1      -2.549  12.339  20.637  0.00  0.00    +0.000 N 
ENDROOT
BRANCH  11  15
ATOM     15  C   UNL     1      -2.570  14.718  23.515  0.00  0.00    +0.000 A 
ATOM     16  C   UNL     1      -1.565  14.888  24.481  0.00  0.00    +0.000 A 
ATOM     17  C   UNL     1      -1.482  16.060  25.231  0.00  0.00    +0.000 A 
ATOM     18  C   UNL     1      -2.396  17.078  25.011  0.00  0.00    +0.000 A 
ATOM     19  F   UNL     1      -2.322  18.203  25.737  0.00  0.00    +0.000 F 
ATOM     20  C   UNL     1      -3.386  16.952  24.048  0.00  0.00    +0.000 A 
ATOM     21  C   UNL     1      -3.476  15.775  23.304  0.00  0.00    +0.000 A 
ENDBRANCH  11  15
BRANCH  14  22
ATOM     22  C   UNL     1      -2.115  11.623  19.527  0.00  0.00    +0.000 A 
ATOM     23  C   UNL     1      -2.864  11.584  18.339  0.00  0.00    +0.000 A 
ATOM     24  C   UNL     1      -2.427  10.878  17.207  0.00  0.00    +0.000 A 
ATOM     25  C   UNL     1      -1.219  10.190  17.233  0.00  0.00    +0.000 A 
ATOM     26  C   UNL     1      -0.484  10.173  18.407  0.00  0.00    +0.000 A 
ATOM     27 CL   UNL     1       1.018   9.333  18.478  0.00  0.00    +0.000 Cl
ATOM     28  C   UNL     1      -0.950  10.843  19.539  0.00  0.00    +0.000 A 
ENDBRANCH  14  22
BRANCH  12  29
ATOM     29  C   UNL     1      -5.345  13.486  22.561  0.00  0.00    +0.000 A 
ATOM     30  C   UNL     1      -5.694  12.902  23.781  0.00  0.00    +0.000 A 
ATOM     31  C   UNL     1      -6.949  13.164  24.345  0.00  0.00    +0.000 A 
ATOM     32  C   UNL     1      -7.847  14.019  23.700  0.00  0.00    +0.000 A 
ATOM     33  C   UNL     1      -7.491  14.621  22.495  0.00  0.00    +0.000 A 
ATOM     34  C   UNL     1      -6.243  14.356  21.927  0.00  0.00    +0.000 A 
ENDBRANCH  12  29
TORSDOF 3
ENDMDL
MODEL 6
REMARK VINA RESULT:      -6.9      3.831      6.252
REMARK  Name = 
REMARK  5 active torsions:
REMARK  status: ('A' for Active; 'I' for Inactive)
REMARK    1  A    between atoms: C_1  and  C_2
REMARK    2  A    between atoms: C_2  and  C_3
REMARK    3  A    between atoms: C_11  and  C_12
REMARK    4  A    between atoms: C_19  and  C_20
REMARK    5  A    between atoms: N_27  and  C_28
REMARK                            x       y       z     vdW  Elec       q    Type
REMARK                         _______ _______ _______ _____ _____    ______ ____
ROOT
ATOM      1  C   UNL     1       1.010  18.218  18.123  0.00  0.00    +0.000 C 
ATOM      2  C   UNL     1       0.160  17.230  18.927  0.00  0.00    +0.000 C 
ATOM      3  C   UNL     1      -1.272  17.748  19.034  0.00  0.00    +0.000 C 
ATOM      4  O   UNL     1       0.164  16.011  18.196  0.00  0.00    +0.000 OA
ATOM      5  C   UNL     1      -0.042  14.841  18.834  0.00  0.00    +0.000 C 
ATOM      6  O   UNL     1      -0.527  13.908  18.198  0.00  0.00    +0.000 OA
ATOM      7  C   UNL     1       0.495  14.732  20.254  0.00  0.00    +0.000 C 
ATOM      8  C   UNL     1       0.484  16.054  20.985  0.00  0.00    +0.000 C 
ATOM      9  O   UNL     1       0.420  16.160  22.209  0.00  0.00    +0.000 OA
ATOM     10  O   UNL     1       0.684  17.166  20.246  0.00  0.00    +0.000 OA
ATOM     11  C   UNL     1      -0.249  13.678  21.131  0.00  0.00    +0.000 C 
ATOM     12  C   UNL     1       0.643  12.474  20.899  0.00  0.00    +0.000 C 
ATOM     13  N   UNL     1       1.795  12.744  20.354  0.00  0.00    +0.000 NA
ATOM     14  N   UNL     1       1.857  14.110  20.198  0.00  0.00    +0.000 N 
ENDROOT
BRANCH  11  15
ATOM     15  C   UNL     1      -1.751  13.531  20.970  0.00  0.00    +0.000 A 
ATOM     16  C   UNL     1      -2.341  12.576  20.126  0.00  0.00    +0.000 A 
ATOM     17  C   UNL     1      -3.727  12.496  19.992  0.00  0.00    +0.000 A 
ATOM     18  C   UNL     1      -4.534  13.362  20.713  0.00  0.00    +0.000 A 
ATOM     19  F   UNL     1      -5.866  13.291  20.580  0.00  0.00    +0.000 F 
ATOM     20  C   UNL     1      -3.983  14.301  21.573  0.00  0.00    +0.000 A 
ATOM     21  C   UNL     1      -2.596  14.388  21.700  0.00  0.00    +0.000 A 
ENDBRANCH  11  15
BRANCH  14  22
ATOM     22  C   UNL     1       3.019  14.700  19.716  0.00  0.00    +0.000 A 
ATOM     23  C   UNL     1       3.385  14.606  18.363  0.00  0.00    +0.000 A 
ATOM     24  C   UNL     1       4.547  15.214  17.863  0.00  0.00    +0.000 A 
ATOM     25  C   UNL     1       5.380  15.938  18.709  0.00  0.00    +0.000 A 
ATOM     26  C   UNL     1       5.067  16.007  20.056  0.00  0.00    +0.000 A 
ATOM     27 CL   UNL     1       6.072  16.897  21.137  0.00  0.00    +0.000 Cl
ATOM     28  C   UNL     1       3.931  15.363  20.550  0.00  0.00    +0.000 A 
ENDBRANCH  14  22
BRANCH  12  29
ATOM     29  C   UNL     1       0.283  11.117  21.383  0.00  0.00    +0.000 A 
ATOM     30  C   UNL     1       0.628   9.992  20.630  0.00  0.00    +0.000 A 
ATOM     31  C   UNL     1       0.274   8.715  21.084  0.00  0.00    +0.000 A 
ATOM     32  C   UNL     1      -0.408   8.561  22.294  0.00  0.00    +0.000 A 
ATOM     33  C   UNL     1      -0.732   9.680  23.058  0.00  0.00    +0.000 A 
ATOM     34  C   UNL     1      -0.386  10.956  22.604  0.00  0.00    +0.000 A 
ENDBRANCH  12  29
TORSDOF 3
ENDMDL
MODEL 7
REMARK VINA RESULT:      -6.9      3.724      6.252
REMARK  Name = 
REMARK  5 active torsions:
REMARK  status: ('A' for Active; 'I' for Inactive)
REMARK    1  A    between atoms: C_1  and  C_2
REMARK    2  A    between atoms: C_2  and  C_3
REMARK    3  A    between atoms: C_11  and  C_12
REMARK    4  A    between atoms: C_19  and  C_20
REMARK    5  A    between atoms: N_27  and  C_28
REMARK                            x       y       z     vdW  Elec       q    Type
REMARK                         _______ _______ _______ _____ _____    ______ ____
ROOT
ATOM      1  C   UNL     1       0.755  18.310  18.397  0.00  0.00    +0.000 C 
ATOM      2  C   UNL     1      -0.127  17.236  19.040  0.00  0.00    +0.000 C 
ATOM      3  C   UNL     1      -1.598  17.608  18.873  0.00  0.00    +0.000 C 
ATOM      4  O   UNL     1       0.134  16.030  18.337  0.00  0.00    +0.000 OA
ATOM      5  C   UNL     1      -0.070  14.840  18.939  0.00  0.00    +0.000 C 
ATOM      6  O   UNL     1      -0.332  13.868  18.235  0.00  0.00    +0.000 OA
ATOM      7  C   UNL     1       0.201  14.775  20.435  0.00  0.00    +0.000 C 
ATOM      8  C   UNL     1      -0.078  16.084  21.136  0.00  0.00    +0.000 C 
ATOM      9  O   UNL     1      -0.380  16.175  22.325  0.00  0.00    +0.000 OA
ATOM     10  O   UNL     1       0.144  17.216  20.434  0.00  0.00    +0.000 OA
ATOM     11  C   UNL     1      -0.585  13.646  21.170  0.00  0.00    +0.000 C 
ATOM     12  C   UNL     1       0.451  12.539  21.123  0.00  0.00    +0.000 C 
ATOM     13  N   UNL     1       1.651  12.927  20.800  0.00  0.00    +0.000 NA
ATOM     14  N   UNL     1       1.604  14.293  20.641  0.00  0.00    +0.000 N 
ENDROOT
BRANCH  11  15
ATOM     15  C   UNL     1      -2.008  13.350  20.734  0.00  0.00    +0.000 A 
ATOM     16  C   UNL     1      -2.334  12.337  19.819  0.00  0.00    +0.000 A 
ATOM     17  C   UNL     1      -3.655  12.120  19.430  0.00  0.00    +0.000 A 
ATOM     18  C   UNL     1      -4.663  12.906  19.964  0.00  0.00    +0.000 A 
ATOM     19  F   UNL     1      -5.932  12.704  19.585  0.00  0.00    +0.000 F 
ATOM     20  C   UNL     1      -4.378  13.901  20.889  0.00  0.00    +0.000 A 
ATOM     21  C   UNL     1      -3.054  14.125  21.271  0.00  0.00    +0.000 A 
ENDBRANCH  11  15
BRANCH  14  22
ATOM     22  C   UNL     1       2.772  15.000  20.378  0.00  0.00    +0.000 A 
ATOM     23  C   UNL     1       3.150  16.109  21.153  0.00  0.00    +0.000 A 
ATOM     24  C   UNL     1       4.336  16.818  20.906  0.00  0.00    +0.000 A 
ATOM     25  C   UNL     1       5.181  16.434  19.871  0.00  0.00    +0.000 A 
ATOM     26  C   UNL     1       4.808  15.373  19.063  0.00  0.00    +0.000 A 
ATOM     27 CL   UNL     1       5.830  14.864  17.772  0.00  0.00    +0.000 Cl
ATOM     28  C   UNL     1       3.607  14.701  19.291  0.00  0.00    +0.000 A 
ENDBRANCH  14  22
BRANCH  12  29
ATOM     29  C   UNL     1       0.143  11.149  21.548  0.00  0.00    +0.000 A 
ATOM     30  C   UNL     1      -0.523  10.919  22.754  0.00  0.00    +0.000 A 
ATOM     31  C   UNL     1      -0.799   9.606  23.158  0.00  0.00    +0.000 A 
ATOM     32  C   UNL     1      -0.427   8.528  22.351  0.00  0.00    +0.000 A 
ATOM     33  C   UNL     1       0.215   8.757  21.136  0.00  0.00    +0.000 A 
ATOM     34  C   UNL     1       0.499  10.065  20.734  0.00  0.00    +0.000 A 
ENDBRANCH  12  29
TORSDOF 3
ENDMDL
MODEL 8
REMARK VINA RESULT:      -6.9      3.664      7.169
REMARK  Name = 
REMARK  5 active torsions:
REMARK  status: ('A' for Active; 'I' for Inactive)
REMARK    1  A    between atoms: C_1  and  C_2
REMARK    2  A    between atoms: C_2  and  C_3
REMARK    3  A    between atoms: C_11  and  C_12
REMARK    4  A    between atoms: C_19  and  C_20
REMARK    5  A    between atoms: N_27  and  C_28
REMARK                            x       y       z     vdW  Elec       q    Type
REMARK                         _______ _______ _______ _____ _____    ______ ____
ROOT
ATOM      1  C   UNL     1      -4.061  18.054  22.630  0.00  0.00    +0.000 C 
ATOM      2  C   UNL     1      -4.078  16.623  22.084  0.00  0.00    +0.000 C 
ATOM      3  C   UNL     1      -5.212  16.468  21.075  0.00  0.00    +0.000 C 
ATOM      4  O   UNL     1      -2.834  16.431  21.424  0.00  0.00    +0.000 OA
ATOM      5  C   UNL     1      -2.328  15.189  21.286  0.00  0.00    +0.000 C 
ATOM      6  O   UNL     1      -1.580  14.967  20.337  0.00  0.00    +0.000 OA
ATOM      7  C   UNL     1      -2.606  14.207  22.416  0.00  0.00    +0.000 C 
ATOM      8  C   UNL     1      -3.931  14.459  23.096  0.00  0.00    +0.000 C 
ATOM      9  O   UNL     1      -4.578  13.592  23.681  0.00  0.00    +0.000 OA
ATOM     10  O   UNL     1      -4.352  15.740  23.164  0.00  0.00    +0.000 OA
ATOM     11  C   UNL     1      -2.553  12.711  21.978  0.00  0.00    +0.000 C 
ATOM     12  C   UNL     1      -1.107  12.397  22.310  0.00  0.00    +0.000 C 
ATOM     13  N   UNL     1      -0.514  13.280  23.060  0.00  0.00    +0.000 NA
ATOM     14  N   UNL     1      -1.448  14.242  23.367  0.00  0.00    +0.000 N 
ENDROOT
BRANCH  11  15
ATOM     15  C   UNL     1      -3.101  12.334  20.615  0.00  0.00    +0.000 A 
ATOM     16  C   UNL     1      -4.469  12.381  20.300  0.00  0.00    +0.000 A 
ATOM     17  C   UNL     1      -4.928  12.000  19.039  0.00  0.00    +0.000 A 
ATOM     18  C   UNL     1      -4.020  11.583  18.079  0.00  0.00    +0.000 A 
ATOM     19  F   UNL     1      -4.460  11.210  16.869  0.00  0.00    +0.000 F 
ATOM     20  C   UNL     1      -2.660  11.547  18.351  0.00  0.00    +0.000 A 
ATOM     21  C   UNL     1      -2.201  11.919  19.615  0.00  0.00    +0.000 A 
ENDBRANCH  11  15
BRANCH  14  22
ATOM     22  C   UNL     1      -1.119  15.276  24.236  0.00  0.00    +0.000 A 
ATOM     23  C   UNL     1      -1.615  15.318  25.549  0.00  0.00    +0.000 A 
ATOM     24  C   UNL     1      -1.275  16.348  26.440  0.00  0.00    +0.000 A 
ATOM     25  C   UNL     1      -0.421  17.369  26.038  0.00  0.00    +0.000 A 
ATOM     26  C   UNL     1       0.045  17.377  24.734  0.00  0.00    +0.000 A 
ATOM     27 CL   UNL     1       1.107  18.623  24.199  0.00  0.00    +0.000 Cl
ATOM     28  C   UNL     1      -0.334  16.370  23.844  0.00  0.00    +0.000 A 
ENDBRANCH  14  22
BRANCH  12  29
ATOM     29  C   UNL     1      -0.467  11.114  21.921  0.00  0.00    +0.000 A 
ATOM     30  C   UNL     1       0.469  11.086  20.884  0.00  0.00    +0.000 A 
ATOM     31  C   UNL     1       1.059   9.872  20.512  0.00  0.00    +0.000 A 
ATOM     32  C   UNL     1       0.728   8.692  21.183  0.00  0.00    +0.000 A 
ATOM     33  C   UNL     1      -0.187   8.721  22.232  0.00  0.00    +0.000 A 
ATOM     34  C   UNL     1      -0.783   9.930  22.602  0.00  0.00    +0.000 A 
ENDBRANCH  12  29
TORSDOF 3
ENDMDL
MODEL 9
REMARK VINA RESULT:      -6.8      3.757      6.281
REMARK  Name = 
REMARK  5 active torsions:
REMARK  status: ('A' for Active; 'I' for Inactive)
REMARK    1  A    between atoms: C_1  and  C_2
REMARK    2  A    between atoms: C_2  and  C_3
REMARK    3  A    between atoms: C_11  and  C_12
REMARK    4  A    between atoms: C_19  and  C_20
REMARK    5  A    between atoms: N_27  and  C_28
REMARK                            x       y       z     vdW  Elec       q    Type
REMARK                         _______ _______ _______ _____ _____    ______ ____
ROOT
ATOM      1  C   UNL     1       0.794  18.305  18.388  0.00  0.00    +0.000 C 
ATOM      2  C   UNL     1      -0.094  17.234  19.027  0.00  0.00    +0.000 C 
ATOM      3  C   UNL     1      -1.563  17.611  18.856  0.00  0.00    +0.000 C 
ATOM      4  O   UNL     1       0.165  16.027  18.323  0.00  0.00    +0.000 OA
ATOM      5  C   UNL     1      -0.045  14.837  18.922  0.00  0.00    +0.000 C 
ATOM      6  O   UNL     1      -0.309  13.868  18.216  0.00  0.00    +0.000 OA
ATOM      7  C   UNL     1       0.221  14.769  20.419  0.00  0.00    +0.000 C 
ATOM      8  C   UNL     1      -0.055  16.078  21.122  0.00  0.00    +0.000 C 
ATOM      9  O   UNL     1      -0.359  16.169  22.310  0.00  0.00    +0.000 OA
ATOM     10  O   UNL     1       0.174  17.210  20.422  0.00  0.00    +0.000 OA
ATOM     11  C   UNL     1      -0.571  13.642  21.151  0.00  0.00    +0.000 C 
ATOM     12  C   UNL     1       0.460  12.531  21.104  0.00  0.00    +0.000 C 
ATOM     13  N   UNL     1       1.663  12.915  20.785  0.00  0.00    +0.000 NA
ATOM     14  N   UNL     1       1.622  14.281  20.629  0.00  0.00    +0.000 N 
ENDROOT
BRANCH  11  15
ATOM     15  C   UNL     1      -1.994  13.352  20.710  0.00  0.00    +0.000 A 
ATOM     16  C   UNL     1      -3.101  14.084  21.169  0.00  0.00    +0.000 A 
ATOM     17  C   UNL     1      -4.394  13.764  20.755  0.00  0.00    +0.000 A 
ATOM     18  C   UNL     1      -4.588  12.718  19.867  0.00  0.00    +0.000 A 
ATOM     19  F   UNL     1      -5.830  12.404  19.473  0.00  0.00    +0.000 F 
ATOM     20  C   UNL     1      -3.513  11.990  19.376  0.00  0.00    +0.000 A 
ATOM     21  C   UNL     1      -2.220  12.304  19.799  0.00  0.00    +0.000 A 
ENDBRANCH  11  15
BRANCH  14  22
ATOM     22  C   UNL     1       2.793  14.984  20.369  0.00  0.00    +0.000 A 
ATOM     23  C   UNL     1       3.183  16.079  21.159  0.00  0.00    +0.000 A 
ATOM     24  C   UNL     1       4.372  16.784  20.916  0.00  0.00    +0.000 A 
ATOM     25  C   UNL     1       5.209  16.409  19.871  0.00  0.00    +0.000 A 
ATOM     26  C   UNL     1       4.825  15.363  19.049  0.00  0.00    +0.000 A 
ATOM     27 CL   UNL     1       5.836  14.867  17.745  0.00  0.00    +0.000 Cl
ATOM     28  C   UNL     1       3.620  14.696  19.274  0.00  0.00    +0.000 A 
ENDBRANCH  14  22
BRANCH  12  29
ATOM     29  C   UNL     1       0.146  11.142  21.526  0.00  0.00    +0.000 A 
ATOM     30  C   UNL     1       0.529  10.064  20.723  0.00  0.00    +0.000 A 
ATOM     31  C   UNL     1       0.218   8.757  21.118  0.00  0.00    +0.000 A 
ATOM     32  C   UNL     1      -0.457   8.525  22.318  0.00  0.00    +0.000 A 
ATOM     33  C   UNL     1      -0.818   9.596  23.132  0.00  0.00    +0.000 A 
ATOM     34  C   UNL     1      -0.516  10.903  22.738  0.00  0.00    +0.000 A 
ENDBRANCH  12  29
TORSDOF 3
ENDMDL
