MODEL 1
REMARK VINA RESULT:      -7.5      0.000      0.000
REMARK  Name = 
REMARK  8 active torsions:
REMARK  status: ('A' for Active; 'I' for Inactive)
REMARK    1  A    between atoms: C_1  and  C_2
REMARK    2  A    between atoms: C_4  and  N_5
REMARK    3  A    between atoms: N_5  and  C_6
REMARK    4  A    between atoms: C_10  and  C_11
REMARK    5  A    between atoms: C_11  and  O_12
REMARK    6  A    between atoms: O_12  and  C_13
REMARK    7  A    between atoms: C_13  and  C_14
REMARK    8  A    between atoms: C_14  and  C_15
REMARK                            x       y       z     vdW  Elec       q    Type
REMARK                         _______ _______ _______ _____ _____    ______ ____
ROOT
ATOM      1  C   UNL     1       5.568   5.767  16.503  0.00  0.00    +0.000 A 
ATOM      2  C   UNL     1       6.424   5.123  17.407  0.00  0.00    +0.000 A 
ATOM      3  C   UNL     1       6.114   5.047  18.769  0.00  0.00    +0.000 A 
ATOM      4  C   UNL     1       4.920   5.581  19.240  0.00  0.00    +0.000 A 
ATOM      5  C   UNL     1       4.019   6.186  18.354  0.00  0.00    +0.000 A 
ATOM      6  C   UNL     1       4.351   6.261  16.986  0.00  0.00    +0.000 A 
ENDROOT
BRANCH   1   7
ATOM      7  N   UNL     1       5.916   5.725  15.146  0.00  0.00    +0.000 N 
ATOM      8  H   UNL     1       6.147   6.672  14.840  0.00  0.00    +0.000 HD
BRANCH   7  12
ATOM      9  C   UNL     1       5.773   2.638  11.840  0.00  0.00    +0.000 C 
ATOM     10  C   UNL     1       5.933   3.856  12.732  0.00  0.00    +0.000 C 
ATOM     11  C   UNL     1       6.179   3.503  14.182  0.00  0.00    +0.000 C 
ATOM     12  C   UNL     1       6.912   4.729  14.700  0.00  0.00    +0.000 C 
ATOM     13  C   UNL     1       7.685   5.135  13.450  0.00  0.00    +0.000 C 
ATOM     14  O   UNL     1       8.680   5.836  13.405  0.00  0.00    +0.000 OA
ATOM     15  O   UNL     1       7.087   4.600  12.336  0.00  0.00    +0.000 OA
ENDBRANCH   7  12
ENDBRANCH   1   7
BRANCH   5  16
ATOM     16  C   UNL     1       2.696   6.709  18.858  0.00  0.00    +0.000 C 
BRANCH  16  17
ATOM     17  O   UNL     1       2.513   6.311  20.216  0.00  0.00    +0.000 OA
BRANCH  17  18
ATOM     18  C   UNL     1       1.295   5.583  20.390  0.00  0.00    +0.000 C 
BRANCH  18  19
ATOM     19  C   UNL     1       1.628   4.197  20.938  0.00  0.00    +0.000 C 
BRANCH  19  20
ATOM     20  C   UNL     1       2.304   3.320  19.913  0.00  0.00    +0.000 A 
ATOM     21  C   UNL     1       3.473   2.620  20.236  0.00  0.00    +0.000 A 
ATOM     22  C   UNL     1       4.098   1.809  19.285  0.00  0.00    +0.000 A 
ATOM     23  C   UNL     1       3.562   1.695  18.004  0.00  0.00    +0.000 A 
ATOM     24  C   UNL     1       2.404   2.396  17.670  0.00  0.00    +0.000 A 
ATOM     25  C   UNL     1       1.777   3.208  18.619  0.00  0.00    +0.000 A 
ENDBRANCH  19  20
ENDBRANCH  18  19
ENDBRANCH  17  18
ENDBRANCH  16  17
ENDBRANCH   5  16
TORSDOF 7
ENDMDL
MODEL 2
REMARK VINA RESULT:      -7.0      4.485      8.171
REMARK  Name = 
REMARK  8 active torsions:
REMARK  status: ('A' for Active; 'I' for Inactive)
REMARK    1  A    between atoms: C_1  and  C_2
REMARK    2  A    between atoms: C_4  and  N_5
REMARK    3  A    between atoms: N_5  and  C_6
REMARK    4  A    between atoms: C_10  and  C_11
REMARK    5  A    between atoms: C_11  and  O_12
REMARK    6  A    between atoms: O_12  and  C_13
REMARK    7  A    between atoms: C_13  and  C_14
REMARK    8  A    between atoms: C_14  and  C_15
REMARK                            x       y       z     vdW  Elec       q    Type
REMARK                         _______ _______ _______ _____ _____    ______ ____
ROOT
ATOM      1  C   UNL     1       5.038   3.971  17.348  0.00  0.00    +0.000 A 
ATOM      2  C   UNL     1       5.033   3.992  15.947  0.00  0.00    +0.000 A 
ATOM      3  C   UNL     1       5.799   4.919  15.233  0.00  0.00    +0.000 A 
ATOM      4  C   UNL     1       6.617   5.814  15.915  0.00  0.00    +0.000 A 
ATOM      5  C   UNL     1       6.684   5.785  17.314  0.00  0.00    +0.000 A 
ATOM      6  C   UNL     1       5.897   4.849  18.017  0.00  0.00    +0.000 A 
ENDROOT
BRANCH   1   7
ATOM      7  N   UNL     1       4.305   2.957  17.979  0.00  0.00    +0.000 N 
ATOM      8  H   UNL     1       4.744   2.748  18.878  0.00  0.00    +0.000 HD
BRANCH   7  12
ATOM      9  C   UNL     1       1.544   2.760  21.559  0.00  0.00    +0.000 C 
ATOM     10  C   UNL     1       2.487   3.123  20.426  0.00  0.00    +0.000 C 
ATOM     11  C   UNL     1       2.341   2.222  19.220  0.00  0.00    +0.000 C 
ATOM     12  C   UNL     1       2.839   3.105  18.087  0.00  0.00    +0.000 C 
ATOM     13  C   UNL     1       2.383   4.472  18.585  0.00  0.00    +0.000 C 
ATOM     14  O   UNL     1       2.221   5.475  17.912  0.00  0.00    +0.000 OA
ATOM     15  O   UNL     1       2.183   4.433  19.942  0.00  0.00    +0.000 OA
ENDBRANCH   7  12
ENDBRANCH   1   7
BRANCH   5  16
ATOM     16  C   UNL     1       7.619   6.716  18.048  0.00  0.00    +0.000 C 
BRANCH  16  17
ATOM     17  O   UNL     1       8.007   7.780  17.181  0.00  0.00    +0.000 OA
BRANCH  17  18
ATOM     18  C   UNL     1       7.674   9.055  17.734  0.00  0.00    +0.000 C 
BRANCH  18  19
ATOM     19  C   UNL     1       8.826   9.517  18.625  0.00  0.00    +0.000 C 
BRANCH  19  20
ATOM     20  C   UNL     1       9.371  10.861  18.211  0.00  0.00    +0.000 A 
ATOM     21  C   UNL     1      10.752  11.063  18.097  0.00  0.00    +0.000 A 
ATOM     22  C   UNL     1      11.256  12.309  17.714  0.00  0.00    +0.000 A 
ATOM     23  C   UNL     1      10.383  13.362  17.446  0.00  0.00    +0.000 A 
ATOM     24  C   UNL     1       9.008  13.173  17.566  0.00  0.00    +0.000 A 
ATOM     25  C   UNL     1       8.502  11.928  17.950  0.00  0.00    +0.000 A 
ENDBRANCH  19  20
ENDBRANCH  18  19
ENDBRANCH  17  18
ENDBRANCH  16  17
ENDBRANCH   5  16
TORSDOF 7
ENDMDL
MODEL 3
REMARK VINA RESULT:      -6.9      2.369      6.841
REMARK  Name = 
REMARK  8 active torsions:
REMARK  status: ('A' for Active; 'I' for Inactive)
REMARK    1  A    between atoms: C_1  and  C_2
REMARK    2  A    between atoms: C_4  and  N_5
REMARK    3  A    between atoms: N_5  and  C_6
REMARK    4  A    between atoms: C_10  and  C_11
REMARK    5  A    between atoms: C_11  and  O_12
REMARK    6  A    between atoms: O_12  and  C_13
REMARK    7  A    between atoms: C_13  and  C_14
REMARK    8  A    between atoms: C_14  and  C_15
REMARK                            x       y       z     vdW  Elec       q    Type
REMARK                         _______ _______ _______ _____ _____    ______ ____
ROOT
ATOM      1  C   UNL     1       2.834   6.270  19.721  0.00  0.00    +0.000 A 
ATOM      2  C   UNL     1       1.960   7.344  19.503  0.00  0.00    +0.000 A 
ATOM      3  C   UNL     1       2.149   8.228  18.435  0.00  0.00    +0.000 A 
ATOM      4  C   UNL     1       3.196   8.024  17.544  0.00  0.00    +0.000 A 
ATOM      5  C   UNL     1       4.058   6.931  17.704  0.00  0.00    +0.000 A 
ATOM      6  C   UNL     1       3.857   6.055  18.791  0.00  0.00    +0.000 A 
ENDROOT
BRANCH   1   7
ATOM      7  N   UNL     1       2.522   5.390  20.765  0.00  0.00    +0.000 N 
ATOM      8  H   UNL     1       2.357   5.936  21.613  0.00  0.00    +0.000 HD
BRANCH   7  12
ATOM      9  C   UNL     1       2.291   1.966  17.813  0.00  0.00    +0.000 C 
ATOM     10  C   UNL     1       2.506   2.910  18.983  0.00  0.00    +0.000 C 
ATOM     11  C   UNL     1       1.461   4.001  19.066  0.00  0.00    +0.000 C 
ATOM     12  C   UNL     1       1.481   4.365  20.541  0.00  0.00    +0.000 C 
ATOM     13  C   UNL     1       1.801   3.006  21.155  0.00  0.00    +0.000 C 
ATOM     14  O   UNL     1       1.595   2.659  22.304  0.00  0.00    +0.000 OA
ATOM     15  O   UNL     1       2.385   2.194  20.214  0.00  0.00    +0.000 OA
ENDBRANCH   7  12
ENDBRANCH   1   7
BRANCH   5  16
ATOM     16  C   UNL     1       5.156   6.676  16.700  0.00  0.00    +0.000 C 
BRANCH  16  17
ATOM     17  O   UNL     1       6.266   6.065  17.355  0.00  0.00    +0.000 OA
BRANCH  17  18
ATOM     18  C   UNL     1       6.594   4.805  16.766  0.00  0.00    +0.000 C 
BRANCH  18  19
ATOM     19  C   UNL     1       5.552   4.478  15.699  0.00  0.00    +0.000 C 
BRANCH  19  20
ATOM     20  C   UNL     1       6.151   4.390  14.317  0.00  0.00    +0.000 A 
ATOM     21  C   UNL     1       5.618   3.510  13.367  0.00  0.00    +0.000 A 
ATOM     22  C   UNL     1       6.174   3.429  12.088  0.00  0.00    +0.000 A 
ATOM     23  C   UNL     1       7.269   4.223  11.751  0.00  0.00    +0.000 A 
ATOM     24  C   UNL     1       7.812   5.094  12.693  0.00  0.00    +0.000 A 
ATOM     25  C   UNL     1       7.258   5.177  13.974  0.00  0.00    +0.000 A 
ENDBRANCH  19  20
ENDBRANCH  18  19
ENDBRANCH  17  18
ENDBRANCH  16  17
ENDBRANCH   5  16
TORSDOF 7
ENDMDL
MODEL 4
REMARK VINA RESULT:      -6.8      3.171      5.719
REMARK  Name = 
REMARK  8 active torsions:
REMARK  status: ('A' for Active; 'I' for Inactive)
REMARK    1  A    between atoms: C_1  and  C_2
REMARK    2  A    between atoms: C_4  and  N_5
REMARK    3  A    between atoms: N_5  and  C_6
REMARK    4  A    between atoms: C_10  and  C_11
REMARK    5  A    between atoms: C_11  and  O_12
REMARK    6  A    between atoms: O_12  and  C_13
REMARK    7  A    between atoms: C_13  and  C_14
REMARK    8  A    between atoms: C_14  and  C_15
REMARK                            x       y       z     vdW  Elec       q    Type
REMARK                         _______ _______ _______ _____ _____    ______ ____
ROOT
ATOM      1  C   UNL     1       3.746   3.405  18.134  0.00  0.00    +0.000 A 
ATOM      2  C   UNL     1       2.830   2.363  17.934  0.00  0.00    +0.000 A 
ATOM      3  C   UNL     1       1.606   2.335  18.610  0.00  0.00    +0.000 A 
ATOM      4  C   UNL     1       1.262   3.374  19.467  0.00  0.00    +0.000 A 
ATOM      5  C   UNL     1       2.133   4.457  19.649  0.00  0.00    +0.000 A 
ATOM      6  C   UNL     1       3.367   4.464  18.966  0.00  0.00    +0.000 A 
ENDROOT
BRANCH   1   7
ATOM      7  N   UNL     1       4.911   3.395  17.355  0.00  0.00    +0.000 N 
ATOM      8  H   UNL     1       5.035   2.457  16.969  0.00  0.00    +0.000 HD
BRANCH   7  12
ATOM      9  C   UNL     1       7.535   7.083  17.338  0.00  0.00    +0.000 C 
ATOM     10  C   UNL     1       6.898   5.710  17.220  0.00  0.00    +0.000 C 
ATOM     11  C   UNL     1       5.395   5.764  17.051  0.00  0.00    +0.000 C 
ATOM     12  C   UNL     1       5.096   4.454  16.342  0.00  0.00    +0.000 C 
ATOM     13  C   UNL     1       6.360   4.301  15.503  0.00  0.00    +0.000 C 
ATOM     14  O   UNL     1       6.493   3.617  14.504  0.00  0.00    +0.000 OA
ATOM     15  O   UNL     1       7.374   5.053  16.044  0.00  0.00    +0.000 OA
ENDBRANCH   7  12
ENDBRANCH   1   7
BRANCH   5  16
ATOM     16  C   UNL     1       1.731   5.614  20.531  0.00  0.00    +0.000 C 
BRANCH  16  17
ATOM     17  O   UNL     1       2.550   6.744  20.234  0.00  0.00    +0.000 OA
BRANCH  17  18
ATOM     18  C   UNL     1       1.799   7.959  20.270  0.00  0.00    +0.000 C 
BRANCH  18  19
ATOM     19  C   UNL     1       0.743   7.850  21.368  0.00  0.00    +0.000 C 
BRANCH  19  20
ATOM     20  C   UNL     1       0.045   9.162  21.628  0.00  0.00    +0.000 A 
ATOM     21  C   UNL     1      -0.435   9.469  22.907  0.00  0.00    +0.000 A 
ATOM     22  C   UNL     1      -1.082  10.685  23.146  0.00  0.00    +0.000 A 
ATOM     23  C   UNL     1      -1.257  11.598  22.108  0.00  0.00    +0.000 A 
ATOM     24  C   UNL     1      -0.791  11.296  20.830  0.00  0.00    +0.000 A 
ATOM     25  C   UNL     1      -0.144  10.081  20.589  0.00  0.00    +0.000 A 
ENDBRANCH  19  20
ENDBRANCH  18  19
ENDBRANCH  17  18
ENDBRANCH  16  17
ENDBRANCH   5  16
TORSDOF 7
ENDMDL
MODEL 5
REMARK VINA RESULT:      -6.8      2.466      6.899
REMARK  Name = 
REMARK  8 active torsions:
REMARK  status: ('A' for Active; 'I' for Inactive)
REMARK    1  A    between atoms: C_1  and  C_2
REMARK    2  A    between atoms: C_4  and  N_5
REMARK    3  A    between atoms: N_5  and  C_6
REMARK    4  A    between atoms: C_10  and  C_11
REMARK    5  A    between atoms: C_11  and  O_12
REMARK    6  A    between atoms: O_12  and  C_13
REMARK    7  A    between atoms: C_13  and  C_14
REMARK    8  A    between atoms: C_14  and  C_15
REMARK                            x       y       z     vdW  Elec       q    Type
REMARK                         _______ _______ _______ _____ _____    ______ ____
ROOT
ATOM      1  C   UNL     1       2.581   6.312  19.887  0.00  0.00    +0.000 A 
ATOM      2  C   UNL     1       1.753   7.438  19.788  0.00  0.00    +0.000 A 
ATOM      3  C   UNL     1       1.931   8.383  18.772  0.00  0.00    +0.000 A 
ATOM      4  C   UNL     1       2.919   8.191  17.813  0.00  0.00    +0.000 A 
ATOM      5  C   UNL     1       3.732   7.050  17.854  0.00  0.00    +0.000 A 
ATOM      6  C   UNL     1       3.543   6.113  18.891  0.00  0.00    +0.000 A 
ENDROOT
BRANCH   1   7
ATOM      7  N   UNL     1       2.279   5.378  20.887  0.00  0.00    +0.000 N 
ATOM      8  H   UNL     1       2.060   5.883  21.748  0.00  0.00    +0.000 HD
BRANCH   7  12
ATOM      9  C   UNL     1       2.410   1.937  17.950  0.00  0.00    +0.000 C 
ATOM     10  C   UNL     1       2.497   2.893  19.126  0.00  0.00    +0.000 C 
ATOM     11  C   UNL     1       1.409   3.944  19.120  0.00  0.00    +0.000 C 
ATOM     12  C   UNL     1       1.299   4.313  20.590  0.00  0.00    +0.000 C 
ATOM     13  C   UNL     1       1.621   2.970  21.236  0.00  0.00    +0.000 C 
ATOM     14  O   UNL     1       1.340   2.620  22.368  0.00  0.00    +0.000 OA
ATOM     15  O   UNL     1       2.307   2.177  20.349  0.00  0.00    +0.000 OA
ENDBRANCH   7  12
ENDBRANCH   1   7
BRANCH   5  16
ATOM     16  C   UNL     1       4.762   6.813  16.777  0.00  0.00    +0.000 C 
BRANCH  16  17
ATOM     17  O   UNL     1       6.056   6.719  17.370  0.00  0.00    +0.000 OA
BRANCH  17  18
ATOM     18  C   UNL     1       6.974   6.030  16.518  0.00  0.00    +0.000 C 
BRANCH  18  19
ATOM     19  C   UNL     1       6.312   4.747  16.020  0.00  0.00    +0.000 C 
BRANCH  19  20
ATOM     20  C   UNL     1       6.535   4.519  14.546  0.00  0.00    +0.000 A 
ATOM     21  C   UNL     1       7.561   5.192  13.870  0.00  0.00    +0.000 A 
ATOM     22  C   UNL     1       7.767   4.980  12.505  0.00  0.00    +0.000 A 
ATOM     23  C   UNL     1       6.947   4.097  11.804  0.00  0.00    +0.000 A 
ATOM     24  C   UNL     1       5.918   3.430  12.466  0.00  0.00    +0.000 A 
ATOM     25  C   UNL     1       5.710   3.641  13.831  0.00  0.00    +0.000 A 
ENDBRANCH  19  20
ENDBRANCH  18  19
ENDBRANCH  17  18
ENDBRANCH  16  17
ENDBRANCH   5  16
TORSDOF 7
ENDMDL
MODEL 6
REMARK VINA RESULT:      -6.7      5.203      8.606
REMARK  Name = 
REMARK  8 active torsions:
REMARK  status: ('A' for Active; 'I' for Inactive)
REMARK    1  A    between atoms: C_1  and  C_2
REMARK    2  A    between atoms: C_4  and  N_5
REMARK    3  A    between atoms: N_5  and  C_6
REMARK    4  A    between atoms: C_10  and  C_11
REMARK    5  A    between atoms: C_11  and  O_12
REMARK    6  A    between atoms: O_12  and  C_13
REMARK    7  A    between atoms: C_13  and  C_14
REMARK    8  A    between atoms: C_14  and  C_15
REMARK                            x       y       z     vdW  Elec       q    Type
REMARK                         _______ _______ _______ _____ _____    ______ ____
ROOT
ATOM      1  C   UNL     1       5.530   4.572  17.418  0.00  0.00    +0.000 A 
ATOM      2  C   UNL     1       5.744   4.532  16.033  0.00  0.00    +0.000 A 
ATOM      3  C   UNL     1       6.652   5.398  15.415  0.00  0.00    +0.000 A 
ATOM      4  C   UNL     1       7.390   6.292  16.183  0.00  0.00    +0.000 A 
ATOM      5  C   UNL     1       7.236   6.323  17.575  0.00  0.00    +0.000 A 
ATOM      6  C   UNL     1       6.310   5.448  18.180  0.00  0.00    +0.000 A 
ENDROOT
BRANCH   1   7
ATOM      7  N   UNL     1       4.664   3.614  17.962  0.00  0.00    +0.000 N 
ATOM      8  H   UNL     1       5.018   2.685  17.726  0.00  0.00    +0.000 HD
BRANCH   7  12
ATOM      9  C   UNL     1       0.651   3.210  20.015  0.00  0.00    +0.000 C 
ATOM     10  C   UNL     1       2.017   3.045  19.374  0.00  0.00    +0.000 C 
ATOM     11  C   UNL     1       2.872   4.290  19.468  0.00  0.00    +0.000 C 
ATOM     12  C   UNL     1       4.282   3.729  19.384  0.00  0.00    +0.000 C 
ATOM     13  C   UNL     1       4.087   2.391  20.089  0.00  0.00    +0.000 C 
ATOM     14  O   UNL     1       4.954   1.703  20.598  0.00  0.00    +0.000 OA
ATOM     15  O   UNL     1       2.760   2.040  20.067  0.00  0.00    +0.000 OA
ENDBRANCH   7  12
ENDBRANCH   1   7
BRANCH   5  16
ATOM     16  C   UNL     1       8.083   7.251  18.412  0.00  0.00    +0.000 C 
BRANCH  16  17
ATOM     17  O   UNL     1       8.054   8.560  17.846  0.00  0.00    +0.000 OA
BRANCH  17  18
ATOM     18  C   UNL     1       8.719   9.508  18.684  0.00  0.00    +0.000 C 
BRANCH  18  19
ATOM     19  C   UNL     1       8.923  10.800  17.894  0.00  0.00    +0.000 C 
BRANCH  19  20
ATOM     20  C   UNL     1      10.111  11.591  18.382  0.00  0.00    +0.000 A 
ATOM     21  C   UNL     1      10.558  11.459  19.703  0.00  0.00    +0.000 A 
ATOM     22  C   UNL     1      11.658  12.193  20.154  0.00  0.00    +0.000 A 
ATOM     23  C   UNL     1      12.316  13.067  19.291  0.00  0.00    +0.000 A 
ATOM     24  C   UNL     1      11.872  13.212  17.978  0.00  0.00    +0.000 A 
ATOM     25  C   UNL     1      10.772  12.479  17.524  0.00  0.00    +0.000 A 
ENDBRANCH  19  20
ENDBRANCH  18  19
ENDBRANCH  17  18
ENDBRANCH  16  17
ENDBRANCH   5  16
TORSDOF 7
ENDMDL
MODEL 7
REMARK VINA RESULT:      -6.7      1.487      3.408
REMARK  Name = 
REMARK  8 active torsions:
REMARK  status: ('A' for Active; 'I' for Inactive)
REMARK    1  A    between atoms: C_1  and  C_2
REMARK    2  A    between atoms: C_4  and  N_5
REMARK    3  A    between atoms: N_5  and  C_6
REMARK    4  A    between atoms: C_10  and  C_11
REMARK    5  A    between atoms: C_11  and  O_12
REMARK    6  A    between atoms: O_12  and  C_13
REMARK    7  A    between atoms: C_13  and  C_14
REMARK    8  A    between atoms: C_14  and  C_15
REMARK                            x       y       z     vdW  Elec       q    Type
REMARK                         _______ _______ _______ _____ _____    ______ ____
ROOT
ATOM      1  C   UNL     1       5.700   5.411  16.475  0.00  0.00    +0.000 A 
ATOM      2  C   UNL     1       6.535   6.052  17.400  0.00  0.00    +0.000 A 
ATOM      3  C   UNL     1       6.335   5.908  18.777  0.00  0.00    +0.000 A 
ATOM      4  C   UNL     1       5.319   5.085  19.248  0.00  0.00    +0.000 A 
ATOM      5  C   UNL     1       4.499   4.390  18.350  0.00  0.00    +0.000 A 
ATOM      6  C   UNL     1       4.709   4.554  16.965  0.00  0.00    +0.000 A 
ENDROOT
BRANCH   1   7
ATOM      7  N   UNL     1       6.023   5.546  15.118  0.00  0.00    +0.000 N 
ATOM      8  H   UNL     1       6.232   6.528  14.930  0.00  0.00    +0.000 HD
BRANCH   7  12
ATOM      9  C   UNL     1       5.734   2.601  11.694  0.00  0.00    +0.000 C 
ATOM     10  C   UNL     1       5.910   3.787  12.625  0.00  0.00    +0.000 C 
ATOM     11  C   UNL     1       6.315   3.387  14.027  0.00  0.00    +0.000 C 
ATOM     12  C   UNL     1       7.025   4.632  14.533  0.00  0.00    +0.000 C 
ATOM     13  C   UNL     1       7.650   5.137  13.237  0.00  0.00    +0.000 C 
ATOM     14  O   UNL     1       8.595   5.898  13.133  0.00  0.00    +0.000 OA
ATOM     15  O   UNL     1       6.978   4.615  12.159  0.00  0.00    +0.000 OA
ENDBRANCH   7  12
ENDBRANCH   1   7
BRANCH   5  16
ATOM     16  C   UNL     1       3.437   3.449  18.864  0.00  0.00    +0.000 C 
BRANCH  16  17
ATOM     17  O   UNL     1       2.896   3.962  20.080  0.00  0.00    +0.000 OA
BRANCH  17  18
ATOM     18  C   UNL     1       1.787   4.830  19.836  0.00  0.00    +0.000 C 
BRANCH  18  19
ATOM     19  C   UNL     1       1.987   6.117  20.634  0.00  0.00    +0.000 C 
BRANCH  19  20
ATOM     20  C   UNL     1       1.899   7.350  19.770  0.00  0.00    +0.000 A 
ATOM     21  C   UNL     1       2.490   7.371  18.500  0.00  0.00    +0.000 A 
ATOM     22  C   UNL     1       2.409   8.513  17.700  0.00  0.00    +0.000 A 
ATOM     23  C   UNL     1       1.740   9.645  18.166  0.00  0.00    +0.000 A 
ATOM     24  C   UNL     1       1.158   9.636  19.432  0.00  0.00    +0.000 A 
ATOM     25  C   UNL     1       1.239   8.494  20.233  0.00  0.00    +0.000 A 
ENDBRANCH  19  20
ENDBRANCH  18  19
ENDBRANCH  17  18
ENDBRANCH  16  17
ENDBRANCH   5  16
TORSDOF 7
ENDMDL
MODEL 8
REMARK VINA RESULT:      -6.7      4.124      7.457
REMARK  Name = 
REMARK  8 active torsions:
REMARK  status: ('A' for Active; 'I' for Inactive)
REMARK    1  A    between atoms: C_1  and  C_2
REMARK    2  A    between atoms: C_4  and  N_5
REMARK    3  A    between atoms: N_5  and  C_6
REMARK    4  A    between atoms: C_10  and  C_11
REMARK    5  A    between atoms: C_11  and  O_12
REMARK    6  A    between atoms: O_12  and  C_13
REMARK    7  A    between atoms: C_13  and  C_14
REMARK    8  A    between atoms: C_14  and  C_15
REMARK                            x       y       z     vdW  Elec       q    Type
REMARK                         _______ _______ _______ _____ _____    ______ ____
ROOT
ATOM      1  C   UNL     1       1.645   8.952  18.742  0.00  0.00    +0.000 A 
ATOM      2  C   UNL     1       1.335   8.489  20.029  0.00  0.00    +0.000 A 
ATOM      3  C   UNL     1       1.800   7.251  20.485  0.00  0.00    +0.000 A 
ATOM      4  C   UNL     1       2.619   6.475  19.672  0.00  0.00    +0.000 A 
ATOM      5  C   UNL     1       2.989   6.932  18.400  0.00  0.00    +0.000 A 
ATOM      6  C   UNL     1       2.503   8.178  17.954  0.00  0.00    +0.000 A 
ENDROOT
BRANCH   1   7
ATOM      7  N   UNL     1       1.205  10.236  18.398  0.00  0.00    +0.000 N 
ATOM      8  H   UNL     1       1.034  10.263  17.391  0.00  0.00    +0.000 HD
BRANCH   7  12
ATOM      9  C   UNL     1      -0.218  14.521  18.721  0.00  0.00    +0.000 C 
ATOM     10  C   UNL     1       0.063  13.068  18.380  0.00  0.00    +0.000 C 
ATOM     11  C   UNL     1       0.502  12.251  19.575  0.00  0.00    +0.000 C 
ATOM     12  C   UNL     1       0.103  10.841  19.174  0.00  0.00    +0.000 C 
ATOM     13  C   UNL     1      -1.151  11.132  18.357  0.00  0.00    +0.000 C 
ATOM     14  O   UNL     1      -2.048  10.351  18.095  0.00  0.00    +0.000 OA
ATOM     15  O   UNL     1      -1.135  12.436  17.925  0.00  0.00    +0.000 OA
ENDBRANCH   7  12
ENDBRANCH   1   7
BRANCH   5  16
ATOM     16  C   UNL     1       3.927   6.117  17.545  0.00  0.00    +0.000 C 
BRANCH  16  17
ATOM     17  O   UNL     1       3.319   4.864  17.233  0.00  0.00    +0.000 OA
BRANCH  17  18
ATOM     18  C   UNL     1       4.296   3.834  17.065  0.00  0.00    +0.000 C 
BRANCH  18  19
ATOM     19  C   UNL     1       3.739   2.533  17.640  0.00  0.00    +0.000 C 
BRANCH  19  20
ATOM     20  C   UNL     1       2.892   2.762  18.866  0.00  0.00    +0.000 A 
ATOM     21  C   UNL     1       3.476   2.789  20.138  0.00  0.00    +0.000 A 
ATOM     22  C   UNL     1       2.690   3.001  21.274  0.00  0.00    +0.000 A 
ATOM     23  C   UNL     1       1.314   3.181  21.146  0.00  0.00    +0.000 A 
ATOM     24  C   UNL     1       0.722   3.146  19.885  0.00  0.00    +0.000 A 
ATOM     25  C   UNL     1       1.507   2.934  18.748  0.00  0.00    +0.000 A 
ENDBRANCH  19  20
ENDBRANCH  18  19
ENDBRANCH  17  18
ENDBRANCH  16  17
ENDBRANCH   5  16
TORSDOF 7
ENDMDL
MODEL 9
REMARK VINA RESULT:      -6.7      4.808      8.489
REMARK  Name = 
REMARK  8 active torsions:
REMARK  status: ('A' for Active; 'I' for Inactive)
REMARK    1  A    between atoms: C_1  and  C_2
REMARK    2  A    between atoms: C_4  and  N_5
REMARK    3  A    between atoms: N_5  and  C_6
REMARK    4  A    between atoms: C_10  and  C_11
REMARK    5  A    between atoms: C_11  and  O_12
REMARK    6  A    between atoms: O_12  and  C_13
REMARK    7  A    between atoms: C_13  and  C_14
REMARK    8  A    between atoms: C_14  and  C_15
REMARK                            x       y       z     vdW  Elec       q    Type
REMARK                         _______ _______ _______ _____ _____    ______ ____
ROOT
ATOM      1  C   UNL     1       4.731   5.210  17.679  0.00  0.00    +0.000 A 
ATOM      2  C   UNL     1       5.162   4.246  16.757  0.00  0.00    +0.000 A 
ATOM      3  C   UNL     1       6.465   4.263  16.248  0.00  0.00    +0.000 A 
ATOM      4  C   UNL     1       7.369   5.224  16.686  0.00  0.00    +0.000 A 
ATOM      5  C   UNL     1       6.984   6.171  17.644  0.00  0.00    +0.000 A 
ATOM      6  C   UNL     1       5.664   6.144  18.140  0.00  0.00    +0.000 A 
ENDROOT
BRANCH   1   7
ATOM      7  N   UNL     1       3.437   5.070  18.197  0.00  0.00    +0.000 N 
ATOM      8  H   UNL     1       2.808   5.679  17.671  0.00  0.00    +0.000 HD
BRANCH   7  12
ATOM      9  C   UNL     1       2.050   2.878  21.906  0.00  0.00    +0.000 C 
ATOM     10  C   UNL     1       2.226   3.708  20.648  0.00  0.00    +0.000 C 
ATOM     11  C   UNL     1       3.316   3.186  19.737  0.00  0.00    +0.000 C 
ATOM     12  C   UNL     1       2.888   3.710  18.377  0.00  0.00    +0.000 C 
ATOM     13  C   UNL     1       1.371   3.663  18.529  0.00  0.00    +0.000 C 
ATOM     14  O   UNL     1       0.550   3.647  17.630  0.00  0.00    +0.000 OA
ATOM     15  O   UNL     1       1.035   3.655  19.860  0.00  0.00    +0.000 OA
ENDBRANCH   7  12
ENDBRANCH   1   7
BRANCH   5  16
ATOM     16  C   UNL     1       7.985   7.174  18.164  0.00  0.00    +0.000 C 
BRANCH  16  17
ATOM     17  O   UNL     1       8.061   8.279  17.265  0.00  0.00    +0.000 OA
BRANCH  17  18
ATOM     18  C   UNL     1       7.851   9.521  17.942  0.00  0.00    +0.000 C 
BRANCH  18  19
ATOM     19  C   UNL     1       9.116   9.870  18.724  0.00  0.00    +0.000 C 
BRANCH  19  20
ATOM     20  C   UNL     1       9.731  11.171  18.272  0.00  0.00    +0.000 A 
ATOM     21  C   UNL     1      11.117  11.280  18.101  0.00  0.00    +0.000 A 
ATOM     22  C   UNL     1      11.686  12.486  17.683  0.00  0.00    +0.000 A 
ATOM     23  C   UNL     1      10.875  13.592  17.437  0.00  0.00    +0.000 A 
ATOM     24  C   UNL     1       9.496  13.496  17.613  0.00  0.00    +0.000 A 
ATOM     25  C   UNL     1       8.925  12.291  18.032  0.00  0.00    +0.000 A 
ENDBRANCH  19  20
ENDBRANCH  18  19
ENDBRANCH  17  18
ENDBRANCH  16  17
ENDBRANCH   5  16
TORSDOF 7
ENDMDL
