MODEL 1
REMARK VINA RESULT:      -7.6      0.000      0.000
REMARK  Name = 
REMARK  7 active torsions:
REMARK  status: ('A' for Active; 'I' for Inactive)
REMARK    1  A    between atoms: C_1  and  C_2
REMARK    2  A    between atoms: C_2  and  C_3
REMARK    3  A    between atoms: C_3  and  C_4
REMARK    4  A    between atoms: C_6  and  C_7
REMARK    5  A    between atoms: C_7  and  N_8
REMARK    6  A    between atoms: C_12  and  C_13
REMARK    7  A    between atoms: C_16  and  C_17
REMARK                            x       y       z     vdW  Elec       q    Type
REMARK                         _______ _______ _______ _____ _____    ______ ____
ROOT
ATOM      1  N   UNL     1       4.692   4.604  17.297  0.00  0.00    +0.000 NA
ATOM      2  C   UNL     1       4.216   3.652  18.315  0.00  0.00    +0.000 C 
ATOM      3  C   UNL     1       2.693   3.684  18.434  0.00  0.00    +0.000 C 
ATOM      4  C   UNL     1       2.197   5.076  18.788  0.00  0.00    +0.000 C 
ATOM      5  C   UNL     1       2.729   6.116  17.791  0.00  0.00    +0.000 C 
ATOM      6  C   UNL     1       4.255   5.983  17.628  0.00  0.00    +0.000 C 
ENDROOT
BRANCH   5   7
ATOM      7  C   UNL     1       2.346   7.494  18.225  0.00  0.00    +0.000 A 
ATOM      8  N   UNL     1       2.638   8.586  17.509  0.00  0.00    +0.000 NA
ATOM      9  O   UNL     1       1.990   9.608  18.208  0.00  0.00    +0.000 OA
ATOM     10  C   UNL     1       1.375   9.022  19.281  0.00  0.00    +0.000 A 
ATOM     11  N   UNL     1       1.589   7.726  19.347  0.00  0.00    +0.000 NA
BRANCH  10  12
ATOM     12  C   UNL     1       0.509   9.799  20.263  0.00  0.00    +0.000 C 
ATOM     13  C   UNL     1       1.016   9.975  21.683  0.00  0.00    +0.000 C 
ATOM     14  C   UNL     1       0.990  11.145  20.763  0.00  0.00    +0.000 C 
ENDBRANCH  10  12
ENDBRANCH   5   7
BRANCH   1  15
ATOM     15  C   UNL     1       6.177   4.583  17.181  0.00  0.00    +0.000 C 
BRANCH  15  18
ATOM     16  C   UNL     1       6.857   4.373  13.719  0.00  0.00    +0.000 A 
ATOM     17  N   UNL     1       6.240   3.884  14.770  0.00  0.00    +0.000 NA
ATOM     18  C   UNL     1       6.662   4.730  15.770  0.00  0.00    +0.000 A 
ATOM     19  N   UNL     1       7.545   5.663  15.380  0.00  0.00    +0.000 NA
ATOM     20  O   UNL     1       7.666   5.431  14.005  0.00  0.00    +0.000 OA
BRANCH  16  21
ATOM     21  C   UNL     1       6.747   3.955  12.301  0.00  0.00    +0.000 C 
BRANCH  21  23
ATOM     22  C   UNL     1       4.445   3.312  11.468  0.00  0.00    +0.000 C 
ATOM     23  C   UNL     1       5.713   2.836  12.157  0.00  0.00    +0.000 C 
ENDBRANCH  21  23
ENDBRANCH  16  21
ENDBRANCH  15  18
ENDBRANCH   1  15
TORSDOF 6
ENDMDL
MODEL 2
REMARK VINA RESULT:      -7.5      1.047      1.343
REMARK  Name = 
REMARK  7 active torsions:
REMARK  status: ('A' for Active; 'I' for Inactive)
REMARK    1  A    between atoms: C_1  and  C_2
REMARK    2  A    between atoms: C_2  and  C_3
REMARK    3  A    between atoms: C_3  and  C_4
REMARK    4  A    between atoms: C_6  and  C_7
REMARK    5  A    between atoms: C_7  and  N_8
REMARK    6  A    between atoms: C_12  and  C_13
REMARK    7  A    between atoms: C_16  and  C_17
REMARK                            x       y       z     vdW  Elec       q    Type
REMARK                         _______ _______ _______ _____ _____    ______ ____
ROOT
ATOM      1  N   UNL     1       4.468   4.661  16.973  0.00  0.00    +0.000 NA
ATOM      2  C   UNL     1       3.894   3.382  17.423  0.00  0.00    +0.000 C 
ATOM      3  C   UNL     1       2.367   3.426  17.414  0.00  0.00    +0.000 C 
ATOM      4  C   UNL     1       1.843   4.544  18.300  0.00  0.00    +0.000 C 
ATOM      5  C   UNL     1       2.470   5.891  17.912  0.00  0.00    +0.000 C 
ATOM      6  C   UNL     1       4.005   5.774  17.837  0.00  0.00    +0.000 C 
ENDROOT
BRANCH   5   7
ATOM      7  C   UNL     1       2.051   6.955  18.873  0.00  0.00    +0.000 A 
ATOM      8  N   UNL     1       2.250   6.858  20.193  0.00  0.00    +0.000 NA
ATOM      9  O   UNL     1       1.833   8.103  20.670  0.00  0.00    +0.000 OA
ATOM     10  C   UNL     1       1.418   8.823  19.583  0.00  0.00    +0.000 A 
ATOM     11  N   UNL     1       1.509   8.147  18.459  0.00  0.00    +0.000 NA
BRANCH  10  12
ATOM     12  C   UNL     1       0.940  10.265  19.679  0.00  0.00    +0.000 C 
ATOM     13  C   UNL     1       1.521  11.279  18.712  0.00  0.00    +0.000 C 
ATOM     14  C   UNL     1       0.107  10.840  18.553  0.00  0.00    +0.000 C 
ENDBRANCH  10  12
ENDBRANCH   5   7
BRANCH   1  15
ATOM     15  C   UNL     1       5.957   4.626  16.986  0.00  0.00    +0.000 C 
BRANCH  15  18
ATOM     16  C   UNL     1       6.871   4.361  13.581  0.00  0.00    +0.000 A 
ATOM     17  N   UNL     1       6.121   3.942  14.575  0.00  0.00    +0.000 NA
ATOM     18  C   UNL     1       6.563   4.724  15.618  0.00  0.00    +0.000 A 
ATOM     19  N   UNL     1       7.578   5.547  15.311  0.00  0.00    +0.000 NA
ATOM     20  O   UNL     1       7.776   5.313  13.945  0.00  0.00    +0.000 OA
BRANCH  16  21
ATOM     21  C   UNL     1       6.821   3.970  12.152  0.00  0.00    +0.000 C 
BRANCH  21  23
ATOM     22  C   UNL     1       4.468   3.310  11.492  0.00  0.00    +0.000 C 
ATOM     23  C   UNL     1       5.830   2.820  11.953  0.00  0.00    +0.000 C 
ENDBRANCH  21  23
ENDBRANCH  16  21
ENDBRANCH  15  18
ENDBRANCH   1  15
TORSDOF 6
ENDMDL
MODEL 3
REMARK VINA RESULT:      -7.3      0.975      1.174
REMARK  Name = 
REMARK  7 active torsions:
REMARK  status: ('A' for Active; 'I' for Inactive)
REMARK    1  A    between atoms: C_1  and  C_2
REMARK    2  A    between atoms: C_2  and  C_3
REMARK    3  A    between atoms: C_3  and  C_4
REMARK    4  A    between atoms: C_6  and  C_7
REMARK    5  A    between atoms: C_7  and  N_8
REMARK    6  A    between atoms: C_12  and  C_13
REMARK    7  A    between atoms: C_16  and  C_17
REMARK                            x       y       z     vdW  Elec       q    Type
REMARK                         _______ _______ _______ _____ _____    ______ ____
ROOT
ATOM      1  N   UNL     1       4.862   5.469  17.309  0.00  0.00    +0.000 NA
ATOM      2  C   UNL     1       4.853   4.672  18.548  0.00  0.00    +0.000 C 
ATOM      3  C   UNL     1       3.429   4.464  19.063  0.00  0.00    +0.000 C 
ATOM      4  C   UNL     1       2.738   5.793  19.323  0.00  0.00    +0.000 C 
ATOM      5  C   UNL     1       2.786   6.688  18.077  0.00  0.00    +0.000 C 
ATOM      6  C   UNL     1       4.225   6.790  17.534  0.00  0.00    +0.000 C 
ENDROOT
BRANCH   5   7
ATOM      7  C   UNL     1       2.224   8.037  18.386  0.00  0.00    +0.000 A 
ATOM      8  N   UNL     1       2.116   9.005  17.467  0.00  0.00    +0.000 NA
ATOM      9  O   UNL     1       1.435  10.017  18.148  0.00  0.00    +0.000 OA
ATOM     10  C   UNL     1       1.205   9.553  19.415  0.00  0.00    +0.000 A 
ATOM     11  N   UNL     1       1.696   8.349  19.615  0.00  0.00    +0.000 NA
BRANCH  10  12
ATOM     12  C   UNL     1       0.428  10.345  20.457  0.00  0.00    +0.000 C 
ATOM     13  C   UNL     1       0.704  11.832  20.580  0.00  0.00    +0.000 C 
ATOM     14  C   UNL     1      -0.586  11.372  19.996  0.00  0.00    +0.000 C 
ENDBRANCH  10  12
ENDBRANCH   5   7
BRANCH   1  15
ATOM     15  C   UNL     1       6.248   5.680  16.806  0.00  0.00    +0.000 C 
BRANCH  15  18
ATOM     16  C   UNL     1       6.107   4.075  13.660  0.00  0.00    +0.000 A 
ATOM     17  N   UNL     1       5.573   4.265  14.845  0.00  0.00    +0.000 NA
ATOM     18  C   UNL     1       6.465   5.137  15.426  0.00  0.00    +0.000 A 
ATOM     19  N   UNL     1       7.534   5.432  14.670  0.00  0.00    +0.000 NA
ATOM     20  O   UNL     1       7.289   4.731  13.484  0.00  0.00    +0.000 OA
BRANCH  16  21
ATOM     21  C   UNL     1       5.574   3.298  12.515  0.00  0.00    +0.000 C 
BRANCH  21  23
ATOM     22  C   UNL     1       6.448   1.370  11.128  0.00  0.00    +0.000 C 
ATOM     23  C   UNL     1       6.724   2.768  11.655  0.00  0.00    +0.000 C 
ENDBRANCH  21  23
ENDBRANCH  16  21
ENDBRANCH  15  18
ENDBRANCH   1  15
TORSDOF 6
ENDMDL
MODEL 4
REMARK VINA RESULT:      -7.2      1.295      1.626
REMARK  Name = 
REMARK  7 active torsions:
REMARK  status: ('A' for Active; 'I' for Inactive)
REMARK    1  A    between atoms: C_1  and  C_2
REMARK    2  A    between atoms: C_2  and  C_3
REMARK    3  A    between atoms: C_3  and  C_4
REMARK    4  A    between atoms: C_6  and  C_7
REMARK    5  A    between atoms: C_7  and  N_8
REMARK    6  A    between atoms: C_12  and  C_13
REMARK    7  A    between atoms: C_16  and  C_17
REMARK                            x       y       z     vdW  Elec       q    Type
REMARK                         _______ _______ _______ _____ _____    ______ ____
ROOT
ATOM      1  N   UNL     1       4.728   4.447  18.508  0.00  0.00    +0.000 NA
ATOM      2  C   UNL     1       4.351   3.459  19.534  0.00  0.00    +0.000 C 
ATOM      3  C   UNL     1       2.833   3.319  19.637  0.00  0.00    +0.000 C 
ATOM      4  C   UNL     1       2.178   4.651  19.966  0.00  0.00    +0.000 C 
ATOM      5  C   UNL     1       2.600   5.732  18.961  0.00  0.00    +0.000 C 
ATOM      6  C   UNL     1       4.134   5.771  18.815  0.00  0.00    +0.000 C 
ENDROOT
BRANCH   5   7
ATOM      7  C   UNL     1       2.057   7.062  19.372  0.00  0.00    +0.000 A 
ATOM      8  N   UNL     1       1.780   7.369  20.645  0.00  0.00    +0.000 NA
ATOM      9  O   UNL     1       1.432   8.720  20.578  0.00  0.00    +0.000 OA
ATOM     10  C   UNL     1       1.533   9.088  19.264  0.00  0.00    +0.000 A 
ATOM     11  N   UNL     1       1.889   8.093  18.481  0.00  0.00    +0.000 NA
BRANCH  10  12
ATOM     12  C   UNL     1       1.291  10.512  18.783  0.00  0.00    +0.000 C 
ATOM     13  C   UNL     1      -0.141  11.008  18.702  0.00  0.00    +0.000 C 
ATOM     14  C   UNL     1       0.760  11.539  19.762  0.00  0.00    +0.000 C 
ENDBRANCH  10  12
ENDBRANCH   5   7
BRANCH   1  15
ATOM     15  C   UNL     1       6.207   4.593  18.408  0.00  0.00    +0.000 C 
BRANCH  15  18
ATOM     16  C   UNL     1       6.906   4.667  14.943  0.00  0.00    +0.000 A 
ATOM     17  N   UNL     1       6.328   4.062  15.956  0.00  0.00    +0.000 NA
ATOM     18  C   UNL     1       6.681   4.871  17.013  0.00  0.00    +0.000 A 
ATOM     19  N   UNL     1       7.487   5.895  16.691  0.00  0.00    +0.000 NA
ATOM     20  O   UNL     1       7.628   5.766  15.305  0.00  0.00    +0.000 OA
BRANCH  16  21
ATOM     21  C   UNL     1       6.831   4.337  13.500  0.00  0.00    +0.000 C 
BRANCH  21  23
ATOM     22  C   UNL     1       5.488   2.977  11.841  0.00  0.00    +0.000 C 
ATOM     23  C   UNL     1       5.473   3.714  13.169  0.00  0.00    +0.000 C 
ENDBRANCH  21  23
ENDBRANCH  16  21
ENDBRANCH  15  18
ENDBRANCH   1  15
TORSDOF 6
ENDMDL
MODEL 5
REMARK VINA RESULT:      -7.1      0.934      1.068
REMARK  Name = 
REMARK  7 active torsions:
REMARK  status: ('A' for Active; 'I' for Inactive)
REMARK    1  A    between atoms: C_1  and  C_2
REMARK    2  A    between atoms: C_2  and  C_3
REMARK    3  A    between atoms: C_3  and  C_4
REMARK    4  A    between atoms: C_6  and  C_7
REMARK    5  A    between atoms: C_7  and  N_8
REMARK    6  A    between atoms: C_12  and  C_13
REMARK    7  A    between atoms: C_16  and  C_17
REMARK                            x       y       z     vdW  Elec       q    Type
REMARK                         _______ _______ _______ _____ _____    ______ ____
ROOT
ATOM      1  N   UNL     1       4.563   4.477  18.362  0.00  0.00    +0.000 NA
ATOM      2  C   UNL     1       4.077   3.652  19.481  0.00  0.00    +0.000 C 
ATOM      3  C   UNL     1       2.550   3.669  19.560  0.00  0.00    +0.000 C 
ATOM      4  C   UNL     1       2.023   5.086  19.722  0.00  0.00    +0.000 C 
ATOM      5  C   UNL     1       2.563   6.001  18.615  0.00  0.00    +0.000 C 
ATOM      6  C   UNL     1       4.096   5.878  18.505  0.00  0.00    +0.000 C 
ENDROOT
BRANCH   5   7
ATOM      7  C   UNL     1       2.147   7.415  18.861  0.00  0.00    +0.000 A 
ATOM      8  N   UNL     1       2.048   8.322  17.882  0.00  0.00    +0.000 NA
ATOM      9  O   UNL     1       1.515   9.437  18.534  0.00  0.00    +0.000 OA
ATOM     10  C   UNL     1       1.350   9.085  19.846  0.00  0.00    +0.000 A 
ATOM     11  N   UNL     1       1.751   7.858  20.099  0.00  0.00    +0.000 NA
BRANCH  10  12
ATOM     12  C   UNL     1       0.733  10.015  20.881  0.00  0.00    +0.000 C 
ATOM     13  C   UNL     1       0.982  11.506  20.744  0.00  0.00    +0.000 C 
ATOM     14  C   UNL     1      -0.373  10.959  20.454  0.00  0.00    +0.000 C 
ENDBRANCH  10  12
ENDBRANCH   5   7
BRANCH   1  15
ATOM     15  C   UNL     1       6.050   4.470  18.285  0.00  0.00    +0.000 C 
BRANCH  15  18
ATOM     16  C   UNL     1       6.765   4.780  14.837  0.00  0.00    +0.000 A 
ATOM     17  N   UNL     1       6.081   4.189  15.789  0.00  0.00    +0.000 NA
ATOM     18  C   UNL     1       6.573   4.802  16.920  0.00  0.00    +0.000 A 
ATOM     19  N   UNL     1       7.557   5.687  16.694  0.00  0.00    +0.000 NA
ATOM     20  O   UNL     1       7.677   5.681  15.300  0.00  0.00    +0.000 OA
BRANCH  16  21
ATOM     21  C   UNL     1       6.636   4.625  13.368  0.00  0.00    +0.000 C 
BRANCH  21  23
ATOM     22  C   UNL     1       5.193   3.248  11.809  0.00  0.00    +0.000 C 
ATOM     23  C   UNL     1       6.098   3.232  13.029  0.00  0.00    +0.000 C 
ENDBRANCH  21  23
ENDBRANCH  16  21
ENDBRANCH  15  18
ENDBRANCH   1  15
TORSDOF 6
ENDMDL
MODEL 6
REMARK VINA RESULT:      -7.1      2.838      7.952
REMARK  Name = 
REMARK  7 active torsions:
REMARK  status: ('A' for Active; 'I' for Inactive)
REMARK    1  A    between atoms: C_1  and  C_2
REMARK    2  A    between atoms: C_2  and  C_3
REMARK    3  A    between atoms: C_3  and  C_4
REMARK    4  A    between atoms: C_6  and  C_7
REMARK    5  A    between atoms: C_7  and  N_8
REMARK    6  A    between atoms: C_12  and  C_13
REMARK    7  A    between atoms: C_16  and  C_17
REMARK                            x       y       z     vdW  Elec       q    Type
REMARK                         _______ _______ _______ _____ _____    ______ ____
ROOT
ATOM      1  N   UNL     1       5.245   6.358  17.598  0.00  0.00    +0.000 NA
ATOM      2  C   UNL     1       5.550   5.167  18.409  0.00  0.00    +0.000 C 
ATOM      3  C   UNL     1       6.994   4.711  18.202  0.00  0.00    +0.000 C 
ATOM      4  C   UNL     1       7.270   4.401  16.739  0.00  0.00    +0.000 C 
ATOM      5  C   UNL     1       6.897   5.594  15.847  0.00  0.00    +0.000 C 
ATOM      6  C   UNL     1       5.469   6.082  16.158  0.00  0.00    +0.000 C 
ENDROOT
BRANCH   5   7
ATOM      7  C   UNL     1       7.046   5.229  14.406  0.00  0.00    +0.000 A 
ATOM      8  N   UNL     1       8.123   5.560  13.683  0.00  0.00    +0.000 NA
ATOM      9  O   UNL     1       7.897   4.917  12.463  0.00  0.00    +0.000 OA
ATOM     10  C   UNL     1       6.699   4.267  12.576  0.00  0.00    +0.000 A 
ATOM     11  N   UNL     1       6.126   4.452  13.746  0.00  0.00    +0.000 NA
BRANCH  10  12
ATOM     12  C   UNL     1       6.123   3.395  11.469  0.00  0.00    +0.000 C 
ATOM     13  C   UNL     1       5.831   1.939  11.781  0.00  0.00    +0.000 C 
ATOM     14  C   UNL     1       4.700   2.890  11.595  0.00  0.00    +0.000 C 
ENDBRANCH  10  12
ENDBRANCH   5   7
BRANCH   1  15
ATOM     15  C   UNL     1       3.836   6.803  17.791  0.00  0.00    +0.000 C 
BRANCH  15  18
ATOM     16  C   UNL     1       1.695   4.591  19.528  0.00  0.00    +0.000 A 
ATOM     17  N   UNL     1       2.464   5.655  19.554  0.00  0.00    +0.000 NA
ATOM     18  C   UNL     1       2.928   5.705  18.259  0.00  0.00    +0.000 A 
ATOM     19  N   UNL     1       2.521   4.693  17.477  0.00  0.00    +0.000 NA
ATOM     20  O   UNL     1       1.686   3.954  18.323  0.00  0.00    +0.000 OA
BRANCH  16  21
ATOM     21  C   UNL     1       0.829   4.045  20.601  0.00  0.00    +0.000 C 
BRANCH  21  23
ATOM     22  C   UNL     1       2.731   2.655  21.527  0.00  0.00    +0.000 C 
ATOM     23  C   UNL     1       1.304   2.648  21.004  0.00  0.00    +0.000 C 
ENDBRANCH  21  23
ENDBRANCH  16  21
ENDBRANCH  15  18
ENDBRANCH   1  15
TORSDOF 6
ENDMDL
MODEL 7
REMARK VINA RESULT:      -7.1      1.254      8.473
REMARK  Name = 
REMARK  7 active torsions:
REMARK  status: ('A' for Active; 'I' for Inactive)
REMARK    1  A    between atoms: C_1  and  C_2
REMARK    2  A    between atoms: C_2  and  C_3
REMARK    3  A    between atoms: C_3  and  C_4
REMARK    4  A    between atoms: C_6  and  C_7
REMARK    5  A    between atoms: C_7  and  N_8
REMARK    6  A    between atoms: C_12  and  C_13
REMARK    7  A    between atoms: C_16  and  C_17
REMARK                            x       y       z     vdW  Elec       q    Type
REMARK                         _______ _______ _______ _____ _____    ______ ____
ROOT
ATOM      1  N   UNL     1       4.726   6.062  18.479  0.00  0.00    +0.000 NA
ATOM      2  C   UNL     1       5.683   5.365  19.355  0.00  0.00    +0.000 C 
ATOM      3  C   UNL     1       7.120   5.563  18.873  0.00  0.00    +0.000 C 
ATOM      4  C   UNL     1       7.297   5.064  17.448  0.00  0.00    +0.000 C 
ATOM      5  C   UNL     1       6.269   5.712  16.510  0.00  0.00    +0.000 C 
ATOM      6  C   UNL     1       4.846   5.576  17.083  0.00  0.00    +0.000 C 
ENDROOT
BRANCH   5   7
ATOM      7  C   UNL     1       6.366   5.116  15.143  0.00  0.00    +0.000 A 
ATOM      8  N   UNL     1       7.410   5.329  14.332  0.00  0.00    +0.000 NA
ATOM      9  O   UNL     1       7.144   4.493  13.245  0.00  0.00    +0.000 OA
ATOM     10  C   UNL     1       5.959   3.863  13.513  0.00  0.00    +0.000 A 
ATOM     11  N   UNL     1       5.431   4.235  14.658  0.00  0.00    +0.000 NA
BRANCH  10  12
ATOM     12  C   UNL     1       5.351   2.817  12.589  0.00  0.00    +0.000 C 
ATOM     13  C   UNL     1       4.521   3.295  11.413  0.00  0.00    +0.000 C 
ATOM     14  C   UNL     1       5.865   2.702  11.169  0.00  0.00    +0.000 C 
ENDBRANCH  10  12
ENDBRANCH   5   7
BRANCH   1  15
ATOM     15  C   UNL     1       3.323   5.867  18.940  0.00  0.00    +0.000 C 
BRANCH  15  18
ATOM     16  C   UNL     1       1.372   8.647  19.921  0.00  0.00    +0.000 A 
ATOM     17  N   UNL     1       1.839   7.453  20.202  0.00  0.00    +0.000 NA
ATOM     18  C   UNL     1       2.559   7.151  19.068  0.00  0.00    +0.000 A 
ATOM     19  N   UNL     1       2.498   8.081  18.102  0.00  0.00    +0.000 NA
ATOM     20  O   UNL     1       1.714   9.087  18.677  0.00  0.00    +0.000 OA
BRANCH  16  21
ATOM     21  C   UNL     1       0.585   9.562  20.781  0.00  0.00    +0.000 C 
BRANCH  21  23
ATOM     22  C   UNL     1      -0.368   9.856  23.108  0.00  0.00    +0.000 C 
ATOM     23  C   UNL     1       0.291   8.899  22.129  0.00  0.00    +0.000 C 
ENDBRANCH  21  23
ENDBRANCH  16  21
ENDBRANCH  15  18
ENDBRANCH   1  15
TORSDOF 6
ENDMDL
MODEL 8
REMARK VINA RESULT:      -7.1      2.884      4.121
REMARK  Name = 
REMARK  7 active torsions:
REMARK  status: ('A' for Active; 'I' for Inactive)
REMARK    1  A    between atoms: C_1  and  C_2
REMARK    2  A    between atoms: C_2  and  C_3
REMARK    3  A    between atoms: C_3  and  C_4
REMARK    4  A    between atoms: C_6  and  C_7
REMARK    5  A    between atoms: C_7  and  N_8
REMARK    6  A    between atoms: C_12  and  C_13
REMARK    7  A    between atoms: C_16  and  C_17
REMARK                            x       y       z     vdW  Elec       q    Type
REMARK                         _______ _______ _______ _____ _____    ______ ____
ROOT
ATOM      1  N   UNL     1       4.249   4.629  18.182  0.00  0.00    +0.000 NA
ATOM      2  C   UNL     1       4.166   4.278  19.610  0.00  0.00    +0.000 C 
ATOM      3  C   UNL     1       2.765   4.538  20.164  0.00  0.00    +0.000 C 
ATOM      4  C   UNL     1       2.363   5.993  19.986  0.00  0.00    +0.000 C 
ATOM      5  C   UNL     1       2.503   6.424  18.519  0.00  0.00    +0.000 C 
ATOM      6  C   UNL     1       3.896   6.054  17.973  0.00  0.00    +0.000 C 
ENDROOT
BRANCH   5   7
ATOM      7  C   UNL     1       2.235   7.887  18.381  0.00  0.00    +0.000 A 
ATOM      8  N   UNL     1       2.589   8.590  17.298  0.00  0.00    +0.000 NA
ATOM      9  O   UNL     1       2.037   9.850  17.541  0.00  0.00    +0.000 OA
ATOM     10  C   UNL     1       1.408   9.777  18.755  0.00  0.00    +0.000 A 
ATOM     11  N   UNL     1       1.526   8.596  19.321  0.00  0.00    +0.000 NA
BRANCH  10  12
ATOM     12  C   UNL     1       0.628  10.939  19.353  0.00  0.00    +0.000 C 
ATOM     13  C   UNL     1      -0.762  11.224  18.813  0.00  0.00    +0.000 C 
ATOM     14  C   UNL     1      -0.609  10.648  20.178  0.00  0.00    +0.000 C 
ENDBRANCH  10  12
ENDBRANCH   5   7
BRANCH   1  15
ATOM     15  C   UNL     1       5.614   4.385  17.639  0.00  0.00    +0.000 C 
BRANCH  15  18
ATOM     16  C   UNL     1       7.585   7.312  17.849  0.00  0.00    +0.000 A 
ATOM     17  N   UNL     1       6.663   6.627  17.213  0.00  0.00    +0.000 NA
ATOM     18  C   UNL     1       6.586   5.478  17.967  0.00  0.00    +0.000 A 
ATOM     19  N   UNL     1       7.456   5.418  18.988  0.00  0.00    +0.000 NA
ATOM     20  O   UNL     1       8.116   6.650  18.916  0.00  0.00    +0.000 OA
BRANCH  16  21
ATOM     21  C   UNL     1       8.067   8.688  17.584  0.00  0.00    +0.000 C 
BRANCH  21  23
ATOM     22  C   UNL     1       9.245  10.678  18.615  0.00  0.00    +0.000 C 
ATOM     23  C   UNL     1       8.792   9.241  18.814  0.00  0.00    +0.000 C 
ENDBRANCH  21  23
ENDBRANCH  16  21
ENDBRANCH  15  18
ENDBRANCH   1  15
TORSDOF 6
ENDMDL
MODEL 9
REMARK VINA RESULT:      -7.1      1.553      8.083
REMARK  Name = 
REMARK  7 active torsions:
REMARK  status: ('A' for Active; 'I' for Inactive)
REMARK    1  A    between atoms: C_1  and  C_2
REMARK    2  A    between atoms: C_2  and  C_3
REMARK    3  A    between atoms: C_3  and  C_4
REMARK    4  A    between atoms: C_6  and  C_7
REMARK    5  A    between atoms: C_7  and  N_8
REMARK    6  A    between atoms: C_12  and  C_13
REMARK    7  A    between atoms: C_16  and  C_17
REMARK                            x       y       z     vdW  Elec       q    Type
REMARK                         _______ _______ _______ _____ _____    ______ ____
ROOT
ATOM      1  N   UNL     1       4.631   6.005  18.471  0.00  0.00    +0.000 NA
ATOM      2  C   UNL     1       5.566   5.294  19.361  0.00  0.00    +0.000 C 
ATOM      3  C   UNL     1       7.015   5.502  18.922  0.00  0.00    +0.000 C 
ATOM      4  C   UNL     1       7.231   5.027  17.494  0.00  0.00    +0.000 C 
ATOM      5  C   UNL     1       6.229   5.690  16.539  0.00  0.00    +0.000 C 
ATOM      6  C   UNL     1       4.790   5.542  17.071  0.00  0.00    +0.000 C 
ENDROOT
BRANCH   5   7
ATOM      7  C   UNL     1       6.364   5.117  15.166  0.00  0.00    +0.000 A 
ATOM      8  N   UNL     1       7.412   5.374  14.373  0.00  0.00    +0.000 NA
ATOM      9  O   UNL     1       7.188   4.546  13.271  0.00  0.00    +0.000 OA
ATOM     10  C   UNL     1       6.020   3.875  13.513  0.00  0.00    +0.000 A 
ATOM     11  N   UNL     1       5.464   4.214  14.655  0.00  0.00    +0.000 NA
BRANCH  10  12
ATOM     12  C   UNL     1       5.459   2.824  12.565  0.00  0.00    +0.000 C 
ATOM     13  C   UNL     1       4.512   3.278  11.470  0.00  0.00    +0.000 C 
ATOM     14  C   UNL     1       5.889   2.839  11.113  0.00  0.00    +0.000 C 
ENDBRANCH  10  12
ENDBRANCH   5   7
BRANCH   1  15
ATOM     15  C   UNL     1       3.217   5.801  18.890  0.00  0.00    +0.000 C 
BRANCH  15  18
ATOM     16  C   UNL     1       1.603   8.942  18.735  0.00  0.00    +0.000 A 
ATOM     17  N   UNL     1       2.316   8.019  18.131  0.00  0.00    +0.000 NA
ATOM     18  C   UNL     1       2.479   7.084  19.128  0.00  0.00    +0.000 A 
ATOM     19  N   UNL     1       1.950   7.429  20.313  0.00  0.00    +0.000 NA
ATOM     20  O   UNL     1       1.353   8.667  20.046  0.00  0.00    +0.000 OA
BRANCH  16  21
ATOM     21  C   UNL     1       1.019  10.181  18.169  0.00  0.00    +0.000 C 
BRANCH  21  23
ATOM     22  C   UNL     1      -1.422   9.982  17.527  0.00  0.00    +0.000 C 
ATOM     23  C   UNL     1      -0.434  10.338  18.625  0.00  0.00    +0.000 C 
ENDBRANCH  21  23
ENDBRANCH  16  21
ENDBRANCH  15  18
ENDBRANCH   1  15
TORSDOF 6
ENDMDL
