MODEL 1
REMARK VINA RESULT:      -7.3      0.000      0.000
REMARK  Name = 
REMARK  7 active torsions:
REMARK  status: ('A' for Active; 'I' for Inactive)
REMARK    1  A    between atoms: C_1  and  N_2
REMARK    2  A    between atoms: C_3  and  C_5
REMARK    3  A    between atoms: C_8  and  O_9
REMARK    4  A    between atoms: O_9  and  C_10
REMARK    5  A    between atoms: C_13  and  C_14
REMARK    6  A    between atoms: C_14  and  O_15
REMARK    7  A    between atoms: O_15  and  C_16
REMARK                            x       y       z     vdW  Elec       q    Type
REMARK                         _______ _______ _______ _____ _____    ______ ____
ROOT
ATOM      1  C   UNL     1       2.124   6.259  19.740  0.00  0.00    +0.000 A 
ATOM      2  C   UNL     1       2.974   5.845  18.730  0.00  0.00    +0.000 A 
ATOM      3  C   UNL     1       3.045   4.412  18.588  0.00  0.00    +0.000 A 
ATOM      4  C   UNL     1       3.793   3.592  17.712  0.00  0.00    +0.000 A 
ATOM      5  C   UNL     1       3.678   2.215  17.892  0.00  0.00    +0.000 A 
ATOM      6  N   UNL     1       2.843   1.617  18.766  0.00  0.00    +0.000 NA
ATOM      7  C   UNL     1       2.087   2.394  19.568  0.00  0.00    +0.000 A 
ATOM      8  C   UNL     1       2.199   3.784  19.506  0.00  0.00    +0.000 A 
ATOM      9  S   UNL     1       1.371   4.922  20.488  0.00  0.00    +0.000 S 
ENDROOT
BRANCH   1  12
ATOM     10  C   UNL     1       1.346   9.077  22.103  0.00  0.00    +0.000 C 
ATOM     11  N   UNL     1       1.652   7.799  21.520  0.00  0.00    +0.000 N 
ATOM     12  C   UNL     1       1.853   7.630  20.163  0.00  0.00    +0.000 C 
ATOM     13  O   UNL     1       1.809   8.575  19.382  0.00  0.00    +0.000 OA
ATOM     14  H   UNL     1       1.684   6.981  22.112  0.00  0.00    +0.000 HD
ENDBRANCH   1  12
BRANCH   4  15
ATOM     15  O   UNL     1       4.642   4.172  16.790  0.00  0.00    +0.000 OA
BRANCH  15  16
ATOM     16  C   UNL     1       5.600   5.056  17.232  0.00  0.00    +0.000 A 
ATOM     17  C   UNL     1       6.616   4.715  18.131  0.00  0.00    +0.000 A 
ATOM     18  C   UNL     1       7.532   5.678  18.552  0.00  0.00    +0.000 A 
ATOM     19  C   UNL     1       7.490   6.980  18.034  0.00  0.00    +0.000 A 
ATOM     20  C   UNL     1       6.502   7.303  17.093  0.00  0.00    +0.000 A 
ATOM     21  C   UNL     1       5.561   6.344  16.696  0.00  0.00    +0.000 A 
BRANCH  19  22
ATOM     22  C   UNL     1       8.509   7.995  18.486  0.00  0.00    +0.000 C 
BRANCH  22  23
ATOM     23  O   UNL     1       8.267   9.212  17.784  0.00  0.00    +0.000 OA
ATOM     24  C   UNL     1       8.941  10.310  18.379  0.00  0.00    +0.000 C 
ENDBRANCH  22  23
ENDBRANCH  19  22
ENDBRANCH  15  16
ENDBRANCH   4  15
TORSDOF 5
ENDMDL
MODEL 2
REMARK VINA RESULT:      -7.3      3.009      6.716
REMARK  Name = 
REMARK  7 active torsions:
REMARK  status: ('A' for Active; 'I' for Inactive)
REMARK    1  A    between atoms: C_1  and  N_2
REMARK    2  A    between atoms: C_3  and  C_5
REMARK    3  A    between atoms: C_8  and  O_9
REMARK    4  A    between atoms: O_9  and  C_10
REMARK    5  A    between atoms: C_13  and  C_14
REMARK    6  A    between atoms: C_14  and  O_15
REMARK    7  A    between atoms: O_15  and  C_16
REMARK                            x       y       z     vdW  Elec       q    Type
REMARK                         _______ _______ _______ _____ _____    ______ ____
ROOT
ATOM      1  C   UNL     1       4.444   5.053  16.978  0.00  0.00    +0.000 A 
ATOM      2  C   UNL     1       4.009   5.981  17.907  0.00  0.00    +0.000 A 
ATOM      3  C   UNL     1       3.031   5.460  18.829  0.00  0.00    +0.000 A 
ATOM      4  C   UNL     1       2.330   6.068  19.895  0.00  0.00    +0.000 A 
ATOM      5  C   UNL     1       1.385   5.282  20.553  0.00  0.00    +0.000 A 
ATOM      6  N   UNL     1       1.165   3.974  20.309  0.00  0.00    +0.000 NA
ATOM      7  C   UNL     1       1.869   3.375  19.329  0.00  0.00    +0.000 A 
ATOM      8  C   UNL     1       2.780   4.111  18.569  0.00  0.00    +0.000 A 
ATOM      9  S   UNL     1       3.711   3.534  17.248  0.00  0.00    +0.000 S 
ENDROOT
BRANCH   1  12
ATOM     10  C   UNL     1       6.438   4.242  13.897  0.00  0.00    +0.000 C 
ATOM     11  N   UNL     1       5.524   4.212  15.005  0.00  0.00    +0.000 N 
ATOM     12  C   UNL     1       5.399   5.264  15.894  0.00  0.00    +0.000 C 
ATOM     13  O   UNL     1       6.047   6.298  15.764  0.00  0.00    +0.000 OA
ATOM     14  H   UNL     1       4.976   3.380  15.173  0.00  0.00    +0.000 HD
ENDBRANCH   1  12
BRANCH   4  15
ATOM     15  O   UNL     1       2.547   7.400  20.186  0.00  0.00    +0.000 OA
BRANCH  15  16
ATOM     16  C   UNL     1       1.660   8.339  19.706  0.00  0.00    +0.000 A 
ATOM     17  C   UNL     1       1.606   8.744  18.369  0.00  0.00    +0.000 A 
ATOM     18  C   UNL     1       0.696   9.722  17.970  0.00  0.00    +0.000 A 
ATOM     19  C   UNL     1      -0.219  10.264  18.884  0.00  0.00    +0.000 A 
ATOM     20  C   UNL     1      -0.196   9.816  20.211  0.00  0.00    +0.000 A 
ATOM     21  C   UNL     1       0.741   8.858  20.620  0.00  0.00    +0.000 A 
BRANCH  19  22
ATOM     22  C   UNL     1      -1.209  11.301  18.419  0.00  0.00    +0.000 C 
BRANCH  22  23
ATOM     23  O   UNL     1      -1.895  10.783  17.281  0.00  0.00    +0.000 OA
ATOM     24  C   UNL     1      -2.984   9.953  17.650  0.00  0.00    +0.000 C 
ENDBRANCH  22  23
ENDBRANCH  19  22
ENDBRANCH  15  16
ENDBRANCH   4  15
TORSDOF 5
ENDMDL
MODEL 3
REMARK VINA RESULT:      -7.2      2.995      6.586
REMARK  Name = 
REMARK  7 active torsions:
REMARK  status: ('A' for Active; 'I' for Inactive)
REMARK    1  A    between atoms: C_1  and  N_2
REMARK    2  A    between atoms: C_3  and  C_5
REMARK    3  A    between atoms: C_8  and  O_9
REMARK    4  A    between atoms: O_9  and  C_10
REMARK    5  A    between atoms: C_13  and  C_14
REMARK    6  A    between atoms: C_14  and  O_15
REMARK    7  A    between atoms: O_15  and  C_16
REMARK                            x       y       z     vdW  Elec       q    Type
REMARK                         _______ _______ _______ _____ _____    ______ ____
ROOT
ATOM      1  C   UNL     1       4.716   4.274  17.397  0.00  0.00    +0.000 A 
ATOM      2  C   UNL     1       4.284   5.326  18.184  0.00  0.00    +0.000 A 
ATOM      3  C   UNL     1       3.145   5.001  19.007  0.00  0.00    +0.000 A 
ATOM      4  C   UNL     1       2.396   5.777  19.921  0.00  0.00    +0.000 A 
ATOM      5  C   UNL     1       1.291   5.162  20.508  0.00  0.00    +0.000 A 
ATOM      6  N   UNL     1       0.949   3.868  20.340  0.00  0.00    +0.000 NA
ATOM      7  C   UNL     1       1.692   3.108  19.510  0.00  0.00    +0.000 A 
ATOM      8  C   UNL     1       2.770   3.668  18.822  0.00  0.00    +0.000 A 
ATOM      9  S   UNL     1       3.780   2.875  17.685  0.00  0.00    +0.000 S 
ENDROOT
BRANCH   1  12
ATOM     10  C   UNL     1       6.387   4.241  14.030  0.00  0.00    +0.000 C 
ATOM     11  N   UNL     1       5.434   4.265  15.106  0.00  0.00    +0.000 N 
ATOM     12  C   UNL     1       5.814   4.280  16.435  0.00  0.00    +0.000 C 
ATOM     13  O   UNL     1       6.995   4.302  16.767  0.00  0.00    +0.000 OA
ATOM     14  H   UNL     1       4.446   4.231  14.894  0.00  0.00    +0.000 HD
ENDBRANCH   1  12
BRANCH   4  15
ATOM     15  O   UNL     1       2.733   7.099  20.133  0.00  0.00    +0.000 OA
BRANCH  15  16
ATOM     16  C   UNL     1       1.840   8.080  19.761  0.00  0.00    +0.000 A 
ATOM     17  C   UNL     1       0.989   8.736  20.656  0.00  0.00    +0.000 A 
ATOM     18  C   UNL     1       0.094   9.698  20.194  0.00  0.00    +0.000 A 
ATOM     19  C   UNL     1       0.077  10.070  18.842  0.00  0.00    +0.000 A 
ATOM     20  C   UNL     1       0.969   9.448  17.958  0.00  0.00    +0.000 A 
ATOM     21  C   UNL     1       1.846   8.457  18.417  0.00  0.00    +0.000 A 
BRANCH  19  22
ATOM     22  C   UNL     1      -0.883  11.134  18.374  0.00  0.00    +0.000 C 
BRANCH  22  23
ATOM     23  O   UNL     1      -1.627  10.610  17.276  0.00  0.00    +0.000 OA
ATOM     24  C   UNL     1      -2.817   9.965  17.700  0.00  0.00    +0.000 C 
ENDBRANCH  22  23
ENDBRANCH  19  22
ENDBRANCH  15  16
ENDBRANCH   4  15
TORSDOF 5
ENDMDL
MODEL 4
REMARK VINA RESULT:      -7.1      3.012      6.546
REMARK  Name = 
REMARK  7 active torsions:
REMARK  status: ('A' for Active; 'I' for Inactive)
REMARK    1  A    between atoms: C_1  and  N_2
REMARK    2  A    between atoms: C_3  and  C_5
REMARK    3  A    between atoms: C_8  and  O_9
REMARK    4  A    between atoms: O_9  and  C_10
REMARK    5  A    between atoms: C_13  and  C_14
REMARK    6  A    between atoms: C_14  and  O_15
REMARK    7  A    between atoms: O_15  and  C_16
REMARK                            x       y       z     vdW  Elec       q    Type
REMARK                         _______ _______ _______ _____ _____    ______ ____
ROOT
ATOM      1  C   UNL     1       4.458   5.092  16.995  0.00  0.00    +0.000 A 
ATOM      2  C   UNL     1       4.016   6.017  17.923  0.00  0.00    +0.000 A 
ATOM      3  C   UNL     1       3.015   5.500  18.822  0.00  0.00    +0.000 A 
ATOM      4  C   UNL     1       2.300   6.107  19.880  0.00  0.00    +0.000 A 
ATOM      5  C   UNL     1       1.334   5.327  20.513  0.00  0.00    +0.000 A 
ATOM      6  N   UNL     1       1.104   4.022  20.255  0.00  0.00    +0.000 NA
ATOM      7  C   UNL     1       1.820   3.424  19.282  0.00  0.00    +0.000 A 
ATOM      8  C   UNL     1       2.754   4.156  18.546  0.00  0.00    +0.000 A 
ATOM      9  S   UNL     1       3.703   3.579  17.238  0.00  0.00    +0.000 S 
ENDROOT
BRANCH   1  12
ATOM     10  C   UNL     1       6.492   4.289  13.938  0.00  0.00    +0.000 C 
ATOM     11  N   UNL     1       5.558   4.260  15.030  0.00  0.00    +0.000 N 
ATOM     12  C   UNL     1       5.435   5.301  15.931  0.00  0.00    +0.000 C 
ATOM     13  O   UNL     1       6.103   6.325  15.827  0.00  0.00    +0.000 OA
ATOM     14  H   UNL     1       4.993   3.435  15.176  0.00  0.00    +0.000 HD
ENDBRANCH   1  12
BRANCH   4  15
ATOM     15  O   UNL     1       2.526   7.434  20.186  0.00  0.00    +0.000 OA
BRANCH  15  16
ATOM     16  C   UNL     1       1.581   8.370  19.828  0.00  0.00    +0.000 A 
ATOM     17  C   UNL     1       0.654   8.918  20.721  0.00  0.00    +0.000 A 
ATOM     18  C   UNL     1      -0.290   9.839  20.272  0.00  0.00    +0.000 A 
ATOM     19  C   UNL     1      -0.285  10.279  18.941  0.00  0.00    +0.000 A 
ATOM     20  C   UNL     1       0.680   9.766  18.063  0.00  0.00    +0.000 A 
ATOM     21  C   UNL     1       1.607   8.815  18.506  0.00  0.00    +0.000 A 
BRANCH  19  22
ATOM     22  C   UNL     1      -1.301  11.297  18.488  0.00  0.00    +0.000 C 
BRANCH  22  23
ATOM     23  O   UNL     1      -1.072  12.505  19.209  0.00  0.00    +0.000 OA
ATOM     24  C   UNL     1      -0.335  13.447  18.445  0.00  0.00    +0.000 C 
ENDBRANCH  22  23
ENDBRANCH  19  22
ENDBRANCH  15  16
ENDBRANCH   4  15
TORSDOF 5
ENDMDL
MODEL 5
REMARK VINA RESULT:      -7.1      2.972      6.575
REMARK  Name = 
REMARK  7 active torsions:
REMARK  status: ('A' for Active; 'I' for Inactive)
REMARK    1  A    between atoms: C_1  and  N_2
REMARK    2  A    between atoms: C_3  and  C_5
REMARK    3  A    between atoms: C_8  and  O_9
REMARK    4  A    between atoms: O_9  and  C_10
REMARK    5  A    between atoms: C_13  and  C_14
REMARK    6  A    between atoms: C_14  and  O_15
REMARK    7  A    between atoms: O_15  and  C_16
REMARK                            x       y       z     vdW  Elec       q    Type
REMARK                         _______ _______ _______ _____ _____    ______ ____
ROOT
ATOM      1  C   UNL     1       4.359   5.076  16.958  0.00  0.00    +0.000 A 
ATOM      2  C   UNL     1       3.936   6.011  17.886  0.00  0.00    +0.000 A 
ATOM      3  C   UNL     1       2.960   5.500  18.817  0.00  0.00    +0.000 A 
ATOM      4  C   UNL     1       2.270   6.116  19.885  0.00  0.00    +0.000 A 
ATOM      5  C   UNL     1       1.324   5.339  20.552  0.00  0.00    +0.000 A 
ATOM      6  N   UNL     1       1.094   4.031  20.314  0.00  0.00    +0.000 NA
ATOM      7  C   UNL     1       1.788   3.424  19.331  0.00  0.00    +0.000 A 
ATOM      8  C   UNL     1       2.699   4.151  18.563  0.00  0.00    +0.000 A 
ATOM      9  S   UNL     1       3.617   3.564  17.238  0.00  0.00    +0.000 S 
ENDROOT
BRANCH   1  12
ATOM     10  C   UNL     1       6.441   4.192  13.956  0.00  0.00    +0.000 C 
ATOM     11  N   UNL     1       5.519   4.176  15.059  0.00  0.00    +0.000 N 
ATOM     12  C   UNL     1       5.307   5.277  15.867  0.00  0.00    +0.000 C 
ATOM     13  O   UNL     1       5.879   6.344  15.665  0.00  0.00    +0.000 OA
ATOM     14  H   UNL     1       5.031   3.319  15.284  0.00  0.00    +0.000 HD
ENDBRANCH   1  12
BRANCH   4  15
ATOM     15  O   UNL     1       2.499   7.448  20.170  0.00  0.00    +0.000 OA
BRANCH  15  16
ATOM     16  C   UNL     1       1.590   8.387  19.733  0.00  0.00    +0.000 A 
ATOM     17  C   UNL     1       1.478   8.797  18.401  0.00  0.00    +0.000 A 
ATOM     18  C   UNL     1       0.551   9.775  18.044  0.00  0.00    +0.000 A 
ATOM     19  C   UNL     1      -0.325  10.311  18.998  0.00  0.00    +0.000 A 
ATOM     20  C   UNL     1      -0.245   9.857  20.322  0.00  0.00    +0.000 A 
ATOM     21  C   UNL     1       0.710   8.900  20.686  0.00  0.00    +0.000 A 
BRANCH  19  22
ATOM     22  C   UNL     1      -1.337  11.348  18.580  0.00  0.00    +0.000 C 
BRANCH  22  23
ATOM     23  O   UNL     1      -0.640  12.557  18.286  0.00  0.00    +0.000 OA
ATOM     24  C   UNL     1      -0.677  13.468  19.373  0.00  0.00    +0.000 C 
ENDBRANCH  22  23
ENDBRANCH  19  22
ENDBRANCH  15  16
ENDBRANCH   4  15
TORSDOF 5
ENDMDL
MODEL 6
REMARK VINA RESULT:      -7.0      3.058      6.548
REMARK  Name = 
REMARK  7 active torsions:
REMARK  status: ('A' for Active; 'I' for Inactive)
REMARK    1  A    between atoms: C_1  and  N_2
REMARK    2  A    between atoms: C_3  and  C_5
REMARK    3  A    between atoms: C_8  and  O_9
REMARK    4  A    between atoms: O_9  and  C_10
REMARK    5  A    between atoms: C_13  and  C_14
REMARK    6  A    between atoms: C_14  and  O_15
REMARK    7  A    between atoms: O_15  and  C_16
REMARK                            x       y       z     vdW  Elec       q    Type
REMARK                         _______ _______ _______ _____ _____    ______ ____
ROOT
ATOM      1  C   UNL     1       5.349   4.990  16.543  0.00  0.00    +0.000 A 
ATOM      2  C   UNL     1       4.786   5.721  17.573  0.00  0.00    +0.000 A 
ATOM      3  C   UNL     1       3.623   5.098  18.155  0.00  0.00    +0.000 A 
ATOM      4  C   UNL     1       2.758   5.511  19.193  0.00  0.00    +0.000 A 
ATOM      5  C   UNL     1       1.666   4.687  19.465  0.00  0.00    +0.000 A 
ATOM      6  N   UNL     1       1.436   3.493  18.881  0.00  0.00    +0.000 NA
ATOM      7  C   UNL     1       2.289   3.069  17.927  0.00  0.00    +0.000 A 
ATOM      8  C   UNL     1       3.365   3.870  17.540  0.00  0.00    +0.000 A 
ATOM      9  S   UNL     1       4.506   3.524  16.307  0.00  0.00    +0.000 S 
ENDROOT
BRANCH   1  12
ATOM     10  C   UNL     1       7.578   5.080  13.517  0.00  0.00    +0.000 C 
ATOM     11  N   UNL     1       6.504   4.844  14.443  0.00  0.00    +0.000 N 
ATOM     12  C   UNL     1       6.505   5.352  15.729  0.00  0.00    +0.000 C 
ATOM     13  O   UNL     1       7.419   6.061  16.140  0.00  0.00    +0.000 OA
ATOM     14  H   UNL     1       5.732   4.253  14.166  0.00  0.00    +0.000 HD
ENDBRANCH   1  12
BRANCH   4  15
ATOM     15  O   UNL     1       2.977   6.717  19.828  0.00  0.00    +0.000 OA
BRANCH  15  16
ATOM     16  C   UNL     1       2.117   7.765  19.580  0.00  0.00    +0.000 A 
ATOM     17  C   UNL     1       1.306   8.351  20.556  0.00  0.00    +0.000 A 
ATOM     18  C   UNL     1       0.441   9.390  20.217  0.00  0.00    +0.000 A 
ATOM     19  C   UNL     1       0.417   9.905  18.913  0.00  0.00    +0.000 A 
ATOM     20  C   UNL     1       1.271   9.349  17.951  0.00  0.00    +0.000 A 
ATOM     21  C   UNL     1       2.115   8.282  18.284  0.00  0.00    +0.000 A 
BRANCH  19  22
ATOM     22  C   UNL     1      -0.509  11.047  18.580  0.00  0.00    +0.000 C 
BRANCH  22  23
ATOM     23  O   UNL     1      -1.849  10.561  18.628  0.00  0.00    +0.000 OA
ATOM     24  C   UNL     1      -2.284  10.080  17.366  0.00  0.00    +0.000 C 
ENDBRANCH  22  23
ENDBRANCH  19  22
ENDBRANCH  15  16
ENDBRANCH   4  15
TORSDOF 5
ENDMDL
MODEL 7
REMARK VINA RESULT:      -6.9      2.554      3.823
REMARK  Name = 
REMARK  7 active torsions:
REMARK  status: ('A' for Active; 'I' for Inactive)
REMARK    1  A    between atoms: C_1  and  N_2
REMARK    2  A    between atoms: C_3  and  C_5
REMARK    3  A    between atoms: C_8  and  O_9
REMARK    4  A    between atoms: O_9  and  C_10
REMARK    5  A    between atoms: C_13  and  C_14
REMARK    6  A    between atoms: C_14  and  O_15
REMARK    7  A    between atoms: O_15  and  C_16
REMARK                            x       y       z     vdW  Elec       q    Type
REMARK                         _______ _______ _______ _____ _____    ______ ____
ROOT
ATOM      1  C   UNL     1       2.306   6.628  19.792  0.00  0.00    +0.000 A 
ATOM      2  C   UNL     1       3.523   6.118  19.381  0.00  0.00    +0.000 A 
ATOM      3  C   UNL     1       3.683   4.712  19.657  0.00  0.00    +0.000 A 
ATOM      4  C   UNL     1       4.760   3.827  19.424  0.00  0.00    +0.000 A 
ATOM      5  C   UNL     1       4.609   2.520  19.886  0.00  0.00    +0.000 A 
ATOM      6  N   UNL     1       3.486   2.025  20.446  0.00  0.00    +0.000 NA
ATOM      7  C   UNL     1       2.436   2.852  20.623  0.00  0.00    +0.000 A 
ATOM      8  C   UNL     1       2.533   4.196  20.259  0.00  0.00    +0.000 A 
ATOM      9  S   UNL     1       1.329   5.401  20.468  0.00  0.00    +0.000 S 
ENDROOT
BRANCH   1  12
ATOM     10  C   UNL     1       1.619   9.955  18.183  0.00  0.00    +0.000 C 
ATOM     11  N   UNL     1       1.996   8.594  18.449  0.00  0.00    +0.000 N 
ATOM     12  C   UNL     1       1.844   8.009  19.692  0.00  0.00    +0.000 C 
ATOM     13  O   UNL     1       1.348   8.620  20.634  0.00  0.00    +0.000 OA
ATOM     14  H   UNL     1       2.426   8.047  17.715  0.00  0.00    +0.000 HD
ENDBRANCH   1  12
BRANCH   4  15
ATOM     15  O   UNL     1       5.916   4.295  18.831  0.00  0.00    +0.000 OA
BRANCH  15  16
ATOM     16  C   UNL     1       6.001   4.305  17.456  0.00  0.00    +0.000 A 
ATOM     17  C   UNL     1       4.917   4.055  16.609  0.00  0.00    +0.000 A 
ATOM     18  C   UNL     1       5.094   4.055  15.227  0.00  0.00    +0.000 A 
ATOM     19  C   UNL     1       6.340   4.368  14.665  0.00  0.00    +0.000 A 
ATOM     20  C   UNL     1       7.410   4.670  15.517  0.00  0.00    +0.000 A 
ATOM     21  C   UNL     1       7.240   4.637  16.907  0.00  0.00    +0.000 A 
BRANCH  19  22
ATOM     22  C   UNL     1       6.496   4.387  13.165  0.00  0.00    +0.000 C 
BRANCH  22  23
ATOM     23  O   UNL     1       6.101   3.114  12.660  0.00  0.00    +0.000 OA
ATOM     24  C   UNL     1       4.976   3.211  11.800  0.00  0.00    +0.000 C 
ENDBRANCH  22  23
ENDBRANCH  19  22
ENDBRANCH  15  16
ENDBRANCH   4  15
TORSDOF 5
ENDMDL
MODEL 8
REMARK VINA RESULT:      -6.9      4.704      7.777
REMARK  Name = 
REMARK  7 active torsions:
REMARK  status: ('A' for Active; 'I' for Inactive)
REMARK    1  A    between atoms: C_1  and  N_2
REMARK    2  A    between atoms: C_3  and  C_5
REMARK    3  A    between atoms: C_8  and  O_9
REMARK    4  A    between atoms: O_9  and  C_10
REMARK    5  A    between atoms: C_13  and  C_14
REMARK    6  A    between atoms: C_14  and  O_15
REMARK    7  A    between atoms: O_15  and  C_16
REMARK                            x       y       z     vdW  Elec       q    Type
REMARK                         _______ _______ _______ _____ _____    ______ ____
ROOT
ATOM      1  C   UNL     1      -2.441  10.988  17.605  0.00  0.00    +0.000 A 
ATOM      2  C   UNL     1      -1.165  10.479  17.765  0.00  0.00    +0.000 A 
ATOM      3  C   UNL     1      -0.555  10.833  19.023  0.00  0.00    +0.000 A 
ATOM      4  C   UNL     1       0.718  10.543  19.563  0.00  0.00    +0.000 A 
ATOM      5  C   UNL     1       1.018  11.110  20.801  0.00  0.00    +0.000 A 
ATOM      6  N   UNL     1       0.156  11.827  21.551  0.00  0.00    +0.000 NA
ATOM      7  C   UNL     1      -1.079  12.062  21.064  0.00  0.00    +0.000 A 
ATOM      8  C   UNL     1      -1.434  11.595  19.797  0.00  0.00    +0.000 A 
ATOM      9  S   UNL     1      -2.928  11.854  18.994  0.00  0.00    +0.000 S 
ENDROOT
BRANCH   1  12
ATOM     10  C   UNL     1      -3.435  10.075  14.097  0.00  0.00    +0.000 C 
ATOM     11  N   UNL     1      -2.727  10.267  15.333  0.00  0.00    +0.000 N 
ATOM     12  C   UNL     1      -3.313  10.844  16.444  0.00  0.00    +0.000 C 
ATOM     13  O   UNL     1      -4.488  11.199  16.441  0.00  0.00    +0.000 OA
ATOM     14  H   UNL     1      -1.751  10.009  15.390  0.00  0.00    +0.000 HD
ENDBRANCH   1  12
BRANCH   4  15
ATOM     15  O   UNL     1       1.617   9.793  18.832  0.00  0.00    +0.000 OA
BRANCH  15  16
ATOM     16  C   UNL     1       1.833   8.480  19.189  0.00  0.00    +0.000 A 
ATOM     17  C   UNL     1       1.505   7.952  20.441  0.00  0.00    +0.000 A 
ATOM     18  C   UNL     1       1.782   6.618  20.733  0.00  0.00    +0.000 A 
ATOM     19  C   UNL     1       2.331   5.771  19.760  0.00  0.00    +0.000 A 
ATOM     20  C   UNL     1       2.609   6.292  18.489  0.00  0.00    +0.000 A 
ATOM     21  C   UNL     1       2.362   7.641  18.206  0.00  0.00    +0.000 A 
BRANCH  19  22
ATOM     22  C   UNL     1       2.597   4.325  20.094  0.00  0.00    +0.000 C 
BRANCH  22  23
ATOM     23  O   UNL     1       2.109   4.076  21.410  0.00  0.00    +0.000 OA
ATOM     24  C   UNL     1       1.597   2.759  21.545  0.00  0.00    +0.000 C 
ENDBRANCH  22  23
ENDBRANCH  19  22
ENDBRANCH  15  16
ENDBRANCH   4  15
TORSDOF 5
ENDMDL
MODEL 9
REMARK VINA RESULT:      -6.9      2.785      6.050
REMARK  Name = 
REMARK  7 active torsions:
REMARK  status: ('A' for Active; 'I' for Inactive)
REMARK    1  A    between atoms: C_1  and  N_2
REMARK    2  A    between atoms: C_3  and  C_5
REMARK    3  A    between atoms: C_8  and  O_9
REMARK    4  A    between atoms: O_9  and  C_10
REMARK    5  A    between atoms: C_13  and  C_14
REMARK    6  A    between atoms: C_14  and  O_15
REMARK    7  A    between atoms: O_15  and  C_16
REMARK                            x       y       z     vdW  Elec       q    Type
REMARK                         _______ _______ _______ _____ _____    ______ ____
ROOT
ATOM      1  C   UNL     1       5.565   5.720  17.318  0.00  0.00    +0.000 A 
ATOM      2  C   UNL     1       4.703   5.978  18.368  0.00  0.00    +0.000 A 
ATOM      3  C   UNL     1       3.549   5.115  18.393  0.00  0.00    +0.000 A 
ATOM      4  C   UNL     1       2.437   5.059  19.264  0.00  0.00    +0.000 A 
ATOM      5  C   UNL     1       1.445   4.129  18.956  0.00  0.00    +0.000 A 
ATOM      6  N   UNL     1       1.515   3.228  17.955  0.00  0.00    +0.000 NA
ATOM      7  C   UNL     1       2.598   3.242  17.152  0.00  0.00    +0.000 A 
ATOM      8  C   UNL     1       3.602   4.193  17.344  0.00  0.00    +0.000 A 
ATOM      9  S   UNL     1       5.011   4.400  16.387  0.00  0.00    +0.000 S 
ENDROOT
BRANCH   1  12
ATOM     10  C   UNL     1       8.205   8.386  17.535  0.00  0.00    +0.000 C 
ATOM     11  N   UNL     1       7.050   7.557  17.745  0.00  0.00    +0.000 N 
ATOM     12  C   UNL     1       6.799   6.427  16.990  0.00  0.00    +0.000 C 
ATOM     13  O   UNL     1       7.572   6.054  16.112  0.00  0.00    +0.000 OA
ATOM     14  H   UNL     1       6.369   7.824  18.443  0.00  0.00    +0.000 HD
ENDBRANCH   1  12
BRANCH   4  15
ATOM     15  O   UNL     1       2.344   5.952  20.313  0.00  0.00    +0.000 OA
BRANCH  15  16
ATOM     16  C   UNL     1       1.854   7.216  20.069  0.00  0.00    +0.000 A 
ATOM     17  C   UNL     1       1.993   7.879  18.846  0.00  0.00    +0.000 A 
ATOM     18  C   UNL     1       1.492   9.170  18.688  0.00  0.00    +0.000 A 
ATOM     19  C   UNL     1       0.787   9.796  19.726  0.00  0.00    +0.000 A 
ATOM     20  C   UNL     1       0.605   9.106  20.932  0.00  0.00    +0.000 A 
ATOM     21  C   UNL     1       1.138   7.822  21.102  0.00  0.00    +0.000 A 
BRANCH  19  22
ATOM     22  C   UNL     1       0.233  11.183  19.520  0.00  0.00    +0.000 C 
BRANCH  22  23
ATOM     23  O   UNL     1      -0.524  11.185  18.312  0.00  0.00    +0.000 OA
ATOM     24  C   UNL     1      -1.888  10.865  18.540  0.00  0.00    +0.000 C 
ENDBRANCH  22  23
ENDBRANCH  19  22
ENDBRANCH  15  16
ENDBRANCH   4  15
TORSDOF 5
ENDMDL
