MODEL 1
REMARK VINA RESULT:      -7.7      0.000      0.000
REMARK  Name = 
REMARK  5 active torsions:
REMARK  status: ('A' for Active; 'I' for Inactive)
REMARK    1  A    between atoms: C_2  and  C_17
REMARK    2  A    between atoms: N_3  and  C_4
REMARK    3  A    between atoms: C_4  and  C_5
REMARK    4  A    between atoms: C_8  and  N_9
REMARK    5  A    between atoms: N_22  and  C_23
REMARK                            x       y       z     vdW  Elec       q    Type
REMARK                         _______ _______ _______ _____ _____    ______ ____
ROOT
ATOM      1  O   UNL     1       2.551   3.893  18.343  0.00  0.00    +0.000 OA
ATOM      2  C   UNL     1       3.507   4.639  18.505  0.00  0.00    +0.000 C 
ATOM      3  N   UNL     1       3.480   5.688  19.398  0.00  0.00    +0.000 N 
ATOM      4  H   UNL     1       4.317   6.203  19.632  0.00  0.00    +0.000 HD
ENDROOT
BRANCH   2   5
ATOM      5  C   UNL     1       4.806   4.479  17.712  0.00  0.00    +0.000 C 
ATOM      6  C   UNL     1       4.496   4.147  16.260  0.00  0.00    +0.000 C 
ATOM      7  C   UNL     1       5.778   3.959  15.478  0.00  0.00    +0.000 C 
ATOM      8  C   UNL     1       6.828   5.048  15.658  0.00  0.00    +0.000 C 
ATOM      9  O   UNL     1       7.677   5.207  14.788  0.00  0.00    +0.000 OA
ATOM     10  N   UNL     1       6.834   5.708  16.891  0.00  0.00    +0.000 N 
ATOM     11  C   UNL     1       5.634   5.766  17.740  0.00  0.00    +0.000 C 
BRANCH  10  12
ATOM     12  C   UNL     1       7.853   6.709  17.172  0.00  0.00    +0.000 C 
ATOM     13  C   UNL     1       7.493   8.136  17.532  0.00  0.00    +0.000 C 
ATOM     14  C   UNL     1       8.090   7.236  18.566  0.00  0.00    +0.000 C 
ENDBRANCH  10  12
ENDBRANCH   2   5
BRANCH   3  15
ATOM     15  C   UNL     1       2.319   5.871  20.245  0.00  0.00    +0.000 C 
BRANCH  15  16
ATOM     16  C   UNL     1       1.777   7.272  20.167  0.00  0.00    +0.000 A 
ATOM     17  C   UNL     1       1.060   7.814  21.235  0.00  0.00    +0.000 A 
ATOM     18  C   UNL     1       0.538   9.106  21.156  0.00  0.00    +0.000 A 
ATOM     19  C   UNL     1       0.690   9.897  20.011  0.00  0.00    +0.000 A 
ATOM     20  C   UNL     1       1.410   9.340  18.945  0.00  0.00    +0.000 A 
ATOM     21  C   UNL     1       1.954   8.050  19.018  0.00  0.00    +0.000 A 
BRANCH  19  22
ATOM     22  N   UNL     1       0.165  11.172  19.936  0.00  0.00    +0.000 N 
ATOM     23  C   UNL     1      -1.221  11.433  19.518  0.00  0.00    +0.000 C 
ATOM     24  C   UNL     1      -1.269  12.226  18.202  0.00  0.00    +0.000 C 
ATOM     25  O   UNL     1      -0.458  13.410  18.264  0.00  0.00    +0.000 OA
ATOM     26  C   UNL     1       0.909  13.058  18.531  0.00  0.00    +0.000 C 
ATOM     27  C   UNL     1       1.059  12.337  19.881  0.00  0.00    +0.000 C 
ENDBRANCH  19  22
ENDBRANCH  15  16
ENDBRANCH   3  15
TORSDOF 5
ENDMDL
MODEL 2
REMARK VINA RESULT:      -7.7      3.294      5.598
REMARK  Name = 
REMARK  5 active torsions:
REMARK  status: ('A' for Active; 'I' for Inactive)
REMARK    1  A    between atoms: C_2  and  C_17
REMARK    2  A    between atoms: N_3  and  C_4
REMARK    3  A    between atoms: C_4  and  C_5
REMARK    4  A    between atoms: C_8  and  N_9
REMARK    5  A    between atoms: N_22  and  C_23
REMARK                            x       y       z     vdW  Elec       q    Type
REMARK                         _______ _______ _______ _____ _____    ______ ____
ROOT
ATOM      1  O   UNL     1       2.605   9.961  17.597  0.00  0.00    +0.000 OA
ATOM      2  C   UNL     1       1.952   9.108  18.182  0.00  0.00    +0.000 C 
ATOM      3  N   UNL     1       0.859   9.421  18.961  0.00  0.00    +0.000 N 
ATOM      4  H   UNL     1       0.242   8.706  19.317  0.00  0.00    +0.000 HD
ENDROOT
BRANCH   2   5
ATOM      5  C   UNL     1       2.308   7.621  18.112  0.00  0.00    +0.000 C 
ATOM      6  C   UNL     1       3.698   7.443  17.521  0.00  0.00    +0.000 C 
ATOM      7  C   UNL     1       4.044   5.973  17.421  0.00  0.00    +0.000 C 
ATOM      8  C   UNL     1       3.790   5.148  18.677  0.00  0.00    +0.000 C 
ATOM      9  O   UNL     1       4.404   4.099  18.835  0.00  0.00    +0.000 OA
ATOM     10  N   UNL     1       2.752   5.583  19.507  0.00  0.00    +0.000 N 
ATOM     11  C   UNL     1       2.297   6.982  19.502  0.00  0.00    +0.000 C 
BRANCH  10  12
ATOM     12  C   UNL     1       2.395   4.809  20.687  0.00  0.00    +0.000 C 
ATOM     13  C   UNL     1       1.169   3.920  20.719  0.00  0.00    +0.000 C 
ATOM     14  C   UNL     1       2.534   3.308  20.729  0.00  0.00    +0.000 C 
ENDBRANCH  10  12
ENDBRANCH   2   5
BRANCH   3  15
ATOM     15  C   UNL     1       0.405  10.795  19.027  0.00  0.00    +0.000 C 
BRANCH  15  16
ATOM     16  C   UNL     1      -1.055  10.926  18.687  0.00  0.00    +0.000 A 
ATOM     17  C   UNL     1      -1.851  11.870  19.338  0.00  0.00    +0.000 A 
ATOM     18  C   UNL     1      -3.211  11.978  19.038  0.00  0.00    +0.000 A 
ATOM     19  C   UNL     1      -3.831  11.143  18.101  0.00  0.00    +0.000 A 
ATOM     20  C   UNL     1      -3.020  10.199  17.456  0.00  0.00    +0.000 A 
ATOM     21  C   UNL     1      -1.651  10.091  17.735  0.00  0.00    +0.000 A 
BRANCH  19  22
ATOM     22  N   UNL     1      -5.178  11.250  17.815  0.00  0.00    +0.000 N 
ATOM     23  C   UNL     1      -5.730  12.346  17.004  0.00  0.00    +0.000 C 
ATOM     24  C   UNL     1      -6.677  13.231  17.829  0.00  0.00    +0.000 C 
ATOM     25  O   UNL     1      -7.682  12.454  18.501  0.00  0.00    +0.000 OA
ATOM     26  C   UNL     1      -7.064  11.506  19.385  0.00  0.00    +0.000 C 
ATOM     27  C   UNL     1      -6.164  10.519  18.622  0.00  0.00    +0.000 C 
ENDBRANCH  19  22
ENDBRANCH  15  16
ENDBRANCH   3  15
TORSDOF 5
ENDMDL
MODEL 3
REMARK VINA RESULT:      -7.6      1.747      2.682
REMARK  Name = 
REMARK  5 active torsions:
REMARK  status: ('A' for Active; 'I' for Inactive)
REMARK    1  A    between atoms: C_2  and  C_17
REMARK    2  A    between atoms: N_3  and  C_4
REMARK    3  A    between atoms: C_4  and  C_5
REMARK    4  A    between atoms: C_8  and  N_9
REMARK    5  A    between atoms: N_22  and  C_23
REMARK                            x       y       z     vdW  Elec       q    Type
REMARK                         _______ _______ _______ _____ _____    ______ ____
ROOT
ATOM      1  O   UNL     1       2.186   5.676  17.996  0.00  0.00    +0.000 OA
ATOM      2  C   UNL     1       3.148   6.021  18.669  0.00  0.00    +0.000 C 
ATOM      3  N   UNL     1       3.010   6.554  19.932  0.00  0.00    +0.000 N 
ATOM      4  H   UNL     1       3.807   6.697  20.535  0.00  0.00    +0.000 HD
ENDROOT
BRANCH   2   5
ATOM      5  C   UNL     1       4.584   5.907  18.154  0.00  0.00    +0.000 C 
ATOM      6  C   UNL     1       5.520   5.526  19.291  0.00  0.00    +0.000 C 
ATOM      7  C   UNL     1       6.946   5.440  18.794  0.00  0.00    +0.000 C 
ATOM      8  C   UNL     1       7.154   4.633  17.518  0.00  0.00    +0.000 C 
ATOM      9  O   UNL     1       8.263   4.165  17.283  0.00  0.00    +0.000 OA
ATOM     10  N   UNL     1       6.082   4.601  16.622  0.00  0.00    +0.000 N 
ATOM     11  C   UNL     1       4.699   4.838  17.065  0.00  0.00    +0.000 C 
BRANCH  10  12
ATOM     12  C   UNL     1       6.224   3.914  15.345  0.00  0.00    +0.000 C 
ATOM     13  C   UNL     1       5.408   4.306  14.132  0.00  0.00    +0.000 C 
ATOM     14  C   UNL     1       6.880   4.570  14.156  0.00  0.00    +0.000 C 
ENDBRANCH  10  12
ENDBRANCH   2   5
BRANCH   3  15
ATOM     15  C   UNL     1       1.693   6.632  20.531  0.00  0.00    +0.000 C 
BRANCH  15  16
ATOM     16  C   UNL     1       1.250   8.053  20.743  0.00  0.00    +0.000 A 
ATOM     17  C   UNL     1       0.783   8.470  21.991  0.00  0.00    +0.000 A 
ATOM     18  C   UNL     1       0.353   9.784  22.184  0.00  0.00    +0.000 A 
ATOM     19  C   UNL     1       0.351  10.723  21.146  0.00  0.00    +0.000 A 
ATOM     20  C   UNL     1       0.820  10.290  19.897  0.00  0.00    +0.000 A 
ATOM     21  C   UNL     1       1.271   8.979  19.694  0.00  0.00    +0.000 A 
BRANCH  19  22
ATOM     22  N   UNL     1      -0.084  12.019  21.342  0.00  0.00    +0.000 N 
ATOM     23  C   UNL     1      -0.836  12.429  22.537  0.00  0.00    +0.000 C 
ATOM     24  C   UNL     1      -2.260  12.882  22.176  0.00  0.00    +0.000 C 
ATOM     25  O   UNL     1      -2.255  13.872  21.135  0.00  0.00    +0.000 OA
ATOM     26  C   UNL     1      -1.635  13.343  19.953  0.00  0.00    +0.000 C 
ATOM     27  C   UNL     1      -0.170  12.948  20.206  0.00  0.00    +0.000 C 
ENDBRANCH  19  22
ENDBRANCH  15  16
ENDBRANCH   3  15
TORSDOF 5
ENDMDL
MODEL 4
REMARK VINA RESULT:      -7.6      1.611      2.657
REMARK  Name = 
REMARK  5 active torsions:
REMARK  status: ('A' for Active; 'I' for Inactive)
REMARK    1  A    between atoms: C_2  and  C_17
REMARK    2  A    between atoms: N_3  and  C_4
REMARK    3  A    between atoms: C_4  and  C_5
REMARK    4  A    between atoms: C_8  and  N_9
REMARK    5  A    between atoms: N_22  and  C_23
REMARK                            x       y       z     vdW  Elec       q    Type
REMARK                         _______ _______ _______ _____ _____    ______ ____
ROOT
ATOM      1  O   UNL     1       2.158   5.346  18.216  0.00  0.00    +0.000 OA
ATOM      2  C   UNL     1       3.108   5.893  18.760  0.00  0.00    +0.000 C 
ATOM      3  N   UNL     1       2.970   6.629  19.917  0.00  0.00    +0.000 N 
ATOM      4  H   UNL     1       3.774   6.950  20.437  0.00  0.00    +0.000 HD
ENDROOT
BRANCH   2   5
ATOM      5  C   UNL     1       4.526   5.821  18.189  0.00  0.00    +0.000 C 
ATOM      6  C   UNL     1       5.518   5.483  19.291  0.00  0.00    +0.000 C 
ATOM      7  C   UNL     1       6.925   5.439  18.738  0.00  0.00    +0.000 C 
ATOM      8  C   UNL     1       7.109   4.626  17.462  0.00  0.00    +0.000 C 
ATOM      9  O   UNL     1       8.223   4.193  17.187  0.00  0.00    +0.000 OA
ATOM     10  N   UNL     1       6.004   4.549  16.610  0.00  0.00    +0.000 N 
ATOM     11  C   UNL     1       4.632   4.745  17.106  0.00  0.00    +0.000 C 
BRANCH  10  12
ATOM     12  C   UNL     1       6.118   3.854  15.335  0.00  0.00    +0.000 C 
ATOM     13  C   UNL     1       5.339   4.294  14.113  0.00  0.00    +0.000 C 
ATOM     14  C   UNL     1       6.824   4.469  14.152  0.00  0.00    +0.000 C 
ENDBRANCH  10  12
ENDBRANCH   2   5
BRANCH   3  15
ATOM     15  C   UNL     1       1.678   6.691  20.570  0.00  0.00    +0.000 C 
BRANCH  15  16
ATOM     16  C   UNL     1       1.199   8.106  20.745  0.00  0.00    +0.000 A 
ATOM     17  C   UNL     1       1.262   9.011  19.684  0.00  0.00    +0.000 A 
ATOM     18  C   UNL     1       0.838  10.331  19.851  0.00  0.00    +0.000 A 
ATOM     19  C   UNL     1       0.357  10.804  21.078  0.00  0.00    +0.000 A 
ATOM     20  C   UNL     1       0.301   9.885  22.136  0.00  0.00    +0.000 A 
ATOM     21  C   UNL     1       0.708   8.554  21.977  0.00  0.00    +0.000 A 
BRANCH  19  22
ATOM     22  N   UNL     1      -0.054  12.112  21.239  0.00  0.00    +0.000 N 
ATOM     23  C   UNL     1      -1.396  12.466  21.727  0.00  0.00    +0.000 C 
ATOM     24  C   UNL     1      -2.204  13.212  20.653  0.00  0.00    +0.000 C 
ATOM     25  O   UNL     1      -1.477  14.330  20.120  0.00  0.00    +0.000 OA
ATOM     26  C   UNL     1      -0.246  13.881  19.529  0.00  0.00    +0.000 C 
ATOM     27  C   UNL     1       0.667  13.201  20.564  0.00  0.00    +0.000 C 
ENDBRANCH  19  22
ENDBRANCH  15  16
ENDBRANCH   3  15
TORSDOF 5
ENDMDL
MODEL 5
REMARK VINA RESULT:      -7.6      1.511      2.421
REMARK  Name = 
REMARK  5 active torsions:
REMARK  status: ('A' for Active; 'I' for Inactive)
REMARK    1  A    between atoms: C_2  and  C_17
REMARK    2  A    between atoms: N_3  and  C_4
REMARK    3  A    between atoms: C_4  and  C_5
REMARK    4  A    between atoms: C_8  and  N_9
REMARK    5  A    between atoms: N_22  and  C_23
REMARK                            x       y       z     vdW  Elec       q    Type
REMARK                         _______ _______ _______ _____ _____    ______ ____
ROOT
ATOM      1  O   UNL     1       2.157   5.558  18.069  0.00  0.00    +0.000 OA
ATOM      2  C   UNL     1       3.121   5.948  18.712  0.00  0.00    +0.000 C 
ATOM      3  N   UNL     1       2.992   6.525  19.956  0.00  0.00    +0.000 N 
ATOM      4  H   UNL     1       3.796   6.708  20.540  0.00  0.00    +0.000 HD
ENDROOT
BRANCH   2   5
ATOM      5  C   UNL     1       4.552   5.844  18.178  0.00  0.00    +0.000 C 
ATOM      6  C   UNL     1       5.510   5.503  19.309  0.00  0.00    +0.000 C 
ATOM      7  C   UNL     1       6.930   5.428  18.793  0.00  0.00    +0.000 C 
ATOM      8  C   UNL     1       7.132   4.596  17.533  0.00  0.00    +0.000 C 
ATOM      9  O   UNL     1       8.244   4.140  17.291  0.00  0.00    +0.000 OA
ATOM     10  N   UNL     1       6.047   4.527  16.653  0.00  0.00    +0.000 N 
ATOM     11  C   UNL     1       4.667   4.754  17.111  0.00  0.00    +0.000 C 
BRANCH  10  12
ATOM     12  C   UNL     1       6.181   3.815  15.390  0.00  0.00    +0.000 C 
ATOM     13  C   UNL     1       5.435   4.247  14.146  0.00  0.00    +0.000 C 
ATOM     14  C   UNL     1       6.920   4.406  14.216  0.00  0.00    +0.000 C 
ENDBRANCH  10  12
ENDBRANCH   2   5
BRANCH   3  15
ATOM     15  C   UNL     1       1.683   6.599  20.573  0.00  0.00    +0.000 C 
BRANCH  15  16
ATOM     16  C   UNL     1       1.138   8.000  20.582  0.00  0.00    +0.000 A 
ATOM     17  C   UNL     1       0.285   8.422  21.602  0.00  0.00    +0.000 A 
ATOM     18  C   UNL     1      -0.238   9.717  21.601  0.00  0.00    +0.000 A 
ATOM     19  C   UNL     1       0.049  10.629  20.579  0.00  0.00    +0.000 A 
ATOM     20  C   UNL     1       0.906  10.193  19.559  0.00  0.00    +0.000 A 
ATOM     21  C   UNL     1       1.451   8.902  19.558  0.00  0.00    +0.000 A 
BRANCH  19  22
ATOM     22  N   UNL     1      -0.478  11.906  20.578  0.00  0.00    +0.000 N 
ATOM     23  C   UNL     1      -1.222  12.454  19.434  0.00  0.00    +0.000 C 
ATOM     24  C   UNL     1      -0.485  13.647  18.806  0.00  0.00    +0.000 C 
ATOM     25  O   UNL     1      -0.137  14.636  19.789  0.00  0.00    +0.000 OA
ATOM     26  C   UNL     1       0.712  14.057  20.793  0.00  0.00    +0.000 C 
ATOM     27  C   UNL     1       0.011  12.907  21.537  0.00  0.00    +0.000 C 
ENDBRANCH  19  22
ENDBRANCH  15  16
ENDBRANCH   3  15
TORSDOF 5
ENDMDL
MODEL 6
REMARK VINA RESULT:      -7.6      3.320      9.671
REMARK  Name = 
REMARK  5 active torsions:
REMARK  status: ('A' for Active; 'I' for Inactive)
REMARK    1  A    between atoms: C_2  and  C_17
REMARK    2  A    between atoms: N_3  and  C_4
REMARK    3  A    between atoms: C_4  and  C_5
REMARK    4  A    between atoms: C_8  and  N_9
REMARK    5  A    between atoms: N_22  and  C_23
REMARK                            x       y       z     vdW  Elec       q    Type
REMARK                         _______ _______ _______ _____ _____    ______ ____
ROOT
ATOM      1  O   UNL     1       0.028  12.491  18.958  0.00  0.00    +0.000 OA
ATOM      2  C   UNL     1      -0.545  11.559  18.410  0.00  0.00    +0.000 C 
ATOM      3  N   UNL     1       0.103  10.389  18.078  0.00  0.00    +0.000 N 
ATOM      4  H   UNL     1      -0.405   9.575  17.764  0.00  0.00    +0.000 HD
ENDROOT
BRANCH   2   5
ATOM      5  C   UNL     1      -2.026  11.625  18.030  0.00  0.00    +0.000 C 
ATOM      6  C   UNL     1      -2.525  10.244  17.630  0.00  0.00    +0.000 C 
ATOM      7  C   UNL     1      -3.982  10.308  17.225  0.00  0.00    +0.000 C 
ATOM      8  C   UNL     1      -4.903  11.050  18.186  0.00  0.00    +0.000 C 
ATOM      9  O   UNL     1      -6.103  10.802  18.172  0.00  0.00    +0.000 OA
ATOM     10  N   UNL     1      -4.323  12.082  18.931  0.00  0.00    +0.000 N 
ATOM     11  C   UNL     1      -2.877  12.118  19.202  0.00  0.00    +0.000 C 
BRANCH  10  12
ATOM     12  C   UNL     1      -5.149  12.890  19.816  0.00  0.00    +0.000 C 
ATOM     13  C   UNL     1      -5.762  12.319  21.078  0.00  0.00    +0.000 C 
ATOM     14  C   UNL     1      -4.666  13.332  21.175  0.00  0.00    +0.000 C 
ENDBRANCH  10  12
ENDBRANCH   2   5
BRANCH   3  15
ATOM     15  C   UNL     1       1.488  10.209  18.465  0.00  0.00    +0.000 C 
BRANCH  15  16
ATOM     16  C   UNL     1       1.791   8.785  18.840  0.00  0.00    +0.000 A 
ATOM     17  C   UNL     1       1.544   8.326  20.135  0.00  0.00    +0.000 A 
ATOM     18  C   UNL     1       1.844   7.009  20.490  0.00  0.00    +0.000 A 
ATOM     19  C   UNL     1       2.416   6.110  19.582  0.00  0.00    +0.000 A 
ATOM     20  C   UNL     1       2.660   6.584  18.286  0.00  0.00    +0.000 A 
ATOM     21  C   UNL     1       2.348   7.898  17.911  0.00  0.00    +0.000 A 
BRANCH  19  22
ATOM     22  N   UNL     1       2.718   4.811  19.942  0.00  0.00    +0.000 N 
ATOM     23  C   UNL     1       3.249   3.828  18.985  0.00  0.00    +0.000 C 
ATOM     24  C   UNL     1       2.265   2.666  18.772  0.00  0.00    +0.000 C 
ATOM     25  O   UNL     1       1.850   2.085  20.019  0.00  0.00    +0.000 OA
ATOM     26  C   UNL     1       1.208   3.077  20.836  0.00  0.00    +0.000 C 
ATOM     27  C   UNL     1       2.159   4.238  21.174  0.00  0.00    +0.000 C 
ENDBRANCH  19  22
ENDBRANCH  15  16
ENDBRANCH   3  15
TORSDOF 5
ENDMDL
MODEL 7
REMARK VINA RESULT:      -7.5      2.822      9.556
REMARK  Name = 
REMARK  5 active torsions:
REMARK  status: ('A' for Active; 'I' for Inactive)
REMARK    1  A    between atoms: C_2  and  C_17
REMARK    2  A    between atoms: N_3  and  C_4
REMARK    3  A    between atoms: C_4  and  C_5
REMARK    4  A    between atoms: C_8  and  N_9
REMARK    5  A    between atoms: N_22  and  C_23
REMARK                            x       y       z     vdW  Elec       q    Type
REMARK                         _______ _______ _______ _____ _____    ______ ____
ROOT
ATOM      1  O   UNL     1       0.760  11.592  18.802  0.00  0.00    +0.000 OA
ATOM      2  C   UNL     1      -0.233  10.901  18.981  0.00  0.00    +0.000 C 
ATOM      3  N   UNL     1      -0.201   9.748  19.736  0.00  0.00    +0.000 N 
ATOM      4  H   UNL     1      -1.049   9.267  20.000  0.00  0.00    +0.000 HD
ENDROOT
BRANCH   2   5
ATOM      5  C   UNL     1      -1.590  11.250  18.366  0.00  0.00    +0.000 C 
ATOM      6  C   UNL     1      -2.207  10.016  17.724  0.00  0.00    +0.000 C 
ATOM      7  C   UNL     1      -3.535  10.361  17.088  0.00  0.00    +0.000 C 
ATOM      8  C   UNL     1      -4.498  11.159  17.959  0.00  0.00    +0.000 C 
ATOM      9  O   UNL     1      -5.698  11.119  17.711  0.00  0.00    +0.000 OA
ATOM     10  N   UNL     1      -3.920  12.005  18.910  0.00  0.00    +0.000 N 
ATOM     11  C   UNL     1      -2.562  11.771  19.426  0.00  0.00    +0.000 C 
BRANCH  10  12
ATOM     12  C   UNL     1      -4.767  12.857  19.732  0.00  0.00    +0.000 C 
ATOM     13  C   UNL     1      -5.477  12.331  20.962  0.00  0.00    +0.000 C 
ATOM     14  C   UNL     1      -4.350  13.303  21.111  0.00  0.00    +0.000 C 
ENDBRANCH  10  12
ENDBRANCH   2   5
BRANCH   3  15
ATOM     15  C   UNL     1       1.022   9.378  20.418  0.00  0.00    +0.000 C 
BRANCH  15  16
ATOM     16  C   UNL     1       1.612   8.107  19.873  0.00  0.00    +0.000 A 
ATOM     17  C   UNL     1       1.529   6.918  20.600  0.00  0.00    +0.000 A 
ATOM     18  C   UNL     1       2.095   5.742  20.105  0.00  0.00    +0.000 A 
ATOM     19  C   UNL     1       2.779   5.707  18.884  0.00  0.00    +0.000 A 
ATOM     20  C   UNL     1       2.857   6.908  18.164  0.00  0.00    +0.000 A 
ATOM     21  C   UNL     1       2.279   8.091  18.642  0.00  0.00    +0.000 A 
BRANCH  19  22
ATOM     22  N   UNL     1       3.343   4.542  18.403  0.00  0.00    +0.000 N 
ATOM     23  C   UNL     1       2.580   3.557  17.622  0.00  0.00    +0.000 C 
ATOM     24  C   UNL     1       2.465   2.218  18.369  0.00  0.00    +0.000 C 
ATOM     25  O   UNL     1       3.747   1.736  18.800  0.00  0.00    +0.000 OA
ATOM     26  C   UNL     1       4.364   2.692  19.678  0.00  0.00    +0.000 C 
ATOM     27  C   UNL     1       4.601   4.040  18.975  0.00  0.00    +0.000 C 
ENDBRANCH  19  22
ENDBRANCH  15  16
ENDBRANCH   3  15
TORSDOF 5
ENDMDL
MODEL 8
REMARK VINA RESULT:      -7.5      1.372      1.907
REMARK  Name = 
REMARK  5 active torsions:
REMARK  status: ('A' for Active; 'I' for Inactive)
REMARK    1  A    between atoms: C_2  and  C_17
REMARK    2  A    between atoms: N_3  and  C_4
REMARK    3  A    between atoms: C_4  and  C_5
REMARK    4  A    between atoms: C_8  and  N_9
REMARK    5  A    between atoms: N_22  and  C_23
REMARK                            x       y       z     vdW  Elec       q    Type
REMARK                         _______ _______ _______ _____ _____    ______ ____
ROOT
ATOM      1  O   UNL     1       1.889   4.353  20.540  0.00  0.00    +0.000 OA
ATOM      2  C   UNL     1       2.689   5.014  19.892  0.00  0.00    +0.000 C 
ATOM      3  N   UNL     1       2.704   6.391  19.926  0.00  0.00    +0.000 N 
ATOM      4  H   UNL     1       3.455   6.921  19.508  0.00  0.00    +0.000 HD
ENDROOT
BRANCH   2   5
ATOM      5  C   UNL     1       3.728   4.364  18.975  0.00  0.00    +0.000 C 
ATOM      6  C   UNL     1       3.186   4.266  17.557  0.00  0.00    +0.000 C 
ATOM      7  C   UNL     1       4.197   3.598  16.652  0.00  0.00    +0.000 C 
ATOM      8  C   UNL     1       5.620   4.136  16.740  0.00  0.00    +0.000 C 
ATOM      9  O   UNL     1       6.381   3.968  15.792  0.00  0.00    +0.000 OA
ATOM     10  N   UNL     1       6.008   4.669  17.972  0.00  0.00    +0.000 N 
ATOM     11  C   UNL     1       5.020   5.183  18.935  0.00  0.00    +0.000 C 
BRANCH  10  12
ATOM     12  C   UNL     1       7.374   5.137  18.163  0.00  0.00    +0.000 C 
ATOM     13  C   UNL     1       7.714   6.611  18.207  0.00  0.00    +0.000 C 
ATOM     14  C   UNL     1       7.822   5.786  19.449  0.00  0.00    +0.000 C 
ENDBRANCH  10  12
ENDBRANCH   2   5
BRANCH   3  15
ATOM     15  C   UNL     1       1.805   7.090  20.822  0.00  0.00    +0.000 C 
BRANCH  15  16
ATOM     16  C   UNL     1       1.411   8.440  20.289  0.00  0.00    +0.000 A 
ATOM     17  C   UNL     1       0.744   9.356  21.105  0.00  0.00    +0.000 A 
ATOM     18  C   UNL     1       0.359  10.601  20.606  0.00  0.00    +0.000 A 
ATOM     19  C   UNL     1       0.603  10.974  19.279  0.00  0.00    +0.000 A 
ATOM     20  C   UNL     1       1.272  10.045  18.470  0.00  0.00    +0.000 A 
ATOM     21  C   UNL     1       1.679   8.798  18.963  0.00  0.00    +0.000 A 
BRANCH  19  22
ATOM     22  N   UNL     1       0.212  12.205  18.789  0.00  0.00    +0.000 N 
ATOM     23  C   UNL     1       1.177  13.247  18.407  0.00  0.00    +0.000 C 
ATOM     24  C   UNL     1       1.048  14.487  19.307  0.00  0.00    +0.000 C 
ATOM     25  O   UNL     1      -0.307  14.959  19.372  0.00  0.00    +0.000 OA
ATOM     26  C   UNL     1      -1.163  13.930  19.894  0.00  0.00    +0.000 C 
ATOM     27  C   UNL     1      -1.163  12.680  18.997  0.00  0.00    +0.000 C 
ENDBRANCH  19  22
ENDBRANCH  15  16
ENDBRANCH   3  15
TORSDOF 5
ENDMDL
MODEL 9
REMARK VINA RESULT:      -7.5      3.057      5.219
REMARK  Name = 
REMARK  5 active torsions:
REMARK  status: ('A' for Active; 'I' for Inactive)
REMARK    1  A    between atoms: C_2  and  C_17
REMARK    2  A    between atoms: N_3  and  C_4
REMARK    3  A    between atoms: C_4  and  C_5
REMARK    4  A    between atoms: C_8  and  N_9
REMARK    5  A    between atoms: N_22  and  C_23
REMARK                            x       y       z     vdW  Elec       q    Type
REMARK                         _______ _______ _______ _____ _____    ______ ____
ROOT
ATOM      1  O   UNL     1       1.905   8.206  20.399  0.00  0.00    +0.000 OA
ATOM      2  C   UNL     1       1.889   8.074  19.183  0.00  0.00    +0.000 C 
ATOM      3  N   UNL     1       1.547   9.104  18.335  0.00  0.00    +0.000 N 
ATOM      4  H   UNL     1       1.679   9.031  17.336  0.00  0.00    +0.000 HD
ENDROOT
BRANCH   2   5
ATOM      5  C   UNL     1       2.230   6.745  18.505  0.00  0.00    +0.000 C 
ATOM      6  C   UNL     1       3.638   6.795  17.932  0.00  0.00    +0.000 C 
ATOM      7  C   UNL     1       3.970   5.495  17.234  0.00  0.00    +0.000 C 
ATOM      8  C   UNL     1       3.662   4.226  18.019  0.00  0.00    +0.000 C 
ATOM      9  O   UNL     1       4.258   3.192  17.739  0.00  0.00    +0.000 OA
ATOM     10  N   UNL     1       2.601   4.299  18.927  0.00  0.00    +0.000 N 
ATOM     11  C   UNL     1       2.162   5.582  19.497  0.00  0.00    +0.000 C 
BRANCH  10  12
ATOM     12  C   UNL     1       2.192   3.111  19.663  0.00  0.00    +0.000 C 
ATOM     13  C   UNL     1       2.659   2.850  21.079  0.00  0.00    +0.000 C 
ATOM     14  C   UNL     1       1.224   3.182  20.817  0.00  0.00    +0.000 C 
ENDBRANCH  10  12
ENDBRANCH   2   5
BRANCH   3  15
ATOM     15  C   UNL     1       1.281  10.418  18.883  0.00  0.00    +0.000 C 
BRANCH  15  16
ATOM     16  C   UNL     1      -0.179  10.774  18.818  0.00  0.00    +0.000 A 
ATOM     17  C   UNL     1      -1.031  10.108  17.935  0.00  0.00    +0.000 A 
ATOM     18  C   UNL     1      -2.382  10.452  17.858  0.00  0.00    +0.000 A 
ATOM     19  C   UNL     1      -2.930  11.477  18.638  0.00  0.00    +0.000 A 
ATOM     20  C   UNL     1      -2.064  12.139  19.519  0.00  0.00    +0.000 A 
ATOM     21  C   UNL     1      -0.709  11.793  19.618  0.00  0.00    +0.000 A 
BRANCH  19  22
ATOM     22  N   UNL     1      -4.266  11.818  18.551  0.00  0.00    +0.000 N 
ATOM     23  C   UNL     1      -4.912  12.734  19.504  0.00  0.00    +0.000 C 
ATOM     24  C   UNL     1      -5.998  12.016  20.322  0.00  0.00    +0.000 C 
ATOM     25  O   UNL     1      -6.928  11.319  19.478  0.00  0.00    +0.000 OA
ATOM     26  C   UNL     1      -6.238  10.340  18.686  0.00  0.00    +0.000 C 
ATOM     27  C   UNL     1      -5.190  10.988  17.765  0.00  0.00    +0.000 C 
ENDBRANCH  19  22
ENDBRANCH  15  16
ENDBRANCH   3  15
TORSDOF 5
ENDMDL
