MODEL 1
REMARK VINA RESULT:      -7.0      0.000      0.000
REMARK  Name = 
REMARK  14 active torsions:
REMARK  status: ('A' for Active; 'I' for Inactive)
REMARK    1  A    between atoms: C_1  and  C_2
REMARK    2  A    between atoms: C_2  and  C_3
REMARK    3  A    between atoms: C_4  and  C_5
REMARK    4  A    between atoms: C_5  and  C_6
REMARK    5  A    between atoms: C_6  and  C_7
REMARK    6  A    between atoms: C_7  and  C_8
REMARK    7  A    between atoms: C_9  and  C_10
REMARK    8  A    between atoms: C_11  and  C_12
REMARK    9  A    between atoms: N_14  and  C_15
REMARK   10  A    between atoms: N_14  and  C_18
REMARK   11  A    between atoms: C_15  and  C_16
REMARK   12  A    between atoms: C_15  and  C_17
REMARK   13  A    between atoms: C_18  and  C_19
REMARK   14  A    between atoms: C_18  and  C_20
REMARK                            x       y       z     vdW  Elec       q    Type
REMARK                         _______ _______ _______ _____ _____    ______ ____
ROOT
ATOM      1  C   UNL     1       4.348   5.000  16.953  0.00  0.00    +0.000 C 
ATOM      2  C   UNL     1       4.650   4.262  18.036  0.00  0.00    +0.000 C 
ENDROOT
BRANCH   1   5
ATOM      3  C   UNL     1       6.363   5.201  15.471  0.00  0.00    +0.000 C 
ATOM      4  C   UNL     1       7.256   5.817  16.517  0.00  0.00    +0.000 C 
ATOM      5  C   UNL     1       5.085   4.848  15.719  0.00  0.00    +0.000 C 
BRANCH   3   6
ATOM      6  C   UNL     1       7.009   4.978  14.105  0.00  0.00    +0.000 C 
BRANCH   6   7
ATOM      7  C   UNL     1       6.573   3.694  13.379  0.00  0.00    +0.000 C 
BRANCH   7  11
ATOM      8  C   UNL     1       3.671   3.152  10.837  0.00  0.00    +0.000 C 
ATOM      9  C   UNL     1       4.952   2.934  11.592  0.00  0.00    +0.000 C 
ATOM     10  C   UNL     1       5.685   1.645  11.339  0.00  0.00    +0.000 C 
ATOM     11  C   UNL     1       5.393   3.866  12.461  0.00  0.00    +0.000 C 
ENDBRANCH   7  11
ENDBRANCH   6   7
ENDBRANCH   3   6
ENDBRANCH   1   5
BRANCH   2  12
ATOM     12  C   UNL     1       3.882   4.480  19.271  0.00  0.00    +0.000 C 
ATOM     13  O   UNL     1       4.056   5.536  19.878  0.00  0.00    +0.000 OA
ATOM     14  N   UNL     1       3.020   3.466  19.704  0.00  0.00    +0.000 N 
BRANCH  14  15
ATOM     15  C   UNL     1       2.683   2.206  18.970  0.00  0.00    +0.000 C 
ATOM     16  C   UNL     1       1.834   2.443  17.720  0.00  0.00    +0.000 C 
ATOM     17  C   UNL     1       3.865   1.282  18.650  0.00  0.00    +0.000 C 
ENDBRANCH  14  15
BRANCH  14  18
ATOM     18  C   UNL     1       2.260   3.809  20.936  0.00  0.00    +0.000 C 
ATOM     19  C   UNL     1       0.977   4.586  20.622  0.00  0.00    +0.000 C 
ATOM     20  C   UNL     1       1.969   2.633  21.867  0.00  0.00    +0.000 C 
ENDBRANCH  14  18
ENDBRANCH   2  12
TORSDOF 7
ENDMDL
MODEL 2
REMARK VINA RESULT:      -6.9      3.576      6.086
REMARK  Name = 
REMARK  14 active torsions:
REMARK  status: ('A' for Active; 'I' for Inactive)
REMARK    1  A    between atoms: C_1  and  C_2
REMARK    2  A    between atoms: C_2  and  C_3
REMARK    3  A    between atoms: C_4  and  C_5
REMARK    4  A    between atoms: C_5  and  C_6
REMARK    5  A    between atoms: C_6  and  C_7
REMARK    6  A    between atoms: C_7  and  C_8
REMARK    7  A    between atoms: C_9  and  C_10
REMARK    8  A    between atoms: C_11  and  C_12
REMARK    9  A    between atoms: N_14  and  C_15
REMARK   10  A    between atoms: N_14  and  C_18
REMARK   11  A    between atoms: C_15  and  C_16
REMARK   12  A    between atoms: C_15  and  C_17
REMARK   13  A    between atoms: C_18  and  C_19
REMARK   14  A    between atoms: C_18  and  C_20
REMARK                            x       y       z     vdW  Elec       q    Type
REMARK                         _______ _______ _______ _____ _____    ______ ____
ROOT
ATOM      1  C   UNL     1       5.494   4.864  17.876  0.00  0.00    +0.000 C 
ATOM      2  C   UNL     1       4.979   4.868  19.117  0.00  0.00    +0.000 C 
ENDROOT
BRANCH   1   5
ATOM      3  C   UNL     1       7.344   6.559  17.911  0.00  0.00    +0.000 C 
ATOM      4  C   UNL     1       8.000   6.037  19.164  0.00  0.00    +0.000 C 
ATOM      5  C   UNL     1       6.242   5.997  17.376  0.00  0.00    +0.000 C 
BRANCH   3   6
ATOM      6  C   UNL     1       8.027   7.764  17.265  0.00  0.00    +0.000 C 
BRANCH   6   7
ATOM      7  C   UNL     1       7.771   9.110  17.962  0.00  0.00    +0.000 C 
BRANCH   7  11
ATOM      8  C   UNL     1      10.434  11.368  19.688  0.00  0.00    +0.000 C 
ATOM      9  C   UNL     1       9.355  10.920  18.743  0.00  0.00    +0.000 C 
ATOM     10  C   UNL     1       8.773  11.961  17.825  0.00  0.00    +0.000 C 
ATOM     11  C   UNL     1       8.939   9.638  18.750  0.00  0.00    +0.000 C 
ENDBRANCH   7  11
ENDBRANCH   6   7
ENDBRANCH   3   6
ENDBRANCH   1   5
BRANCH   2  12
ATOM     12  C   UNL     1       4.205   3.698  19.561  0.00  0.00    +0.000 C 
ATOM     13  O   UNL     1       4.829   2.694  19.906  0.00  0.00    +0.000 OA
ATOM     14  N   UNL     1       2.809   3.778  19.540  0.00  0.00    +0.000 N 
BRANCH  14  15
ATOM     15  C   UNL     1       1.988   4.991  19.233  0.00  0.00    +0.000 C 
ATOM     16  C   UNL     1       2.294   6.177  20.149  0.00  0.00    +0.000 C 
ATOM     17  C   UNL     1       1.977   5.436  17.764  0.00  0.00    +0.000 C 
ENDBRANCH  14  15
BRANCH  14  18
ATOM     18  C   UNL     1       2.129   2.558  20.052  0.00  0.00    +0.000 C 
ATOM     19  C   UNL     1       1.638   2.735  21.493  0.00  0.00    +0.000 C 
ATOM     20  C   UNL     1       1.014   2.014  19.161  0.00  0.00    +0.000 C 
ENDBRANCH  14  18
ENDBRANCH   2  12
TORSDOF 7
ENDMDL
MODEL 3
REMARK VINA RESULT:      -6.8      3.713      5.904
REMARK  Name = 
REMARK  14 active torsions:
REMARK  status: ('A' for Active; 'I' for Inactive)
REMARK    1  A    between atoms: C_1  and  C_2
REMARK    2  A    between atoms: C_2  and  C_3
REMARK    3  A    between atoms: C_4  and  C_5
REMARK    4  A    between atoms: C_5  and  C_6
REMARK    5  A    between atoms: C_6  and  C_7
REMARK    6  A    between atoms: C_7  and  C_8
REMARK    7  A    between atoms: C_9  and  C_10
REMARK    8  A    between atoms: C_11  and  C_12
REMARK    9  A    between atoms: N_14  and  C_15
REMARK   10  A    between atoms: N_14  and  C_18
REMARK   11  A    between atoms: C_15  and  C_16
REMARK   12  A    between atoms: C_15  and  C_17
REMARK   13  A    between atoms: C_18  and  C_19
REMARK   14  A    between atoms: C_18  and  C_20
REMARK                            x       y       z     vdW  Elec       q    Type
REMARK                         _______ _______ _______ _____ _____    ______ ____
ROOT
ATOM      1  C   UNL     1       5.823   4.348  18.233  0.00  0.00    +0.000 C 
ATOM      2  C   UNL     1       5.362   4.240  19.491  0.00  0.00    +0.000 C 
ENDROOT
BRANCH   1   5
ATOM      3  C   UNL     1       6.590   6.578  17.374  0.00  0.00    +0.000 C 
ATOM      4  C   UNL     1       5.207   7.117  17.107  0.00  0.00    +0.000 C 
ATOM      5  C   UNL     1       6.807   5.349  17.884  0.00  0.00    +0.000 C 
BRANCH   3   6
ATOM      6  C   UNL     1       7.740   7.530  17.052  0.00  0.00    +0.000 C 
BRANCH   6   7
ATOM      7  C   UNL     1       8.153   8.468  18.198  0.00  0.00    +0.000 C 
BRANCH   7  11
ATOM      8  C   UNL     1       9.574  12.084  17.935  0.00  0.00    +0.000 C 
ATOM      9  C   UNL     1       9.153  10.767  18.523  0.00  0.00    +0.000 C 
ATOM     10  C   UNL     1       9.516  10.513  19.961  0.00  0.00    +0.000 C 
ATOM     11  C   UNL     1       8.490   9.869  17.767  0.00  0.00    +0.000 C 
ENDBRANCH   7  11
ENDBRANCH   6   7
ENDBRANCH   3   6
ENDBRANCH   1   5
BRANCH   2  12
ATOM     12  C   UNL     1       4.343   3.220  19.781  0.00  0.00    +0.000 C 
ATOM     13  O   UNL     1       4.729   2.093  20.090  0.00  0.00    +0.000 OA
ATOM     14  N   UNL     1       2.995   3.576  19.663  0.00  0.00    +0.000 N 
BRANCH  14  15
ATOM     15  C   UNL     1       2.453   4.945  19.394  0.00  0.00    +0.000 C 
ATOM     16  C   UNL     1       1.821   5.085  18.009  0.00  0.00    +0.000 C 
ATOM     17  C   UNL     1       1.521   5.517  20.471  0.00  0.00    +0.000 C 
ENDBRANCH  14  15
BRANCH  14  18
ATOM     18  C   UNL     1       2.051   2.484  20.025  0.00  0.00    +0.000 C 
ATOM     19  C   UNL     1       1.579   2.590  21.479  0.00  0.00    +0.000 C 
ATOM     20  C   UNL     1       0.864   2.313  19.078  0.00  0.00    +0.000 C 
ENDBRANCH  14  18
ENDBRANCH   2  12
TORSDOF 7
ENDMDL
MODEL 4
REMARK VINA RESULT:      -6.7      5.143      7.770
REMARK  Name = 
REMARK  14 active torsions:
REMARK  status: ('A' for Active; 'I' for Inactive)
REMARK    1  A    between atoms: C_1  and  C_2
REMARK    2  A    between atoms: C_2  and  C_3
REMARK    3  A    between atoms: C_4  and  C_5
REMARK    4  A    between atoms: C_5  and  C_6
REMARK    5  A    between atoms: C_6  and  C_7
REMARK    6  A    between atoms: C_7  and  C_8
REMARK    7  A    between atoms: C_9  and  C_10
REMARK    8  A    between atoms: C_11  and  C_12
REMARK    9  A    between atoms: N_14  and  C_15
REMARK   10  A    between atoms: N_14  and  C_18
REMARK   11  A    between atoms: C_15  and  C_16
REMARK   12  A    between atoms: C_15  and  C_17
REMARK   13  A    between atoms: C_18  and  C_19
REMARK   14  A    between atoms: C_18  and  C_20
REMARK                            x       y       z     vdW  Elec       q    Type
REMARK                         _______ _______ _______ _____ _____    ______ ____
ROOT
ATOM      1  C   UNL     1       2.523   8.248  18.199  0.00  0.00    +0.000 C 
ATOM      2  C   UNL     1       1.592   9.134  17.805  0.00  0.00    +0.000 C 
ENDROOT
BRANCH   1   5
ATOM      3  C   UNL     1       3.315   5.916  17.719  0.00  0.00    +0.000 C 
ATOM      4  C   UNL     1       4.783   6.258  17.705  0.00  0.00    +0.000 C 
ATOM      5  C   UNL     1       2.355   6.833  17.954  0.00  0.00    +0.000 C 
BRANCH   3   6
ATOM      6  C   UNL     1       2.981   4.446  17.473  0.00  0.00    +0.000 C 
BRANCH   6   7
ATOM      7  C   UNL     1       1.593   4.001  17.964  0.00  0.00    +0.000 C 
BRANCH   7  11
ATOM      8  C   UNL     1       1.403   2.631  21.605  0.00  0.00    +0.000 C 
ATOM      9  C   UNL     1       1.530   3.595  20.459  0.00  0.00    +0.000 C 
ATOM     10  C   UNL     1       1.540   5.062  20.796  0.00  0.00    +0.000 C 
ATOM     11  C   UNL     1       1.615   3.136  19.194  0.00  0.00    +0.000 C 
ENDBRANCH   7  11
ENDBRANCH   6   7
ENDBRANCH   3   6
ENDBRANCH   1   5
BRANCH   2  12
ATOM     12  C   UNL     1       1.805  10.558  18.105  0.00  0.00    +0.000 C 
ATOM     13  O   UNL     1       2.725  11.136  17.528  0.00  0.00    +0.000 OA
ATOM     14  N   UNL     1       0.971  11.170  19.048  0.00  0.00    +0.000 N 
BRANCH  14  15
ATOM     15  C   UNL     1      -0.226  10.562  19.710  0.00  0.00    +0.000 C 
ATOM     16  C   UNL     1      -1.326  10.166  18.725  0.00  0.00    +0.000 C 
ATOM     17  C   UNL     1       0.062   9.412  20.685  0.00  0.00    +0.000 C 
ENDBRANCH  14  15
BRANCH  14  18
ATOM     18  C   UNL     1       1.243  12.619  19.240  0.00  0.00    +0.000 C 
ATOM     19  C   UNL     1       0.193  13.498  18.552  0.00  0.00    +0.000 C 
ATOM     20  C   UNL     1       1.450  13.054  20.690  0.00  0.00    +0.000 C 
ENDBRANCH  14  18
ENDBRANCH   2  12
TORSDOF 7
ENDMDL
MODEL 5
REMARK VINA RESULT:      -6.7      6.393      9.446
REMARK  Name = 
REMARK  14 active torsions:
REMARK  status: ('A' for Active; 'I' for Inactive)
REMARK    1  A    between atoms: C_1  and  C_2
REMARK    2  A    between atoms: C_2  and  C_3
REMARK    3  A    between atoms: C_4  and  C_5
REMARK    4  A    between atoms: C_5  and  C_6
REMARK    5  A    between atoms: C_6  and  C_7
REMARK    6  A    between atoms: C_7  and  C_8
REMARK    7  A    between atoms: C_9  and  C_10
REMARK    8  A    between atoms: C_11  and  C_12
REMARK    9  A    between atoms: N_14  and  C_15
REMARK   10  A    between atoms: N_14  and  C_18
REMARK   11  A    between atoms: C_15  and  C_16
REMARK   12  A    between atoms: C_15  and  C_17
REMARK   13  A    between atoms: C_18  and  C_19
REMARK   14  A    between atoms: C_18  and  C_20
REMARK                            x       y       z     vdW  Elec       q    Type
REMARK                         _______ _______ _______ _____ _____    ______ ____
ROOT
ATOM      1  C   UNL     1       8.482   9.584  18.102  0.00  0.00    +0.000 C 
ATOM      2  C   UNL     1       9.168  10.545  18.747  0.00  0.00    +0.000 C 
ENDROOT
BRANCH   1   5
ATOM      3  C   UNL     1       7.763   7.180  18.106  0.00  0.00    +0.000 C 
ATOM      4  C   UNL     1       6.913   7.278  16.865  0.00  0.00    +0.000 C 
ATOM      5  C   UNL     1       8.446   8.229  18.606  0.00  0.00    +0.000 C 
BRANCH   3   6
ATOM      6  C   UNL     1       7.822   5.799  18.755  0.00  0.00    +0.000 C 
BRANCH   6   7
ATOM      7  C   UNL     1       7.228   4.656  17.914  0.00  0.00    +0.000 C 
BRANCH   7  11
ATOM      8  C   UNL     1       3.492   3.564  17.775  0.00  0.00    +0.000 C 
ATOM      9  C   UNL     1       4.846   4.043  17.330  0.00  0.00    +0.000 C 
ATOM     10  C   UNL     1       5.071   4.179  15.848  0.00  0.00    +0.000 C 
ATOM     11  C   UNL     1       5.800   4.318  18.242  0.00  0.00    +0.000 C 
ENDBRANCH   7  11
ENDBRANCH   6   7
ENDBRANCH   3   6
ENDBRANCH   1   5
BRANCH   2  12
ATOM     12  C   UNL     1       9.190  11.899  18.173  0.00  0.00    +0.000 C 
ATOM     13  O   UNL     1       8.388  12.156  17.275  0.00  0.00    +0.000 OA
ATOM     14  N   UNL     1      10.136  12.809  18.655  0.00  0.00    +0.000 N 
BRANCH  14  15
ATOM     15  C   UNL     1      11.068  12.602  19.808  0.00  0.00    +0.000 C 
ATOM     16  C   UNL     1      10.361  12.150  21.085  0.00  0.00    +0.000 C 
ATOM     17  C   UNL     1      12.291  11.717  19.527  0.00  0.00    +0.000 C 
ENDBRANCH  14  15
BRANCH  14  18
ATOM     18  C   UNL     1      10.039  14.160  18.040  0.00  0.00    +0.000 C 
ATOM     19  C   UNL     1       9.808  15.254  19.087  0.00  0.00    +0.000 C 
ATOM     20  C   UNL     1      11.191  14.533  17.108  0.00  0.00    +0.000 C 
ENDBRANCH  14  18
ENDBRANCH   2  12
TORSDOF 7
ENDMDL
MODEL 6
REMARK VINA RESULT:      -6.6      5.898      9.024
REMARK  Name = 
REMARK  14 active torsions:
REMARK  status: ('A' for Active; 'I' for Inactive)
REMARK    1  A    between atoms: C_1  and  C_2
REMARK    2  A    between atoms: C_2  and  C_3
REMARK    3  A    between atoms: C_4  and  C_5
REMARK    4  A    between atoms: C_5  and  C_6
REMARK    5  A    between atoms: C_6  and  C_7
REMARK    6  A    between atoms: C_7  and  C_8
REMARK    7  A    between atoms: C_9  and  C_10
REMARK    8  A    between atoms: C_11  and  C_12
REMARK    9  A    between atoms: N_14  and  C_15
REMARK   10  A    between atoms: N_14  and  C_18
REMARK   11  A    between atoms: C_15  and  C_16
REMARK   12  A    between atoms: C_15  and  C_17
REMARK   13  A    between atoms: C_18  and  C_19
REMARK   14  A    between atoms: C_18  and  C_20
REMARK                            x       y       z     vdW  Elec       q    Type
REMARK                         _______ _______ _______ _____ _____    ______ ____
ROOT
ATOM      1  C   UNL     1       8.341   8.712  18.353  0.00  0.00    +0.000 C 
ATOM      2  C   UNL     1       8.635   9.999  18.097  0.00  0.00    +0.000 C 
ENDROOT
BRANCH   1   5
ATOM      3  C   UNL     1       7.302   6.601  17.479  0.00  0.00    +0.000 C 
ATOM      4  C   UNL     1       7.707   5.741  18.649  0.00  0.00    +0.000 C 
ATOM      5  C   UNL     1       7.599   7.914  17.402  0.00  0.00    +0.000 C 
BRANCH   3   6
ATOM      6  C   UNL     1       6.507   5.891  16.386  0.00  0.00    +0.000 C 
BRANCH   6   7
ATOM      7  C   UNL     1       5.067   5.511  16.769  0.00  0.00    +0.000 C 
BRANCH   7  11
ATOM      8  C   UNL     1       2.449   7.590  18.767  0.00  0.00    +0.000 C 
ATOM      9  C   UNL     1       3.067   6.462  17.990  0.00  0.00    +0.000 C 
ATOM     10  C   UNL     1       2.273   5.189  17.883  0.00  0.00    +0.000 C 
ATOM     11  C   UNL     1       4.287   6.611  17.435  0.00  0.00    +0.000 C 
ENDBRANCH   7  11
ENDBRANCH   6   7
ENDBRANCH   3   6
ENDBRANCH   1   5
BRANCH   2  12
ATOM     12  C   UNL     1       9.369  10.768  19.113  0.00  0.00    +0.000 C 
ATOM     13  O   UNL     1       9.680  10.193  20.157  0.00  0.00    +0.000 OA
ATOM     14  N   UNL     1       9.649  12.114  18.853  0.00  0.00    +0.000 N 
BRANCH  14  15
ATOM     15  C   UNL     1       9.395  12.848  17.574  0.00  0.00    +0.000 C 
ATOM     16  C   UNL     1       8.071  13.612  17.567  0.00  0.00    +0.000 C 
ATOM     17  C   UNL     1      10.538  13.747  17.082  0.00  0.00    +0.000 C 
ENDBRANCH  14  15
BRANCH  14  18
ATOM     18  C   UNL     1      10.435  12.782  19.925  0.00  0.00    +0.000 C 
ATOM     19  C   UNL     1       9.651  12.879  21.238  0.00  0.00    +0.000 C 
ATOM     20  C   UNL     1      11.828  12.201  20.166  0.00  0.00    +0.000 C 
ENDBRANCH  14  18
ENDBRANCH   2  12
TORSDOF 7
ENDMDL
MODEL 7
REMARK VINA RESULT:      -6.6      0.755      1.331
REMARK  Name = 
REMARK  14 active torsions:
REMARK  status: ('A' for Active; 'I' for Inactive)
REMARK    1  A    between atoms: C_1  and  C_2
REMARK    2  A    between atoms: C_2  and  C_3
REMARK    3  A    between atoms: C_4  and  C_5
REMARK    4  A    between atoms: C_5  and  C_6
REMARK    5  A    between atoms: C_6  and  C_7
REMARK    6  A    between atoms: C_7  and  C_8
REMARK    7  A    between atoms: C_9  and  C_10
REMARK    8  A    between atoms: C_11  and  C_12
REMARK    9  A    between atoms: N_14  and  C_15
REMARK   10  A    between atoms: N_14  and  C_18
REMARK   11  A    between atoms: C_15  and  C_16
REMARK   12  A    between atoms: C_15  and  C_17
REMARK   13  A    between atoms: C_18  and  C_19
REMARK   14  A    between atoms: C_18  and  C_20
REMARK                            x       y       z     vdW  Elec       q    Type
REMARK                         _______ _______ _______ _____ _____    ______ ____
ROOT
ATOM      1  C   UNL     1       4.413   5.670  16.881  0.00  0.00    +0.000 C 
ATOM      2  C   UNL     1       4.233   4.621  17.703  0.00  0.00    +0.000 C 
ENDROOT
BRANCH   1   5
ATOM      3  C   UNL     1       6.429   5.080  15.509  0.00  0.00    +0.000 C 
ATOM      4  C   UNL     1       7.262   4.597  16.669  0.00  0.00    +0.000 C 
ATOM      5  C   UNL     1       5.169   5.536  15.656  0.00  0.00    +0.000 C 
BRANCH   3   6
ATOM      6  C   UNL     1       7.100   4.998  14.139  0.00  0.00    +0.000 C 
BRANCH   6   7
ATOM      7  C   UNL     1       6.746   3.751  13.312  0.00  0.00    +0.000 C 
BRANCH   7  11
ATOM      8  C   UNL     1       3.697   3.129  10.969  0.00  0.00    +0.000 C 
ATOM      9  C   UNL     1       5.026   2.940  11.644  0.00  0.00    +0.000 C 
ATOM     10  C   UNL     1       5.759   1.655  11.366  0.00  0.00    +0.000 C 
ATOM     11  C   UNL     1       5.508   3.893  12.468  0.00  0.00    +0.000 C 
ENDBRANCH   7  11
ENDBRANCH   6   7
ENDBRANCH   3   6
ENDBRANCH   1   5
BRANCH   2  12
ATOM     12  C   UNL     1       3.477   4.825  18.948  0.00  0.00    +0.000 C 
ATOM     13  O   UNL     1       3.792   5.776  19.662  0.00  0.00    +0.000 OA
ATOM     14  N   UNL     1       2.465   3.913  19.267  0.00  0.00    +0.000 N 
BRANCH  14  15
ATOM     15  C   UNL     1       1.962   2.799  18.403  0.00  0.00    +0.000 C 
ATOM     16  C   UNL     1       2.943   1.631  18.287  0.00  0.00    +0.000 C 
ATOM     17  C   UNL     1       0.552   2.287  18.728  0.00  0.00    +0.000 C 
ENDBRANCH  14  15
BRANCH  14  18
ATOM     18  C   UNL     1       1.736   4.239  20.521  0.00  0.00    +0.000 C 
ATOM     19  C   UNL     1       2.349   3.545  21.742  0.00  0.00    +0.000 C 
ATOM     20  C   UNL     1       1.538   5.731  20.787  0.00  0.00    +0.000 C 
ENDBRANCH  14  18
ENDBRANCH   2  12
TORSDOF 7
ENDMDL
MODEL 8
REMARK VINA RESULT:      -6.6      1.222      1.597
REMARK  Name = 
REMARK  14 active torsions:
REMARK  status: ('A' for Active; 'I' for Inactive)
REMARK    1  A    between atoms: C_1  and  C_2
REMARK    2  A    between atoms: C_2  and  C_3
REMARK    3  A    between atoms: C_4  and  C_5
REMARK    4  A    between atoms: C_5  and  C_6
REMARK    5  A    between atoms: C_6  and  C_7
REMARK    6  A    between atoms: C_7  and  C_8
REMARK    7  A    between atoms: C_9  and  C_10
REMARK    8  A    between atoms: C_11  and  C_12
REMARK    9  A    between atoms: N_14  and  C_15
REMARK   10  A    between atoms: N_14  and  C_18
REMARK   11  A    between atoms: C_15  and  C_16
REMARK   12  A    between atoms: C_15  and  C_17
REMARK   13  A    between atoms: C_18  and  C_19
REMARK   14  A    between atoms: C_18  and  C_20
REMARK                            x       y       z     vdW  Elec       q    Type
REMARK                         _______ _______ _______ _____ _____    ______ ____
ROOT
ATOM      1  C   UNL     1       4.359   4.564  17.014  0.00  0.00    +0.000 C 
ATOM      2  C   UNL     1       3.248   3.808  17.049  0.00  0.00    +0.000 C 
ENDROOT
BRANCH   1   5
ATOM      3  C   UNL     1       5.842   5.233  15.104  0.00  0.00    +0.000 C 
ATOM      4  C   UNL     1       5.358   6.659  15.032  0.00  0.00    +0.000 C 
ATOM      5  C   UNL     1       5.374   4.349  16.007  0.00  0.00    +0.000 C 
BRANCH   3   6
ATOM      6  C   UNL     1       6.924   4.856  14.093  0.00  0.00    +0.000 C 
BRANCH   6   7
ATOM      7  C   UNL     1       6.594   3.644  13.206  0.00  0.00    +0.000 C 
BRANCH   7  11
ATOM      8  C   UNL     1       3.570   3.099  10.813  0.00  0.00    +0.000 C 
ATOM      9  C   UNL     1       4.885   2.879  11.506  0.00  0.00    +0.000 C 
ATOM     10  C   UNL     1       5.597   1.583  11.229  0.00  0.00    +0.000 C 
ATOM     11  C   UNL     1       5.373   3.816  12.345  0.00  0.00    +0.000 C 
ENDBRANCH   7  11
ENDBRANCH   6   7
ENDBRANCH   3   6
ENDBRANCH   1   5
BRANCH   2  12
ATOM     12  C   UNL     1       2.262   4.056  18.112  0.00  0.00    +0.000 C 
ATOM     13  O   UNL     1       1.381   4.889  17.896  0.00  0.00    +0.000 OA
ATOM     14  N   UNL     1       2.394   3.357  19.316  0.00  0.00    +0.000 N 
BRANCH  14  15
ATOM     15  C   UNL     1       3.370   2.262  19.611  0.00  0.00    +0.000 C 
ATOM     16  C   UNL     1       3.520   1.259  18.466  0.00  0.00    +0.000 C 
ATOM     17  C   UNL     1       4.748   2.714  20.114  0.00  0.00    +0.000 C 
ENDBRANCH  14  15
BRANCH  14  18
ATOM     18  C   UNL     1       1.318   3.649  20.301  0.00  0.00    +0.000 C 
ATOM     19  C   UNL     1       1.284   2.622  21.438  0.00  0.00    +0.000 C 
ATOM     20  C   UNL     1       1.315   5.073  20.856  0.00  0.00    +0.000 C 
ENDBRANCH  14  18
ENDBRANCH   2  12
TORSDOF 7
ENDMDL
MODEL 9
REMARK VINA RESULT:      -6.6      1.266      1.954
REMARK  Name = 
REMARK  14 active torsions:
REMARK  status: ('A' for Active; 'I' for Inactive)
REMARK    1  A    between atoms: C_1  and  C_2
REMARK    2  A    between atoms: C_2  and  C_3
REMARK    3  A    between atoms: C_4  and  C_5
REMARK    4  A    between atoms: C_5  and  C_6
REMARK    5  A    between atoms: C_6  and  C_7
REMARK    6  A    between atoms: C_7  and  C_8
REMARK    7  A    between atoms: C_9  and  C_10
REMARK    8  A    between atoms: C_11  and  C_12
REMARK    9  A    between atoms: N_14  and  C_15
REMARK   10  A    between atoms: N_14  and  C_18
REMARK   11  A    between atoms: C_15  and  C_16
REMARK   12  A    between atoms: C_15  and  C_17
REMARK   13  A    between atoms: C_18  and  C_19
REMARK   14  A    between atoms: C_18  and  C_20
REMARK                            x       y       z     vdW  Elec       q    Type
REMARK                         _______ _______ _______ _____ _____    ______ ____
ROOT
ATOM      1  C   UNL     1       6.672   4.602  17.251  0.00  0.00    +0.000 C 
ATOM      2  C   UNL     1       5.514   5.225  17.529  0.00  0.00    +0.000 C 
ENDROOT
BRANCH   1   5
ATOM      3  C   UNL     1       6.755   4.693  14.744  0.00  0.00    +0.000 C 
ATOM      4  C   UNL     1       5.285   4.434  14.537  0.00  0.00    +0.000 C 
ATOM      5  C   UNL     1       7.317   4.768  15.967  0.00  0.00    +0.000 C 
BRANCH   3   6
ATOM      6  C   UNL     1       7.574   4.890  13.469  0.00  0.00    +0.000 C 
BRANCH   6   7
ATOM      7  C   UNL     1       6.868   4.471  12.169  0.00  0.00    +0.000 C 
BRANCH   7  11
ATOM      8  C   UNL     1       6.011   0.835  11.069  0.00  0.00    +0.000 C 
ATOM      9  C   UNL     1       5.835   2.275  11.459  0.00  0.00    +0.000 C 
ATOM     10  C   UNL     1       4.454   2.857  11.321  0.00  0.00    +0.000 C 
ATOM     11  C   UNL     1       6.889   2.992  11.896  0.00  0.00    +0.000 C 
ENDBRANCH   7  11
ENDBRANCH   6   7
ENDBRANCH   3   6
ENDBRANCH   1   5
BRANCH   2  12
ATOM     12  C   UNL     1       4.891   4.998  18.842  0.00  0.00    +0.000 C 
ATOM     13  O   UNL     1       5.470   5.433  19.837  0.00  0.00    +0.000 OA
ATOM     14  N   UNL     1       3.693   4.277  18.892  0.00  0.00    +0.000 N 
BRANCH  14  15
ATOM     15  C   UNL     1       2.882   3.809  17.724  0.00  0.00    +0.000 C 
ATOM     16  C   UNL     1       2.877   2.289  17.561  0.00  0.00    +0.000 C 
ATOM     17  C   UNL     1       1.454   4.364  17.637  0.00  0.00    +0.000 C 
ENDBRANCH  14  15
BRANCH  14  18
ATOM     18  C   UNL     1       3.127   4.147  20.261  0.00  0.00    +0.000 C 
ATOM     19  C   UNL     1       2.042   5.194  20.538  0.00  0.00    +0.000 C 
ATOM     20  C   UNL     1       2.638   2.747  20.631  0.00  0.00    +0.000 C 
ENDBRANCH  14  18
ENDBRANCH   2  12
TORSDOF 7
ENDMDL
