MODEL 1
REMARK VINA RESULT:      -7.7      0.000      0.000
REMARK  Name = 
REMARK  3 active torsions:
REMARK  status: ('A' for Active; 'I' for Inactive)
REMARK    1  A    between atoms: C_1  and  C_2
REMARK    2  A    between atoms: C_2  and  C_5
REMARK    3  A    between atoms: C_9  and  C_10
REMARK                            x       y       z     vdW  Elec       q    Type
REMARK                         _______ _______ _______ _____ _____    ______ ____
ROOT
ATOM      1  C   UNL     1       4.972   5.270  16.756  0.00  0.00    +0.000 A 
ATOM      2  N   UNL     1       4.583   6.515  16.624  0.00  0.00    +0.000 NA
ATOM      3  N   UNL     1       3.687   6.725  17.618  0.00  0.00    +0.000 N 
ATOM      4  C   UNL     1       2.990   7.827  17.994  0.00  0.00    +0.000 A 
ATOM      5  C   UNL     1       2.319   7.420  19.137  0.00  0.00    +0.000 A 
ATOM      6  N   UNL     1       2.567   6.086  19.436  0.00  0.00    +0.000 NA
ATOM      7  C   UNL     1       3.382   5.731  18.488  0.00  0.00    +0.000 A 
ATOM      8  S   UNL     1       4.237   4.310  18.078  0.00  0.00    +0.000 S 
ENDROOT
BRANCH   5   9
ATOM      9  C   UNL     1       1.468   8.291  19.983  0.00  0.00    +0.000 A 
ATOM     10  C   UNL     1       1.135   8.019  21.294  0.00  0.00    +0.000 A 
ATOM     11  C   UNL     1       0.382   9.122  21.767  0.00  0.00    +0.000 A 
ATOM     12  C   UNL     1      -0.200   9.482  22.993  0.00  0.00    +0.000 A 
ATOM     13  C   UNL     1      -0.916  10.684  23.065  0.00  0.00    +0.000 A 
ATOM     14  C   UNL     1      -1.060  11.498  21.938  0.00  0.00    +0.000 A 
ATOM     15 CL   UNL     1      -1.989  12.945  22.063  0.00  0.00    +0.000 Cl
ATOM     16  C   UNL     1      -0.475  11.169  20.712  0.00  0.00    +0.000 A 
ATOM     17  C   UNL     1       0.246   9.978  20.681  0.00  0.00    +0.000 A 
ATOM     18  O   UNL     1       0.918   9.484  19.602  0.00  0.00    +0.000 OA
ENDBRANCH   5   9
BRANCH   1  20
ATOM     19  C   UNL     1       7.406   4.662  16.457  0.00  0.00    +0.000 C 
ATOM     20  C   UNL     1       6.001   4.564  15.893  0.00  0.00    +0.000 C 
ATOM     21  F   UNL     1       6.020   5.079  14.628  0.00  0.00    +0.000 F 
ATOM     22  F   UNL     1       5.701   3.240  15.748  0.00  0.00    +0.000 F 
ENDBRANCH   1  20
TORSDOF 2
ENDMDL
MODEL 2
REMARK VINA RESULT:      -7.6      0.629      1.016
REMARK  Name = 
REMARK  3 active torsions:
REMARK  status: ('A' for Active; 'I' for Inactive)
REMARK    1  A    between atoms: C_1  and  C_2
REMARK    2  A    between atoms: C_2  and  C_5
REMARK    3  A    between atoms: C_9  and  C_10
REMARK                            x       y       z     vdW  Elec       q    Type
REMARK                         _______ _______ _______ _____ _____    ______ ____
ROOT
ATOM      1  C   UNL     1       5.036   5.203  16.391  0.00  0.00    +0.000 A 
ATOM      2  N   UNL     1       4.799   6.492  16.412  0.00  0.00    +0.000 NA
ATOM      3  N   UNL     1       3.845   6.673  17.357  0.00  0.00    +0.000 N 
ATOM      4  C   UNL     1       3.241   7.789  17.837  0.00  0.00    +0.000 A 
ATOM      5  C   UNL     1       2.430   7.314  18.855  0.00  0.00    +0.000 A 
ATOM      6  N   UNL     1       2.503   5.932  18.975  0.00  0.00    +0.000 NA
ATOM      7  C   UNL     1       3.356   5.613  18.049  0.00  0.00    +0.000 A 
ATOM      8  S   UNL     1       4.084   4.168  17.501  0.00  0.00    +0.000 S 
ENDROOT
BRANCH   5   9
ATOM      9  C   UNL     1       1.606   8.160  19.754  0.00  0.00    +0.000 A 
ATOM     10  C   UNL     1       1.319   7.852  21.068  0.00  0.00    +0.000 A 
ATOM     11  C   UNL     1       0.581   8.938  21.596  0.00  0.00    +0.000 A 
ATOM     12  C   UNL     1       0.041   9.263  22.851  0.00  0.00    +0.000 A 
ATOM     13  C   UNL     1      -0.677  10.459  22.980  0.00  0.00    +0.000 A 
ATOM     14  C   UNL     1      -0.863  11.302  21.881  0.00  0.00    +0.000 A 
ATOM     15 CL   UNL     1      -1.791  12.742  22.077  0.00  0.00    +0.000 Cl
ATOM     16  C   UNL     1      -0.320  11.009  20.627  0.00  0.00    +0.000 A 
ATOM     17  C   UNL     1       0.404   9.822  20.539  0.00  0.00    +0.000 A 
ATOM     18  O   UNL     1       1.039   9.360  19.424  0.00  0.00    +0.000 OA
ENDBRANCH   5   9
BRANCH   1  20
ATOM     19  C   UNL     1       5.617   4.413  14.064  0.00  0.00    +0.000 C 
ATOM     20  C   UNL     1       6.055   4.502  15.513  0.00  0.00    +0.000 C 
ATOM     21  F   UNL     1       6.299   3.233  15.957  0.00  0.00    +0.000 F 
ATOM     22  F   UNL     1       7.262   5.142  15.546  0.00  0.00    +0.000 F 
ENDBRANCH   1  20
TORSDOF 2
ENDMDL
MODEL 3
REMARK VINA RESULT:      -7.6      5.685      8.701
REMARK  Name = 
REMARK  3 active torsions:
REMARK  status: ('A' for Active; 'I' for Inactive)
REMARK    1  A    between atoms: C_1  and  C_2
REMARK    2  A    between atoms: C_2  and  C_5
REMARK    3  A    between atoms: C_9  and  C_10
REMARK                            x       y       z     vdW  Elec       q    Type
REMARK                         _______ _______ _______ _____ _____    ______ ____
ROOT
ATOM      1  C   UNL     1      -0.746  10.882  21.808  0.00  0.00    +0.000 A 
ATOM      2  N   UNL     1      -0.306  10.967  20.576  0.00  0.00    +0.000 NA
ATOM      3  N   UNL     1       0.504   9.895  20.402  0.00  0.00    +0.000 N 
ATOM      4  C   UNL     1       1.200   9.447  19.327  0.00  0.00    +0.000 A 
ATOM      5  C   UNL     1       1.751   8.252  19.764  0.00  0.00    +0.000 A 
ATOM      6  N   UNL     1       1.433   7.989  21.090  0.00  0.00    +0.000 NA
ATOM      7  C   UNL     1       0.696   9.009  21.411  0.00  0.00    +0.000 A 
ATOM      8  S   UNL     1      -0.165   9.508  22.800  0.00  0.00    +0.000 S 
ENDROOT
BRANCH   5   9
ATOM      9  C   UNL     1       2.550   7.325  18.927  0.00  0.00    +0.000 A 
ATOM     10  C   UNL     1       2.443   5.950  18.967  0.00  0.00    +0.000 A 
ATOM     11  C   UNL     1       3.310   5.438  17.971  0.00  0.00    +0.000 A 
ATOM     12  C   UNL     1       3.624   4.160  17.480  0.00  0.00    +0.000 A 
ATOM     13  C   UNL     1       4.590   4.051  16.471  0.00  0.00    +0.000 A 
ATOM     14  C   UNL     1       5.236   5.186  15.975  0.00  0.00    +0.000 A 
ATOM     15 CL   UNL     1       6.449   4.999  14.765  0.00  0.00    +0.000 Cl
ATOM     16  C   UNL     1       4.927   6.470  16.434  0.00  0.00    +0.000 A 
ATOM     17  C   UNL     1       3.949   6.544  17.424  0.00  0.00    +0.000 A 
ATOM     18  O   UNL     1       3.478   7.691  17.991  0.00  0.00    +0.000 OA
ENDBRANCH   5   9
BRANCH   1  20
ATOM     19  C   UNL     1      -1.039  13.103  22.974  0.00  0.00    +0.000 C 
ATOM     20  C   UNL     1      -1.715  11.841  22.473  0.00  0.00    +0.000 C 
ATOM     21  F   UNL     1      -2.343  11.251  23.533  0.00  0.00    +0.000 F 
ATOM     22  F   UNL     1      -2.711  12.213  21.616  0.00  0.00    +0.000 F 
ENDBRANCH   1  20
TORSDOF 2
ENDMDL
MODEL 4
REMARK VINA RESULT:      -7.4      6.523      7.803
REMARK  Name = 
REMARK  3 active torsions:
REMARK  status: ('A' for Active; 'I' for Inactive)
REMARK    1  A    between atoms: C_1  and  C_2
REMARK    2  A    between atoms: C_2  and  C_5
REMARK    3  A    between atoms: C_9  and  C_10
REMARK                            x       y       z     vdW  Elec       q    Type
REMARK                         _______ _______ _______ _____ _____    ______ ____
ROOT
ATOM      1  C   UNL     1       6.148   5.424  16.727  0.00  0.00    +0.000 A 
ATOM      2  N   UNL     1       5.932   6.678  16.414  0.00  0.00    +0.000 NA
ATOM      3  N   UNL     1       6.794   7.397  17.174  0.00  0.00    +0.000 N 
ATOM      4  C   UNL     1       7.046   8.729  17.249  0.00  0.00    +0.000 A 
ATOM      5  C   UNL     1       8.100   8.816  18.144  0.00  0.00    +0.000 A 
ATOM      6  N   UNL     1       8.465   7.570  18.639  0.00  0.00    +0.000 NA
ATOM      7  C   UNL     1       7.642   6.772  18.027  0.00  0.00    +0.000 A 
ATOM      8  S   UNL     1       7.386   5.083  17.976  0.00  0.00    +0.000 S 
ENDROOT
BRANCH   5   9
ATOM      9  C   UNL     1       8.803  10.068  18.514  0.00  0.00    +0.000 A 
ATOM     10  C   UNL     1       9.516  10.246  19.682  0.00  0.00    +0.000 A 
ATOM     11  C   UNL     1      10.094  11.537  19.622  0.00  0.00    +0.000 A 
ATOM     12  C   UNL     1      10.948  12.289  20.445  0.00  0.00    +0.000 A 
ATOM     13  C   UNL     1      11.287  13.589  20.046  0.00  0.00    +0.000 A 
ATOM     14  C   UNL     1      10.775  14.129  18.864  0.00  0.00    +0.000 A 
ATOM     15 CL   UNL     1      11.184  15.748  18.436  0.00  0.00    +0.000 Cl
ATOM     16  C   UNL     1       9.939  13.394  18.019  0.00  0.00    +0.000 A 
ATOM     17  C   UNL     1       9.637  12.099  18.436  0.00  0.00    +0.000 A 
ATOM     18  O   UNL     1       8.867  11.204  17.754  0.00  0.00    +0.000 OA
ENDBRANCH   5   9
BRANCH   1  20
ATOM     19  C   UNL     1       4.458   3.578  17.071  0.00  0.00    +0.000 C 
ATOM     20  C   UNL     1       5.446   4.224  16.119  0.00  0.00    +0.000 C 
ATOM     21  F   UNL     1       6.345   3.269  15.735  0.00  0.00    +0.000 F 
ATOM     22  F   UNL     1       4.768   4.569  14.984  0.00  0.00    +0.000 F 
ENDBRANCH   1  20
TORSDOF 2
ENDMDL
MODEL 5
REMARK VINA RESULT:      -7.4      1.137      1.788
REMARK  Name = 
REMARK  3 active torsions:
REMARK  status: ('A' for Active; 'I' for Inactive)
REMARK    1  A    between atoms: C_1  and  C_2
REMARK    2  A    between atoms: C_2  and  C_5
REMARK    3  A    between atoms: C_9  and  C_10
REMARK                            x       y       z     vdW  Elec       q    Type
REMARK                         _______ _______ _______ _____ _____    ______ ____
ROOT
ATOM      1  C   UNL     1       5.375   5.055  16.476  0.00  0.00    +0.000 A 
ATOM      2  N   UNL     1       5.232   6.351  16.346  0.00  0.00    +0.000 NA
ATOM      3  N   UNL     1       4.172   6.682  17.123  0.00  0.00    +0.000 N 
ATOM      4  C   UNL     1       3.591   7.875  17.407  0.00  0.00    +0.000 A 
ATOM      5  C   UNL     1       2.614   7.554  18.336  0.00  0.00    +0.000 A 
ATOM      6  N   UNL     1       2.568   6.190  18.590  0.00  0.00    +0.000 NA
ATOM      7  C   UNL     1       3.516   5.729  17.829  0.00  0.00    +0.000 A 
ATOM      8  S   UNL     1       4.205   4.195  17.526  0.00  0.00    +0.000 S 
ENDROOT
BRANCH   5   9
ATOM      9  C   UNL     1       1.739   8.533  19.026  0.00  0.00    +0.000 A 
ATOM     10  C   UNL     1       1.098   9.583  18.400  0.00  0.00    +0.000 A 
ATOM     11  C   UNL     1       0.306  10.228  19.380  0.00  0.00    +0.000 A 
ATOM     12  C   UNL     1      -0.597  11.304  19.385  0.00  0.00    +0.000 A 
ATOM     13  C   UNL     1      -1.182  11.679  20.601  0.00  0.00    +0.000 A 
ATOM     14  C   UNL     1      -0.863  11.007  21.784  0.00  0.00    +0.000 A 
ATOM     15 CL   UNL     1      -1.574  11.532  23.264  0.00  0.00    +0.000 Cl
ATOM     16  C   UNL     1       0.019   9.923  21.801  0.00  0.00    +0.000 A 
ATOM     17  C   UNL     1       0.567   9.564  20.572  0.00  0.00    +0.000 A 
ATOM     18  O   UNL     1       1.424   8.525  20.357  0.00  0.00    +0.000 OA
ENDBRANCH   5   9
BRANCH   1  20
ATOM     19  C   UNL     1       6.929   4.788  14.503  0.00  0.00    +0.000 C 
ATOM     20  C   UNL     1       6.451   4.210  15.822  0.00  0.00    +0.000 C 
ATOM     21  F   UNL     1       6.006   2.940  15.587  0.00  0.00    +0.000 F 
ATOM     22  F   UNL     1       7.539   4.074  16.637  0.00  0.00    +0.000 F 
ENDBRANCH   1  20
TORSDOF 2
ENDMDL
MODEL 6
REMARK VINA RESULT:      -7.3      1.163      1.491
REMARK  Name = 
REMARK  3 active torsions:
REMARK  status: ('A' for Active; 'I' for Inactive)
REMARK    1  A    between atoms: C_1  and  C_2
REMARK    2  A    between atoms: C_2  and  C_5
REMARK    3  A    between atoms: C_9  and  C_10
REMARK                            x       y       z     vdW  Elec       q    Type
REMARK                         _______ _______ _______ _____ _____    ______ ____
ROOT
ATOM      1  C   UNL     1       4.975   4.998  16.726  0.00  0.00    +0.000 A 
ATOM      2  N   UNL     1       4.330   4.715  17.832  0.00  0.00    +0.000 NA
ATOM      3  N   UNL     1       3.753   5.876  18.226  0.00  0.00    +0.000 N 
ATOM      4  C   UNL     1       2.941   6.179  19.270  0.00  0.00    +0.000 A 
ATOM      5  C   UNL     1       2.618   7.511  19.063  0.00  0.00    +0.000 A 
ATOM      6  N   UNL     1       3.248   8.028  17.938  0.00  0.00    +0.000 NA
ATOM      7  C   UNL     1       3.914   7.005  17.492  0.00  0.00    +0.000 A 
ATOM      8  S   UNL     1       4.921   6.693  16.148  0.00  0.00    +0.000 S 
ENDROOT
BRANCH   5   9
ATOM      9  C   UNL     1       1.683   8.302  19.899  0.00  0.00    +0.000 A 
ATOM     10  C   UNL     1       1.361   8.001  21.207  0.00  0.00    +0.000 A 
ATOM     11  C   UNL     1       0.507   9.030  21.670  0.00  0.00    +0.000 A 
ATOM     12  C   UNL     1      -0.118   9.336  22.891  0.00  0.00    +0.000 A 
ATOM     13  C   UNL     1      -0.942  10.468  22.954  0.00  0.00    +0.000 A 
ATOM     14  C   UNL     1      -1.147  11.265  21.824  0.00  0.00    +0.000 A 
ATOM     15 CL   UNL     1      -2.204  12.622  21.938  0.00  0.00    +0.000 Cl
ATOM     16  C   UNL     1      -0.521  10.992  20.605  0.00  0.00    +0.000 A 
ATOM     17  C   UNL     1       0.305   9.871  20.582  0.00  0.00    +0.000 A 
ATOM     18  O   UNL     1       1.030   9.439  19.511  0.00  0.00    +0.000 OA
ENDBRANCH   5   9
BRANCH   1  20
ATOM     19  C   UNL     1       5.653   4.302  14.395  0.00  0.00    +0.000 C 
ATOM     20  C   UNL     1       5.761   4.015  15.881  0.00  0.00    +0.000 C 
ATOM     21  F   UNL     1       5.338   2.733  16.092  0.00  0.00    +0.000 F 
ATOM     22  F   UNL     1       7.086   4.025  16.212  0.00  0.00    +0.000 F 
ENDBRANCH   1  20
TORSDOF 2
ENDMDL
MODEL 7
REMARK VINA RESULT:      -7.3      5.591      8.723
REMARK  Name = 
REMARK  3 active torsions:
REMARK  status: ('A' for Active; 'I' for Inactive)
REMARK    1  A    between atoms: C_1  and  C_2
REMARK    2  A    between atoms: C_2  and  C_5
REMARK    3  A    between atoms: C_9  and  C_10
REMARK                            x       y       z     vdW  Elec       q    Type
REMARK                         _______ _______ _______ _____ _____    ______ ____
ROOT
ATOM      1  C   UNL     1      -0.184  10.675  21.308  0.00  0.00    +0.000 A 
ATOM      2  N   UNL     1       0.362   9.536  21.659  0.00  0.00    +0.000 NA
ATOM      3  N   UNL     1       0.935   9.043  20.535  0.00  0.00    +0.000 N 
ATOM      4  C   UNL     1       1.667   7.924  20.303  0.00  0.00    +0.000 A 
ATOM      5  C   UNL     1       2.039   8.042  18.974  0.00  0.00    +0.000 A 
ATOM      6  N   UNL     1       1.516   9.188  18.388  0.00  0.00    +0.000 NA
ATOM      7  C   UNL     1       0.863   9.733  19.369  0.00  0.00    +0.000 A 
ATOM      8  S   UNL     1      -0.040  11.167  19.591  0.00  0.00    +0.000 S 
ENDROOT
BRANCH   5   9
ATOM      9  C   UNL     1       2.924   7.098  18.249  0.00  0.00    +0.000 A 
ATOM     10  C   UNL     1       2.895   5.727  18.405  0.00  0.00    +0.000 A 
ATOM     11  C   UNL     1       3.830   5.186  17.489  0.00  0.00    +0.000 A 
ATOM     12  C   UNL     1       4.237   3.892  17.123  0.00  0.00    +0.000 A 
ATOM     13  C   UNL     1       5.247   3.757  16.162  0.00  0.00    +0.000 A 
ATOM     14  C   UNL     1       5.845   4.884  15.592  0.00  0.00    +0.000 A 
ATOM     15 CL   UNL     1       7.115   4.668  14.446  0.00  0.00    +0.000 Cl
ATOM     16  C   UNL     1       5.445   6.180  15.926  0.00  0.00    +0.000 A 
ATOM     17  C   UNL     1       4.425   6.279  16.870  0.00  0.00    +0.000 A 
ATOM     18  O   UNL     1       3.866   7.439  17.318  0.00  0.00    +0.000 OA
ENDBRANCH   5   9
BRANCH   1  20
ATOM     19  C   UNL     1      -0.327  13.021  22.233  0.00  0.00    +0.000 C 
ATOM     20  C   UNL     1      -0.924  11.626  22.229  0.00  0.00    +0.000 C 
ATOM     21  F   UNL     1      -0.926  11.167  23.516  0.00  0.00    +0.000 F 
ATOM     22  F   UNL     1      -2.239  11.736  21.875  0.00  0.00    +0.000 F 
ENDBRANCH   1  20
TORSDOF 2
ENDMDL
MODEL 8
REMARK VINA RESULT:      -7.2      6.505      8.121
REMARK  Name = 
REMARK  3 active torsions:
REMARK  status: ('A' for Active; 'I' for Inactive)
REMARK    1  A    between atoms: C_1  and  C_2
REMARK    2  A    between atoms: C_2  and  C_5
REMARK    3  A    between atoms: C_9  and  C_10
REMARK                            x       y       z     vdW  Elec       q    Type
REMARK                         _______ _______ _______ _____ _____    ______ ____
ROOT
ATOM      1  C   UNL     1       5.690   5.015  17.722  0.00  0.00    +0.000 A 
ATOM      2  N   UNL     1       6.707   5.212  18.524  0.00  0.00    +0.000 NA
ATOM      3  N   UNL     1       7.162   6.456  18.240  0.00  0.00    +0.000 N 
ATOM      4  C   UNL     1       8.161   7.202  18.775  0.00  0.00    +0.000 A 
ATOM      5  C   UNL     1       8.057   8.416  18.115  0.00  0.00    +0.000 A 
ATOM      6  N   UNL     1       7.041   8.406  17.168  0.00  0.00    +0.000 NA
ATOM      7  C   UNL     1       6.555   7.207  17.288  0.00  0.00    +0.000 A 
ATOM      8  S   UNL     1       5.273   6.329  16.577  0.00  0.00    +0.000 S 
ENDROOT
BRANCH   5   9
ATOM      9  C   UNL     1       8.886   9.613  18.396  0.00  0.00    +0.000 A 
ATOM     10  C   UNL     1       9.296  10.000  19.656  0.00  0.00    +0.000 A 
ATOM     11  C   UNL     1      10.125  11.136  19.491  0.00  0.00    +0.000 A 
ATOM     12  C   UNL     1      10.876  11.958  20.348  0.00  0.00    +0.000 A 
ATOM     13  C   UNL     1      11.568  13.043  19.795  0.00  0.00    +0.000 A 
ATOM     14  C   UNL     1      11.501  13.309  18.424  0.00  0.00    +0.000 A 
ATOM     15 CL   UNL     1      12.333  14.682  17.796  0.00  0.00    +0.000 Cl
ATOM     16  C   UNL     1      10.775  12.496  17.550  0.00  0.00    +0.000 A 
ATOM     17  C   UNL     1      10.115  11.415  18.130  0.00  0.00    +0.000 A 
ATOM     18  O   UNL     1       9.377  10.483  17.461  0.00  0.00    +0.000 OA
ENDBRANCH   5   9
BRANCH   1  20
ATOM     19  C   UNL     1       3.348   4.094  17.508  0.00  0.00    +0.000 C 
ATOM     20  C   UNL     1       4.821   3.773  17.677  0.00  0.00    +0.000 C 
ATOM     21  F   UNL     1       4.961   3.031  18.816  0.00  0.00    +0.000 F 
ATOM     22  F   UNL     1       5.188   2.947  16.652  0.00  0.00    +0.000 F 
ENDBRANCH   1  20
TORSDOF 2
ENDMDL
MODEL 9
REMARK VINA RESULT:      -7.0      0.993      1.593
REMARK  Name = 
REMARK  3 active torsions:
REMARK  status: ('A' for Active; 'I' for Inactive)
REMARK    1  A    between atoms: C_1  and  C_2
REMARK    2  A    between atoms: C_2  and  C_5
REMARK    3  A    between atoms: C_9  and  C_10
REMARK                            x       y       z     vdW  Elec       q    Type
REMARK                         _______ _______ _______ _____ _____    ______ ____
ROOT
ATOM      1  C   UNL     1       5.249   5.490  17.060  0.00  0.00    +0.000 A 
ATOM      2  N   UNL     1       4.782   6.630  16.615  0.00  0.00    +0.000 NA
ATOM      3  N   UNL     1       3.827   7.006  17.500  0.00  0.00    +0.000 N 
ATOM      4  C   UNL     1       3.039   8.108  17.573  0.00  0.00    +0.000 A 
ATOM      5  C   UNL     1       2.345   7.939  18.761  0.00  0.00    +0.000 A 
ATOM      6  N   UNL     1       2.670   6.742  19.386  0.00  0.00    +0.000 NA
ATOM      7  C   UNL     1       3.551   6.232  18.579  0.00  0.00    +0.000 A 
ATOM      8  S   UNL     1       4.520   4.825  18.556  0.00  0.00    +0.000 S 
ENDROOT
BRANCH   5   9
ATOM      9  C   UNL     1       1.398   8.921  19.342  0.00  0.00    +0.000 A 
ATOM     10  C   UNL     1       0.657   9.822  18.603  0.00  0.00    +0.000 A 
ATOM     11  C   UNL     1      -0.173  10.520  19.512  0.00  0.00    +0.000 A 
ATOM     12  C   UNL     1      -1.168  11.506  19.402  0.00  0.00    +0.000 A 
ATOM     13  C   UNL     1      -1.765  11.985  20.576  0.00  0.00    +0.000 A 
ATOM     14  C   UNL     1      -1.369  11.504  21.826  0.00  0.00    +0.000 A 
ATOM     15 CL   UNL     1      -2.101  12.156  23.244  0.00  0.00    +0.000 Cl
ATOM     16  C   UNL     1      -0.395  10.511  21.960  0.00  0.00    +0.000 A 
ATOM     17  C   UNL     1       0.164  10.042  20.773  0.00  0.00    +0.000 A 
ATOM     18  O   UNL     1       1.105   9.061  20.671  0.00  0.00    +0.000 OA
ENDBRANCH   5   9
BRANCH   1  20
ATOM     19  C   UNL     1       7.547   4.484  17.356  0.00  0.00    +0.000 C 
ATOM     20  C   UNL     1       6.363   4.678  16.427  0.00  0.00    +0.000 C 
ATOM     21  F   UNL     1       6.819   5.272  15.285  0.00  0.00    +0.000 F 
ATOM     22  F   UNL     1       5.922   3.441  16.049  0.00  0.00    +0.000 F 
ENDBRANCH   1  20
TORSDOF 2
ENDMDL
