MODEL 1
REMARK VINA RESULT:      -7.1      0.000      0.000
REMARK  Name = 
REMARK  3 active torsions:
REMARK  status: ('A' for Active; 'I' for Inactive)
REMARK    1  A    between atoms: C_5  and  C_6
REMARK    2  A    between atoms: C_6  and  N_7
REMARK    3  A    between atoms: N_7  and  C_8
REMARK                            x       y       z     vdW  Elec       q    Type
REMARK                         _______ _______ _______ _____ _____    ______ ____
ROOT
ATOM      1  N   UNL     1       6.376   4.004  18.328  0.00  0.00    +0.000 N 
ATOM      2  H   UNL     1       6.683   3.048  18.169  0.00  0.00    +0.000 HD
ENDROOT
BRANCH   1   3
ATOM      3  C   UNL     1       4.993   4.224  18.622  0.00  0.00    +0.000 A 
ATOM      4  C   UNL     1       4.726   5.406  19.311  0.00  0.00    +0.000 A 
ATOM      5  C   UNL     1       3.616   6.084  18.925  0.00  0.00    +0.000 A 
ATOM      6  C   UNL     1       2.491   5.385  19.261  0.00  0.00    +0.000 A 
ATOM      7  C   UNL     1       2.590   4.009  18.984  0.00  0.00    +0.000 A 
ATOM      8  S   UNL     1       1.352   2.828  19.062  0.00  0.00    +0.000 S 
ATOM      9  N   UNL     1       2.220   1.625  18.356  0.00  0.00    +0.000 NA
ATOM     10  C   UNL     1       3.468   2.066  18.139  0.00  0.00    +0.000 A 
ATOM     11  C   UNL     1       3.807   3.407  18.551  0.00  0.00    +0.000 A 
ENDBRANCH   1   3
BRANCH   1  12
ATOM     12  C   UNL     1       6.926   5.031  17.376  0.00  0.00    +0.000 C 
BRANCH  12  17
ATOM     13 CL   UNL     1       5.621   3.243  12.319  0.00  0.00    +0.000 Cl
ATOM     14  C   UNL     1       6.296   4.029  13.682  0.00  0.00    +0.000 A 
ATOM     15  C   UNL     1       7.328   4.926  13.726  0.00  0.00    +0.000 A 
ATOM     16  N   UNL     1       7.672   5.394  14.985  0.00  0.00    +0.000 NA
ATOM     17  C   UNL     1       6.870   4.847  15.881  0.00  0.00    +0.000 A 
ATOM     18  S   UNL     1       5.699   3.726  15.233  0.00  0.00    +0.000 S 
ENDBRANCH  12  17
ENDBRANCH   1  12
TORSDOF 3
ENDMDL
MODEL 2
REMARK VINA RESULT:      -7.0      1.184      1.184
REMARK  Name = 
REMARK  3 active torsions:
REMARK  status: ('A' for Active; 'I' for Inactive)
REMARK    1  A    between atoms: C_5  and  C_6
REMARK    2  A    between atoms: C_6  and  N_7
REMARK    3  A    between atoms: N_7  and  C_8
REMARK                            x       y       z     vdW  Elec       q    Type
REMARK                         _______ _______ _______ _____ _____    ______ ____
ROOT
ATOM      1  N   UNL     1       6.484   4.087  18.245  0.00  0.00    +0.000 N 
ATOM      2  H   UNL     1       6.608   3.102  18.029  0.00  0.00    +0.000 HD
ENDROOT
BRANCH   1   3
ATOM      3  C   UNL     1       5.201   4.517  18.709  0.00  0.00    +0.000 A 
ATOM      4  C   UNL     1       4.928   5.868  18.500  0.00  0.00    +0.000 A 
ATOM      5  C   UNL     1       3.664   6.168  18.111  0.00  0.00    +0.000 A 
ATOM      6  C   UNL     1       2.784   5.930  19.130  0.00  0.00    +0.000 A 
ATOM      7  C   UNL     1       3.029   4.719  19.802  0.00  0.00    +0.000 A 
ATOM      8  S   UNL     1       2.054   3.956  20.986  0.00  0.00    +0.000 S 
ATOM      9  N   UNL     1       2.899   2.549  21.023  0.00  0.00    +0.000 NA
ATOM     10  C   UNL     1       3.968   2.669  20.220  0.00  0.00    +0.000 A 
ATOM     11  C   UNL     1       4.181   3.922  19.537  0.00  0.00    +0.000 A 
ENDBRANCH   1   3
BRANCH   1  12
ATOM     12  C   UNL     1       7.082   5.050  17.255  0.00  0.00    +0.000 C 
BRANCH  12  17
ATOM     13 CL   UNL     1       5.544   3.200  12.287  0.00  0.00    +0.000 Cl
ATOM     14  C   UNL     1       6.281   4.003  13.607  0.00  0.00    +0.000 A 
ATOM     15  C   UNL     1       7.311   4.903  13.591  0.00  0.00    +0.000 A 
ATOM     16  N   UNL     1       7.713   5.387  14.827  0.00  0.00    +0.000 NA
ATOM     17  C   UNL     1       6.956   4.849  15.766  0.00  0.00    +0.000 A 
ATOM     18  S   UNL     1       5.758   3.718  15.188  0.00  0.00    +0.000 S 
ENDBRANCH  12  17
ENDBRANCH   1  12
TORSDOF 3
ENDMDL
MODEL 3
REMARK VINA RESULT:      -6.8      3.037      3.533
REMARK  Name = 
REMARK  3 active torsions:
REMARK  status: ('A' for Active; 'I' for Inactive)
REMARK    1  A    between atoms: C_5  and  C_6
REMARK    2  A    between atoms: C_6  and  N_7
REMARK    3  A    between atoms: N_7  and  C_8
REMARK                            x       y       z     vdW  Elec       q    Type
REMARK                         _______ _______ _______ _____ _____    ______ ____
ROOT
ATOM      1  N   UNL     1       4.697   2.882  17.062  0.00  0.00    +0.000 N 
ATOM      2  H   UNL     1       4.525   2.120  16.413  0.00  0.00    +0.000 HD
ENDROOT
BRANCH   1   3
ATOM      3  C   UNL     1       3.642   3.256  17.954  0.00  0.00    +0.000 A 
ATOM      4  C   UNL     1       2.821   4.280  17.486  0.00  0.00    +0.000 A 
ATOM      5  C   UNL     1       1.494   4.143  17.736  0.00  0.00    +0.000 A 
ATOM      6  C   UNL     1       1.247   4.269  19.075  0.00  0.00    +0.000 A 
ATOM      7  C   UNL     1       2.175   3.580  19.876  0.00  0.00    +0.000 A 
ATOM      8  S   UNL     1       2.112   3.313  21.567  0.00  0.00    +0.000 S 
ATOM      9  N   UNL     1       3.368   2.255  21.620  0.00  0.00    +0.000 NA
ATOM     10  C   UNL     1       3.902   2.161  20.393  0.00  0.00    +0.000 A 
ATOM     11  C   UNL     1       3.337   2.960  19.331  0.00  0.00    +0.000 A 
ENDBRANCH   1   3
BRANCH   1  12
ATOM     12  C   UNL     1       5.407   4.078  16.487  0.00  0.00    +0.000 C 
BRANCH  12  17
ATOM     13 CL   UNL     1       8.370   8.315  18.422  0.00  0.00    +0.000 Cl
ATOM     14  C   UNL     1       7.642   6.794  18.121  0.00  0.00    +0.000 A 
ATOM     15  C   UNL     1       7.878   5.598  18.741  0.00  0.00    +0.000 A 
ATOM     16  N   UNL     1       7.142   4.518  18.276  0.00  0.00    +0.000 NA
ATOM     17  C   UNL     1       6.339   4.929  17.311  0.00  0.00    +0.000 A 
ATOM     18  S   UNL     1       6.473   6.624  16.915  0.00  0.00    +0.000 S 
ENDBRANCH  12  17
ENDBRANCH   1  12
TORSDOF 3
ENDMDL
MODEL 4
REMARK VINA RESULT:      -6.5      3.301      3.657
REMARK  Name = 
REMARK  3 active torsions:
REMARK  status: ('A' for Active; 'I' for Inactive)
REMARK    1  A    between atoms: C_5  and  C_6
REMARK    2  A    between atoms: C_6  and  N_7
REMARK    3  A    between atoms: N_7  and  C_8
REMARK                            x       y       z     vdW  Elec       q    Type
REMARK                         _______ _______ _______ _____ _____    ______ ____
ROOT
ATOM      1  N   UNL     1       5.782   3.679  18.724  0.00  0.00    +0.000 N 
ATOM      2  H   UNL     1       6.306   2.864  19.030  0.00  0.00    +0.000 HD
ENDROOT
BRANCH   1   3
ATOM      3  C   UNL     1       4.353   3.609  18.758  0.00  0.00    +0.000 A 
ATOM      4  C   UNL     1       3.714   4.219  17.679  0.00  0.00    +0.000 A 
ATOM      5  C   UNL     1       2.635   3.568  17.178  0.00  0.00    +0.000 A 
ATOM      6  C   UNL     1       1.605   3.594  18.077  0.00  0.00    +0.000 A 
ATOM      7  C   UNL     1       2.014   3.336  19.397  0.00  0.00    +0.000 A 
ATOM      8  S   UNL     1       1.028   3.077  20.774  0.00  0.00    +0.000 S 
ATOM      9  N   UNL     1       2.246   2.606  21.770  0.00  0.00    +0.000 NA
ATOM     10  C   UNL     1       3.409   2.723  21.112  0.00  0.00    +0.000 A 
ATOM     11  C   UNL     1       3.389   3.225  19.758  0.00  0.00    +0.000 A 
ENDBRANCH   1   3
BRANCH   1  12
ATOM     12  C   UNL     1       6.289   4.348  17.475  0.00  0.00    +0.000 C 
BRANCH  12  17
ATOM     13 CL   UNL     1       8.881   9.002  18.919  0.00  0.00    +0.000 Cl
ATOM     14  C   UNL     1       7.953   7.785  18.151  0.00  0.00    +0.000 A 
ATOM     15  C   UNL     1       7.189   7.880  17.020  0.00  0.00    +0.000 A 
ATOM     16  N   UNL     1       6.531   6.722  16.633  0.00  0.00    +0.000 NA
ATOM     17  C   UNL     1       6.829   5.755  17.482  0.00  0.00    +0.000 A 
ATOM     18  S   UNL     1       7.885   6.224  18.791  0.00  0.00    +0.000 S 
ENDBRANCH  12  17
ENDBRANCH   1  12
TORSDOF 3
ENDMDL
MODEL 5
REMARK VINA RESULT:      -6.4      3.094      4.092
REMARK  Name = 
REMARK  3 active torsions:
REMARK  status: ('A' for Active; 'I' for Inactive)
REMARK    1  A    between atoms: C_5  and  C_6
REMARK    2  A    between atoms: C_6  and  N_7
REMARK    3  A    between atoms: N_7  and  C_8
REMARK                            x       y       z     vdW  Elec       q    Type
REMARK                         _______ _______ _______ _____ _____    ______ ____
ROOT
ATOM      1  N   UNL     1       3.066   3.649  17.163  0.00  0.00    +0.000 N 
ATOM      2  H   UNL     1       2.576   3.968  16.332  0.00  0.00    +0.000 HD
ENDROOT
BRANCH   1   3
ATOM      3  C   UNL     1       2.686   4.212  18.423  0.00  0.00    +0.000 A 
ATOM      4  C   UNL     1       2.214   3.289  19.355  0.00  0.00    +0.000 A 
ATOM      5  C   UNL     1       2.613   3.479  20.638  0.00  0.00    +0.000 A 
ATOM      6  C   UNL     1       2.041   4.609  21.151  0.00  0.00    +0.000 A 
ATOM      7  C   UNL     1       2.059   5.694  20.257  0.00  0.00    +0.000 A 
ATOM      8  S   UNL     1       1.637   7.324  20.571  0.00  0.00    +0.000 S 
ATOM      9  N   UNL     1       2.180   7.920  19.140  0.00  0.00    +0.000 NA
ATOM     10  C   UNL     1       2.597   6.897  18.380  0.00  0.00    +0.000 A 
ATOM     11  C   UNL     1       2.484   5.557  18.903  0.00  0.00    +0.000 A 
ENDBRANCH   1   3
BRANCH   1  12
ATOM     12  C   UNL     1       4.558   3.514  17.027  0.00  0.00    +0.000 C 
BRANCH  12  17
ATOM     13 CL   UNL     1       7.862   7.893  17.645  0.00  0.00    +0.000 Cl
ATOM     14  C   UNL     1       6.967   6.445  17.832  0.00  0.00    +0.000 A 
ATOM     15  C   UNL     1       6.973   5.568  18.883  0.00  0.00    +0.000 A 
ATOM     16  N   UNL     1       6.147   4.461  18.754  0.00  0.00    +0.000 NA
ATOM     17  C   UNL     1       5.510   4.533  17.599  0.00  0.00    +0.000 A 
ATOM     18  S   UNL     1       5.914   5.921  16.621  0.00  0.00    +0.000 S 
ENDBRANCH  12  17
ENDBRANCH   1  12
TORSDOF 3
ENDMDL
MODEL 6
REMARK VINA RESULT:      -6.4      1.445      2.265
REMARK  Name = 
REMARK  3 active torsions:
REMARK  status: ('A' for Active; 'I' for Inactive)
REMARK    1  A    between atoms: C_5  and  C_6
REMARK    2  A    between atoms: C_6  and  N_7
REMARK    3  A    between atoms: N_7  and  C_8
REMARK                            x       y       z     vdW  Elec       q    Type
REMARK                         _______ _______ _______ _____ _____    ______ ____
ROOT
ATOM      1  N   UNL     1       5.845   4.047  18.350  0.00  0.00    +0.000 N 
ATOM      2  H   UNL     1       6.601   3.376  18.244  0.00  0.00    +0.000 HD
ENDROOT
BRANCH   1   3
ATOM      3  C   UNL     1       4.537   3.545  18.642  0.00  0.00    +0.000 A 
ATOM      4  C   UNL     1       4.144   2.458  17.862  0.00  0.00    +0.000 A 
ATOM      5  C   UNL     1       3.463   1.477  18.506  0.00  0.00    +0.000 A 
ATOM      6  C   UNL     1       2.228   1.924  18.884  0.00  0.00    +0.000 A 
ATOM      7  C   UNL     1       2.251   3.220  19.430  0.00  0.00    +0.000 A 
ATOM      8  S   UNL     1       0.974   4.060  20.203  0.00  0.00    +0.000 S 
ATOM      9  N   UNL     1       1.892   5.311  20.741  0.00  0.00    +0.000 NA
ATOM     10  C   UNL     1       3.141   5.160  20.272  0.00  0.00    +0.000 A 
ATOM     11  C   UNL     1       3.428   4.025  19.427  0.00  0.00    +0.000 A 
ENDBRANCH   1   3
BRANCH   1  12
ATOM     12  C   UNL     1       5.814   5.159  17.336  0.00  0.00    +0.000 C 
BRANCH  12  17
ATOM     13 CL   UNL     1       6.220   3.396  12.121  0.00  0.00    +0.000 Cl
ATOM     14  C   UNL     1       6.435   4.150  13.643  0.00  0.00    +0.000 A 
ATOM     15  C   UNL     1       7.452   4.969  14.053  0.00  0.00    +0.000 A 
ATOM     16  N   UNL     1       7.370   5.429  15.359  0.00  0.00    +0.000 NA
ATOM     17  C   UNL     1       6.268   4.957  15.913  0.00  0.00    +0.000 A 
ATOM     18  S   UNL     1       5.315   3.917  14.885  0.00  0.00    +0.000 S 
ENDBRANCH  12  17
ENDBRANCH   1  12
TORSDOF 3
ENDMDL
MODEL 7
REMARK VINA RESULT:      -6.3      3.269      3.735
REMARK  Name = 
REMARK  3 active torsions:
REMARK  status: ('A' for Active; 'I' for Inactive)
REMARK    1  A    between atoms: C_5  and  C_6
REMARK    2  A    between atoms: C_6  and  N_7
REMARK    3  A    between atoms: N_7  and  C_8
REMARK                            x       y       z     vdW  Elec       q    Type
REMARK                         _______ _______ _______ _____ _____    ______ ____
ROOT
ATOM      1  N   UNL     1       5.615   3.454  18.485  0.00  0.00    +0.000 N 
ATOM      2  H   UNL     1       6.082   2.553  18.423  0.00  0.00    +0.000 HD
ENDROOT
BRANCH   1   3
ATOM      3  C   UNL     1       4.193   3.462  18.645  0.00  0.00    +0.000 A 
ATOM      4  C   UNL     1       3.496   4.105  17.623  0.00  0.00    +0.000 A 
ATOM      5  C   UNL     1       2.342   3.513  17.223  0.00  0.00    +0.000 A 
ATOM      6  C   UNL     1       1.399   3.598  18.209  0.00  0.00    +0.000 A 
ATOM      7  C   UNL     1       1.908   3.320  19.490  0.00  0.00    +0.000 A 
ATOM      8  S   UNL     1       1.035   3.119  20.950  0.00  0.00    +0.000 S 
ATOM      9  N   UNL     1       2.308   2.582  21.838  0.00  0.00    +0.000 NA
ATOM     10  C   UNL     1       3.414   2.634  21.079  0.00  0.00    +0.000 A 
ATOM     11  C   UNL     1       3.301   3.134  19.729  0.00  0.00    +0.000 A 
ENDBRANCH   1   3
BRANCH   1  12
ATOM     12  C   UNL     1       6.084   4.498  17.509  0.00  0.00    +0.000 C 
BRANCH  12  17
ATOM     13 CL   UNL     1       8.299   9.545  17.808  0.00  0.00    +0.000 Cl
ATOM     14  C   UNL     1       7.858   7.907  18.036  0.00  0.00    +0.000 A 
ATOM     15  C   UNL     1       8.358   7.006  18.936  0.00  0.00    +0.000 A 
ATOM     16  N   UNL     1       7.813   5.731  18.885  0.00  0.00    +0.000 NA
ATOM     17  C   UNL     1       6.887   5.698  17.944  0.00  0.00    +0.000 A 
ATOM     18  S   UNL     1       6.669   7.194  17.072  0.00  0.00    +0.000 S 
ENDBRANCH  12  17
ENDBRANCH   1  12
TORSDOF 3
ENDMDL
MODEL 8
REMARK VINA RESULT:      -6.2      3.484      6.109
REMARK  Name = 
REMARK  3 active torsions:
REMARK  status: ('A' for Active; 'I' for Inactive)
REMARK    1  A    between atoms: C_5  and  C_6
REMARK    2  A    between atoms: C_6  and  N_7
REMARK    3  A    between atoms: N_7  and  C_8
REMARK                            x       y       z     vdW  Elec       q    Type
REMARK                         _______ _______ _______ _____ _____    ______ ____
ROOT
ATOM      1  N   UNL     1       3.745   3.041  16.775  0.00  0.00    +0.000 N 
ATOM      2  H   UNL     1       3.876   2.103  17.144  0.00  0.00    +0.000 HD
ENDROOT
BRANCH   1   3
ATOM      3  C   UNL     1       4.878   3.913  16.739  0.00  0.00    +0.000 A 
ATOM      4  C   UNL     1       5.507   4.000  15.498  0.00  0.00    +0.000 A 
ATOM      5  C   UNL     1       5.932   5.235  15.130  0.00  0.00    +0.000 A 
ATOM      6  C   UNL     1       6.971   5.636  15.922  0.00  0.00    +0.000 A 
ATOM      7  C   UNL     1       6.769   5.355  17.285  0.00  0.00    +0.000 A 
ATOM      8  S   UNL     1       7.717   5.868  18.617  0.00  0.00    +0.000 S 
ATOM      9  N   UNL     1       6.674   5.352  19.777  0.00  0.00    +0.000 NA
ATOM     10  C   UNL     1       5.654   4.714  19.184  0.00  0.00    +0.000 A 
ATOM     11  C   UNL     1       5.663   4.584  17.746  0.00  0.00    +0.000 A 
ENDBRANCH   1   3
BRANCH   1  12
ATOM     12  C   UNL     1       2.496   3.749  17.226  0.00  0.00    +0.000 C 
BRANCH  12  17
ATOM     13 CL   UNL     1       1.088   2.322  22.369  0.00  0.00    +0.000 Cl
ATOM     14  C   UNL     1       1.448   3.144  20.911  0.00  0.00    +0.000 A 
ATOM     15  C   UNL     1       1.345   4.481  20.637  0.00  0.00    +0.000 A 
ATOM     16  N   UNL     1       1.698   4.866  19.353  0.00  0.00    +0.000 NA
ATOM     17  C   UNL     1       2.084   3.799  18.675  0.00  0.00    +0.000 A 
ATOM     18  S   UNL     1       2.000   2.296  19.559  0.00  0.00    +0.000 S 
ENDBRANCH  12  17
ENDBRANCH   1  12
TORSDOF 3
ENDMDL
MODEL 9
REMARK VINA RESULT:      -6.2      1.938      2.650
REMARK  Name = 
REMARK  3 active torsions:
REMARK  status: ('A' for Active; 'I' for Inactive)
REMARK    1  A    between atoms: C_5  and  C_6
REMARK    2  A    between atoms: C_6  and  N_7
REMARK    3  A    between atoms: N_7  and  C_8
REMARK                            x       y       z     vdW  Elec       q    Type
REMARK                         _______ _______ _______ _____ _____    ______ ____
ROOT
ATOM      1  N   UNL     1       5.391   3.731  18.737  0.00  0.00    +0.000 N 
ATOM      2  H   UNL     1       5.226   2.801  18.362  0.00  0.00    +0.000 HD
ENDROOT
BRANCH   1   3
ATOM      3  C   UNL     1       4.253   4.526  19.087  0.00  0.00    +0.000 A 
ATOM      4  C   UNL     1       3.279   3.855  19.826  0.00  0.00    +0.000 A 
ATOM      5  C   UNL     1       2.700   4.560  20.829  0.00  0.00    +0.000 A 
ATOM      6  C   UNL     1       1.924   5.563  20.319  0.00  0.00    +0.000 A 
ATOM      7  C   UNL     1       2.537   6.252  19.257  0.00  0.00    +0.000 A 
ATOM      8  S   UNL     1       2.004   7.684  18.483  0.00  0.00    +0.000 S 
ATOM      9  N   UNL     1       3.370   7.923  17.604  0.00  0.00    +0.000 NA
ATOM     10  C   UNL     1       4.200   6.889  17.811  0.00  0.00    +0.000 A 
ATOM     11  C   UNL     1       3.770   5.823  18.684  0.00  0.00    +0.000 A 
ENDBRANCH   1   3
BRANCH   1  12
ATOM     12  C   UNL     1       6.452   4.536  18.037  0.00  0.00    +0.000 C 
BRANCH  12  17
ATOM     13 CL   UNL     1       5.741   3.508  12.661  0.00  0.00    +0.000 Cl
ATOM     14  C   UNL     1       6.265   4.068  14.191  0.00  0.00    +0.000 A 
ATOM     15  C   UNL     1       7.317   4.892  14.485  0.00  0.00    +0.000 A 
ATOM     16  N   UNL     1       7.514   5.170  15.829  0.00  0.00    +0.000 NA
ATOM     17  C   UNL     1       6.582   4.555  16.535  0.00  0.00    +0.000 A 
ATOM     18  S   UNL     1       5.462   3.597  15.600  0.00  0.00    +0.000 S 
ENDBRANCH  12  17
ENDBRANCH   1  12
TORSDOF 3
ENDMDL
