MODEL 1
REMARK VINA RESULT:      -7.8      0.000      0.000
REMARK  Name = 
REMARK  3 active torsions:
REMARK  status: ('A' for Active; 'I' for Inactive)
REMARK    1  A    between atoms: C_2  and  C_11
REMARK    2  A    between atoms: N_3  and  C_4
REMARK    3  A    between atoms: C_15  and  C_17
REMARK                            x       y       z     vdW  Elec       q    Type
REMARK                         _______ _______ _______ _____ _____    ______ ____
ROOT
ATOM      1  C   UNL     1       6.652   5.518  16.506  0.00  0.00    +0.000 C 
ATOM      2  C   UNL     1       6.147   4.320  17.309  0.00  0.00    +0.000 C 
ATOM      3  C   UNL     1       4.666   4.434  17.644  0.00  0.00    +0.000 C 
ATOM      4  N   UNL     1       4.293   5.716  18.249  0.00  0.00    +0.000 N 
ATOM      5  C   UNL     1       3.242   5.903  19.174  0.00  0.00    +0.000 C 
ATOM      6  O   UNL     1       2.859   7.014  19.528  0.00  0.00    +0.000 OA
ATOM      7  C   UNL     1       4.800   6.906  17.563  0.00  0.00    +0.000 C 
ATOM      8  C   UNL     1       6.299   6.801  17.276  0.00  0.00    +0.000 C 
ENDROOT
BRANCH   5   9
ATOM      9  C   UNL     1       2.556   4.711  19.754  0.00  0.00    +0.000 A 
ATOM     10  C   UNL     1       2.891   4.302  21.056  0.00  0.00    +0.000 A 
ATOM     11  C   UNL     1       2.133   3.339  21.720  0.00  0.00    +0.000 A 
ATOM     12  C   UNL     1       1.113   2.680  21.046  0.00  0.00    +0.000 A 
ATOM     13  C   UNL     1       0.869   2.971  19.703  0.00  0.00    +0.000 A 
ATOM     14  C   UNL     1       1.580   3.991  19.053  0.00  0.00    +0.000 A 
ATOM     15 CL   UNL     1       1.158   4.302  17.407  0.00  0.00    +0.000 Cl
ENDBRANCH   5   9
BRANCH   1  17
ATOM     16  O   UNL     1       5.338   6.391  14.658  0.00  0.00    +0.000 OA
ATOM     17  C   UNL     1       6.113   5.536  15.070  0.00  0.00    +0.000 C 
ATOM     18  N   UNL     1       6.586   4.515  14.275  0.00  0.00    +0.000 N 
ATOM     19  H   UNL     1       7.422   4.019  14.578  0.00  0.00    +0.000 HD
BRANCH  18  20
ATOM     20  C   UNL     1       6.161   4.344  12.884  0.00  0.00    +0.000 C 
ATOM     21  C   UNL     1       7.355   3.981  11.986  0.00  0.00    +0.000 C 
ATOM     22  C   UNL     1       7.659   2.487  11.878  0.00  0.00    +0.000 C 
ATOM     23  C   UNL     1       6.853   1.793  10.779  0.00  0.00    +0.000 C 
ATOM     24  C   UNL     1       5.366   1.605  11.066  0.00  0.00    +0.000 C 
ATOM     25  C   UNL     1       4.607   2.873  11.451  0.00  0.00    +0.000 C 
ATOM     26  C   UNL     1       4.974   3.375  12.844  0.00  0.00    +0.000 C 
ENDBRANCH  18  20
ENDBRANCH   1  17
TORSDOF 3
ENDMDL
MODEL 2
REMARK VINA RESULT:      -7.0      6.077      8.748
REMARK  Name = 
REMARK  3 active torsions:
REMARK  status: ('A' for Active; 'I' for Inactive)
REMARK    1  A    between atoms: C_2  and  C_11
REMARK    2  A    between atoms: N_3  and  C_4
REMARK    3  A    between atoms: C_15  and  C_17
REMARK                            x       y       z     vdW  Elec       q    Type
REMARK                         _______ _______ _______ _____ _____    ______ ____
ROOT
ATOM      1  C   UNL     1       0.927   9.006  21.228  0.00  0.00    +0.000 C 
ATOM      2  C   UNL     1      -0.584   8.977  20.999  0.00  0.00    +0.000 C 
ATOM      3  C   UNL     1      -0.974   9.585  19.659  0.00  0.00    +0.000 C 
ATOM      4  N   UNL     1      -0.393  10.909  19.418  0.00  0.00    +0.000 N 
ATOM      5  C   UNL     1      -0.990  11.931  18.646  0.00  0.00    +0.000 C 
ATOM      6  O   UNL     1      -0.397  12.959  18.334  0.00  0.00    +0.000 OA
ATOM      7  C   UNL     1       1.044  11.022  19.680  0.00  0.00    +0.000 C 
ATOM      8  C   UNL     1       1.417  10.452  21.050  0.00  0.00    +0.000 C 
ENDROOT
BRANCH   5   9
ATOM      9  C   UNL     1      -2.399  11.769  18.183  0.00  0.00    +0.000 A 
ATOM     10  C   UNL     1      -2.634  11.291  16.883  0.00  0.00    +0.000 A 
ATOM     11  C   UNL     1      -3.916  10.918  16.479  0.00  0.00    +0.000 A 
ATOM     12  C   UNL     1      -4.996  11.142  17.323  0.00  0.00    +0.000 A 
ATOM     13  C   UNL     1      -4.794  11.757  18.559  0.00  0.00    +0.000 A 
ATOM     14  C   UNL     1      -3.498  12.066  18.999  0.00  0.00    +0.000 A 
ATOM     15 CL   UNL     1      -3.361  12.776  20.568  0.00  0.00    +0.000 Cl
ENDBRANCH   5   9
BRANCH   1  17
ATOM     16  O   UNL     1       2.194   8.352  19.261  0.00  0.00    +0.000 OA
ATOM     17  C   UNL     1       1.680   8.023  20.324  0.00  0.00    +0.000 C 
ATOM     18  N   UNL     1       1.746   6.737  20.816  0.00  0.00    +0.000 N 
ATOM     19  H   UNL     1       1.558   6.592  21.806  0.00  0.00    +0.000 HD
BRANCH  18  20
ATOM     20  C   UNL     1       2.395   5.649  20.081  0.00  0.00    +0.000 C 
ATOM     21  C   UNL     1       2.563   4.409  20.972  0.00  0.00    +0.000 C 
ATOM     22  C   UNL     1       1.378   3.444  20.978  0.00  0.00    +0.000 C 
ATOM     23  C   UNL     1       1.440   2.416  19.847  0.00  0.00    +0.000 C 
ATOM     24  C   UNL     1       1.165   2.956  18.446  0.00  0.00    +0.000 C 
ATOM     25  C   UNL     1       2.021   4.147  18.023  0.00  0.00    +0.000 C 
ATOM     26  C   UNL     1       1.647   5.429  18.760  0.00  0.00    +0.000 C 
ENDBRANCH  18  20
ENDBRANCH   1  17
TORSDOF 3
ENDMDL
MODEL 3
REMARK VINA RESULT:      -6.9      6.004      8.662
REMARK  Name = 
REMARK  3 active torsions:
REMARK  status: ('A' for Active; 'I' for Inactive)
REMARK    1  A    between atoms: C_2  and  C_11
REMARK    2  A    between atoms: N_3  and  C_4
REMARK    3  A    between atoms: C_15  and  C_17
REMARK                            x       y       z     vdW  Elec       q    Type
REMARK                         _______ _______ _______ _____ _____    ______ ____
ROOT
ATOM      1  C   UNL     1       1.010   8.934  21.435  0.00  0.00    +0.000 C 
ATOM      2  C   UNL     1      -0.515   8.888  21.358  0.00  0.00    +0.000 C 
ATOM      3  C   UNL     1      -1.046   9.523  20.080  0.00  0.00    +0.000 C 
ATOM      4  N   UNL     1      -0.508  10.860  19.816  0.00  0.00    +0.000 N 
ATOM      5  C   UNL     1      -1.193  11.892  19.135  0.00  0.00    +0.000 C 
ATOM      6  O   UNL     1      -0.647  12.937  18.792  0.00  0.00    +0.000 OA
ATOM      7  C   UNL     1       0.946  10.988  19.935  0.00  0.00    +0.000 C 
ATOM      8  C   UNL     1       1.462  10.391  21.246  0.00  0.00    +0.000 C 
ENDROOT
BRANCH   5   9
ATOM      9  C   UNL     1      -2.639  11.722  18.811  0.00  0.00    +0.000 A 
ATOM     10  C   UNL     1      -3.597  12.309  19.655  0.00  0.00    +0.000 A 
ATOM     11  C   UNL     1      -4.939  12.365  19.283  0.00  0.00    +0.000 A 
ATOM     12  C   UNL     1      -5.361  11.721  18.127  0.00  0.00    +0.000 A 
ATOM     13  C   UNL     1      -4.443  11.005  17.359  0.00  0.00    +0.000 A 
ATOM     14  C   UNL     1      -3.079  11.007  17.690  0.00  0.00    +0.000 A 
ATOM     15 CL   UNL     1      -2.024  10.131  16.638  0.00  0.00    +0.000 Cl
ENDBRANCH   5   9
BRANCH   1  17
ATOM     16  O   UNL     1       2.098   8.350  19.342  0.00  0.00    +0.000 OA
ATOM     17  C   UNL     1       1.681   7.984  20.434  0.00  0.00    +0.000 C 
ATOM     18  N   UNL     1       1.788   6.682  20.874  0.00  0.00    +0.000 N 
ATOM     19  H   UNL     1       1.688   6.502  21.871  0.00  0.00    +0.000 HD
BRANCH  18  20
ATOM     20  C   UNL     1       2.369   5.622  20.047  0.00  0.00    +0.000 C 
ATOM     21  C   UNL     1       2.696   4.382  20.894  0.00  0.00    +0.000 C 
ATOM     22  C   UNL     1       1.554   3.377  21.047  0.00  0.00    +0.000 C 
ATOM     23  C   UNL     1       1.499   2.360  19.906  0.00  0.00    +0.000 C 
ATOM     24  C   UNL     1       1.022   2.898  18.560  0.00  0.00    +0.000 C 
ATOM     25  C   UNL     1       1.775   4.121  18.040  0.00  0.00    +0.000 C 
ATOM     26  C   UNL     1       1.460   5.385  18.835  0.00  0.00    +0.000 C 
ENDBRANCH  18  20
ENDBRANCH   1  17
TORSDOF 3
ENDMDL
MODEL 4
REMARK VINA RESULT:      -6.8      6.216      9.010
REMARK  Name = 
REMARK  3 active torsions:
REMARK  status: ('A' for Active; 'I' for Inactive)
REMARK    1  A    between atoms: C_2  and  C_11
REMARK    2  A    between atoms: N_3  and  C_4
REMARK    3  A    between atoms: C_15  and  C_17
REMARK                            x       y       z     vdW  Elec       q    Type
REMARK                         _______ _______ _______ _____ _____    ______ ____
ROOT
ATOM      1  C   UNL     1       0.293   9.697  19.217  0.00  0.00    +0.000 C 
ATOM      2  C   UNL     1       0.842  10.753  18.258  0.00  0.00    +0.000 C 
ATOM      3  C   UNL     1       1.804  11.711  18.948  0.00  0.00    +0.000 C 
ATOM      4  N   UNL     1       1.275  12.293  20.184  0.00  0.00    +0.000 N 
ATOM      5  C   UNL     1       1.604  13.572  20.687  0.00  0.00    +0.000 C 
ATOM      6  O   UNL     1       1.269  13.952  21.805  0.00  0.00    +0.000 OA
ATOM      7  C   UNL     1       0.675  11.340  21.121  0.00  0.00    +0.000 C 
ATOM      8  C   UNL     1      -0.326  10.415  20.427  0.00  0.00    +0.000 C 
ENDROOT
BRANCH   5   9
ATOM      9  C   UNL     1       2.393  14.511  19.838  0.00  0.00    +0.000 A 
ATOM     10  C   UNL     1       3.793  14.519  19.955  0.00  0.00    +0.000 A 
ATOM     11  C   UNL     1       4.584  15.214  19.041  0.00  0.00    +0.000 A 
ATOM     12  C   UNL     1       3.982  16.013  18.078  0.00  0.00    +0.000 A 
ATOM     13  C   UNL     1       2.592  16.133  18.047  0.00  0.00    +0.000 A 
ATOM     14  C   UNL     1       1.791  15.379  18.918  0.00  0.00    +0.000 A 
ATOM     15 CL   UNL     1       0.080  15.565  18.755  0.00  0.00    +0.000 Cl
ENDBRANCH   5   9
BRANCH   1  17
ATOM     16  O   UNL     1       1.638   8.439  20.802  0.00  0.00    +0.000 OA
ATOM     17  C   UNL     1       1.352   8.668  19.632  0.00  0.00    +0.000 C 
ATOM     18  N   UNL     1       1.946   8.010  18.577  0.00  0.00    +0.000 N 
ATOM     19  H   UNL     1       1.480   8.034  17.673  0.00  0.00    +0.000 HD
BRANCH  18  20
ATOM     20  C   UNL     1       3.004   7.015  18.771  0.00  0.00    +0.000 C 
ATOM     21  C   UNL     1       2.408   5.633  19.078  0.00  0.00    +0.000 C 
ATOM     22  C   UNL     1       2.085   4.775  17.855  0.00  0.00    +0.000 C 
ATOM     23  C   UNL     1       3.280   3.951  17.373  0.00  0.00    +0.000 C 
ATOM     24  C   UNL     1       4.395   4.739  16.691  0.00  0.00    +0.000 C 
ATOM     25  C   UNL     1       4.950   5.916  17.491  0.00  0.00    +0.000 C 
ATOM     26  C   UNL     1       3.967   7.079  17.579  0.00  0.00    +0.000 C 
ENDBRANCH  18  20
ENDBRANCH   1  17
TORSDOF 3
ENDMDL
MODEL 5
REMARK VINA RESULT:      -6.7      1.627      2.107
REMARK  Name = 
REMARK  3 active torsions:
REMARK  status: ('A' for Active; 'I' for Inactive)
REMARK    1  A    between atoms: C_2  and  C_11
REMARK    2  A    between atoms: N_3  and  C_4
REMARK    3  A    between atoms: C_15  and  C_17
REMARK                            x       y       z     vdW  Elec       q    Type
REMARK                         _______ _______ _______ _____ _____    ______ ____
ROOT
ATOM      1  C   UNL     1       6.961   6.148  17.790  0.00  0.00    +0.000 C 
ATOM      2  C   UNL     1       6.533   5.443  19.077  0.00  0.00    +0.000 C 
ATOM      3  C   UNL     1       5.259   4.629  18.890  0.00  0.00    +0.000 C 
ATOM      4  N   UNL     1       4.165   5.378  18.266  0.00  0.00    +0.000 N 
ATOM      5  C   UNL     1       2.790   5.155  18.502  0.00  0.00    +0.000 C 
ATOM      6  O   UNL     1       1.908   5.690  17.837  0.00  0.00    +0.000 OA
ATOM      7  C   UNL     1       4.524   6.129  17.060  0.00  0.00    +0.000 C 
ATOM      8  C   UNL     1       5.777   6.981  17.275  0.00  0.00    +0.000 C 
ENDROOT
BRANCH   5   9
ATOM      9  C   UNL     1       2.375   4.234  19.599  0.00  0.00    +0.000 A 
ATOM     10  C   UNL     1       2.369   4.712  20.920  0.00  0.00    +0.000 A 
ATOM     11  C   UNL     1       1.789   3.970  21.947  0.00  0.00    +0.000 A 
ATOM     12  C   UNL     1       1.324   2.686  21.691  0.00  0.00    +0.000 A 
ATOM     13  C   UNL     1       1.461   2.141  20.414  0.00  0.00    +0.000 A 
ATOM     14  C   UNL     1       1.978   2.912  19.361  0.00  0.00    +0.000 A 
ATOM     15 CL   UNL     1       2.053   2.154  17.810  0.00  0.00    +0.000 Cl
ENDBRANCH   5   9
BRANCH   1  17
ATOM     16  O   UNL     1       8.256   4.252  16.992  0.00  0.00    +0.000 OA
ATOM     17  C   UNL     1       7.489   5.172  16.730  0.00  0.00    +0.000 C 
ATOM     18  N   UNL     1       7.015   5.407  15.458  0.00  0.00    +0.000 N 
ATOM     19  H   UNL     1       6.184   5.986  15.354  0.00  0.00    +0.000 HD
BRANCH  18  20
ATOM     20  C   UNL     1       7.430   4.602  14.306  0.00  0.00    +0.000 C 
ATOM     21  C   UNL     1       6.503   3.392  14.120  0.00  0.00    +0.000 C 
ATOM     22  C   UNL     1       5.266   3.644  13.259  0.00  0.00    +0.000 C 
ATOM     23  C   UNL     1       5.528   3.443  11.765  0.00  0.00    +0.000 C 
ATOM     24  C   UNL     1       6.379   4.516  11.092  0.00  0.00    +0.000 C 
ATOM     25  C   UNL     1       7.726   4.796  11.755  0.00  0.00    +0.000 C 
ATOM     26  C   UNL     1       7.583   5.522  13.089  0.00  0.00    +0.000 C 
ENDBRANCH  18  20
ENDBRANCH   1  17
TORSDOF 3
ENDMDL
MODEL 6
REMARK VINA RESULT:      -6.6      1.799      2.387
REMARK  Name = 
REMARK  3 active torsions:
REMARK  status: ('A' for Active; 'I' for Inactive)
REMARK    1  A    between atoms: C_2  and  C_11
REMARK    2  A    between atoms: N_3  and  C_4
REMARK    3  A    between atoms: C_15  and  C_17
REMARK                            x       y       z     vdW  Elec       q    Type
REMARK                         _______ _______ _______ _____ _____    ______ ____
ROOT
ATOM      1  C   UNL     1       6.829   6.139  17.884  0.00  0.00    +0.000 C 
ATOM      2  C   UNL     1       6.265   5.425  19.112  0.00  0.00    +0.000 C 
ATOM      3  C   UNL     1       4.975   4.678  18.802  0.00  0.00    +0.000 C 
ATOM      4  N   UNL     1       3.971   5.493  18.113  0.00  0.00    +0.000 N 
ATOM      5  C   UNL     1       2.572   5.331  18.231  0.00  0.00    +0.000 C 
ATOM      6  O   UNL     1       1.772   5.923  17.513  0.00  0.00    +0.000 OA
ATOM      7  C   UNL     1       4.461   6.254  16.961  0.00  0.00    +0.000 C 
ATOM      8  C   UNL     1       5.730   7.040  17.299  0.00  0.00    +0.000 C 
ENDROOT
BRANCH   5   9
ATOM      9  C   UNL     1       2.027   4.405  19.266  0.00  0.00    +0.000 A 
ATOM     10  C   UNL     1       1.838   3.053  18.934  0.00  0.00    +0.000 A 
ATOM     11  C   UNL     1       1.541   2.110  19.917  0.00  0.00    +0.000 A 
ATOM     12  C   UNL     1       1.301   2.526  21.221  0.00  0.00    +0.000 A 
ATOM     13  C   UNL     1       1.338   3.886  21.532  0.00  0.00    +0.000 A 
ATOM     14  C   UNL     1       1.708   4.830  20.562  0.00  0.00    +0.000 A 
ATOM     15 CL   UNL     1       1.773   6.480  21.072  0.00  0.00    +0.000 Cl
ENDBRANCH   5   9
BRANCH   1  17
ATOM     16  O   UNL     1       8.174   4.262  17.128  0.00  0.00    +0.000 OA
ATOM     17  C   UNL     1       7.396   5.165  16.843  0.00  0.00    +0.000 C 
ATOM     18  N   UNL     1       6.942   5.380  15.559  0.00  0.00    +0.000 N 
ATOM     19  H   UNL     1       6.103   5.943  15.435  0.00  0.00    +0.000 HD
BRANCH  18  20
ATOM     20  C   UNL     1       7.395   4.574  14.423  0.00  0.00    +0.000 C 
ATOM     21  C   UNL     1       6.466   3.371  14.200  0.00  0.00    +0.000 C 
ATOM     22  C   UNL     1       5.265   3.634  13.292  0.00  0.00    +0.000 C 
ATOM     23  C   UNL     1       5.583   3.433  11.809  0.00  0.00    +0.000 C 
ATOM     24  C   UNL     1       6.468   4.501  11.171  0.00  0.00    +0.000 C 
ATOM     25  C   UNL     1       7.790   4.769  11.886  0.00  0.00    +0.000 C 
ATOM     26  C   UNL     1       7.602   5.494  13.215  0.00  0.00    +0.000 C 
ENDBRANCH  18  20
ENDBRANCH   1  17
TORSDOF 3
ENDMDL
MODEL 7
REMARK VINA RESULT:      -6.6      6.216      8.092
REMARK  Name = 
REMARK  3 active torsions:
REMARK  status: ('A' for Active; 'I' for Inactive)
REMARK    1  A    between atoms: C_2  and  C_11
REMARK    2  A    between atoms: N_3  and  C_4
REMARK    3  A    between atoms: C_15  and  C_17
REMARK                            x       y       z     vdW  Elec       q    Type
REMARK                         _______ _______ _______ _____ _____    ______ ____
ROOT
ATOM      1  C   UNL     1       1.454   9.327  19.981  0.00  0.00    +0.000 C 
ATOM      2  C   UNL     1      -0.048   9.154  20.203  0.00  0.00    +0.000 C 
ATOM      3  C   UNL     1      -0.871   9.816  19.107  0.00  0.00    +0.000 C 
ATOM      4  N   UNL     1      -0.497  11.209  18.845  0.00  0.00    +0.000 N 
ATOM      5  C   UNL     1      -1.378  12.216  18.393  0.00  0.00    +0.000 C 
ATOM      6  O   UNL     1      -0.990  13.323  18.029  0.00  0.00    +0.000 OA
ATOM      7  C   UNL     1       0.939  11.454  18.684  0.00  0.00    +0.000 C 
ATOM      8  C   UNL     1       1.752  10.826  19.818  0.00  0.00    +0.000 C 
ENDROOT
BRANCH   5   9
ATOM      9  C   UNL     1      -2.843  11.941  18.348  0.00  0.00    +0.000 A 
ATOM     10  C   UNL     1      -3.623  12.234  19.480  0.00  0.00    +0.000 A 
ATOM     11  C   UNL     1      -5.016  12.201  19.417  0.00  0.00    +0.000 A 
ATOM     12  C   UNL     1      -5.643  11.750  18.263  0.00  0.00    +0.000 A 
ATOM     13  C   UNL     1      -4.874  11.312  17.183  0.00  0.00    +0.000 A 
ATOM     14  C   UNL     1      -3.475  11.413  17.215  0.00  0.00    +0.000 A 
ATOM     15 CL   UNL     1      -2.628  10.892  15.802  0.00  0.00    +0.000 Cl
ENDBRANCH   5   9
BRANCH   1  17
ATOM     16  O   UNL     1       2.122   8.963  17.673  0.00  0.00    +0.000 OA
ATOM     17  C   UNL     1       1.975   8.500  18.798  0.00  0.00    +0.000 C 
ATOM     18  N   UNL     1       2.280   7.193  19.111  0.00  0.00    +0.000 N 
ATOM     19  H   UNL     1       2.407   6.952  20.092  0.00  0.00    +0.000 HD
BRANCH  18  20
ATOM     20  C   UNL     1       2.760   6.239  18.109  0.00  0.00    +0.000 C 
ATOM     21  C   UNL     1       4.285   6.076  18.193  0.00  0.00    +0.000 C 
ATOM     22  C   UNL     1       4.774   5.007  19.170  0.00  0.00    +0.000 C 
ATOM     23  C   UNL     1       4.842   3.613  18.543  0.00  0.00    +0.000 C 
ATOM     24  C   UNL     1       3.498   2.942  18.274  0.00  0.00    +0.000 C 
ATOM     25  C   UNL     1       2.509   3.762  17.449  0.00  0.00    +0.000 C 
ATOM     26  C   UNL     1       1.941   4.948  18.223  0.00  0.00    +0.000 C 
ENDBRANCH  18  20
ENDBRANCH   1  17
TORSDOF 3
ENDMDL
MODEL 8
REMARK VINA RESULT:      -6.5      6.309      9.091
REMARK  Name = 
REMARK  3 active torsions:
REMARK  status: ('A' for Active; 'I' for Inactive)
REMARK    1  A    between atoms: C_2  and  C_11
REMARK    2  A    between atoms: N_3  and  C_4
REMARK    3  A    between atoms: C_15  and  C_17
REMARK                            x       y       z     vdW  Elec       q    Type
REMARK                         _______ _______ _______ _____ _____    ______ ____
ROOT
ATOM      1  C   UNL     1       0.294   9.685  19.180  0.00  0.00    +0.000 C 
ATOM      2  C   UNL     1       0.884  10.783  18.297  0.00  0.00    +0.000 C 
ATOM      3  C   UNL     1       1.795  11.721  19.076  0.00  0.00    +0.000 C 
ATOM      4  N   UNL     1       1.192  12.248  20.303  0.00  0.00    +0.000 N 
ATOM      5  C   UNL     1       1.479  13.509  20.874  0.00  0.00    +0.000 C 
ATOM      6  O   UNL     1       1.077  13.841  21.985  0.00  0.00    +0.000 OA
ATOM      7  C   UNL     1       0.552  11.253  21.167  0.00  0.00    +0.000 C 
ATOM      8  C   UNL     1      -0.399  10.348  20.381  0.00  0.00    +0.000 C 
ENDROOT
BRANCH   5   9
ATOM      9  C   UNL     1       2.303  14.488  20.108  0.00  0.00    +0.000 A 
ATOM     10  C   UNL     1       1.743  15.111  18.981  0.00  0.00    +0.000 A 
ATOM     11  C   UNL     1       2.384  16.185  18.363  0.00  0.00    +0.000 A 
ATOM     12  C   UNL     1       3.652  16.563  18.784  0.00  0.00    +0.000 A 
ATOM     13  C   UNL     1       4.284  15.853  19.806  0.00  0.00    +0.000 A 
ATOM     14  C   UNL     1       3.613  14.820  20.478  0.00  0.00    +0.000 A 
ATOM     15 CL   UNL     1       4.470  14.046  21.763  0.00  0.00    +0.000 Cl
ENDBRANCH   5   9
BRANCH   1  17
ATOM     16  O   UNL     1       1.608   8.421  20.787  0.00  0.00    +0.000 OA
ATOM     17  C   UNL     1       1.340   8.649  19.613  0.00  0.00    +0.000 C 
ATOM     18  N   UNL     1       1.944   7.983  18.569  0.00  0.00    +0.000 N 
ATOM     19  H   UNL     1       1.490   8.008  17.658  0.00  0.00    +0.000 HD
BRANCH  18  20
ATOM     20  C   UNL     1       2.991   6.982  18.780  0.00  0.00    +0.000 C 
ATOM     21  C   UNL     1       2.381   5.606  19.090  0.00  0.00    +0.000 C 
ATOM     22  C   UNL     1       2.064   4.743  17.870  0.00  0.00    +0.000 C 
ATOM     23  C   UNL     1       3.258   3.906  17.406  0.00  0.00    +0.000 C 
ATOM     24  C   UNL     1       4.386   4.681  16.731  0.00  0.00    +0.000 C 
ATOM     25  C   UNL     1       4.942   5.858  17.528  0.00  0.00    +0.000 C 
ATOM     26  C   UNL     1       3.968   7.030  17.599  0.00  0.00    +0.000 C 
ENDBRANCH  18  20
ENDBRANCH   1  17
TORSDOF 3
ENDMDL
MODEL 9
REMARK VINA RESULT:      -6.5      1.339      1.647
REMARK  Name = 
REMARK  3 active torsions:
REMARK  status: ('A' for Active; 'I' for Inactive)
REMARK    1  A    between atoms: C_2  and  C_11
REMARK    2  A    between atoms: N_3  and  C_4
REMARK    3  A    between atoms: C_15  and  C_17
REMARK                            x       y       z     vdW  Elec       q    Type
REMARK                         _______ _______ _______ _____ _____    ______ ____
ROOT
ATOM      1  C   UNL     1       7.366   5.122  16.284  0.00  0.00    +0.000 C 
ATOM      2  C   UNL     1       6.548   4.015  16.950  0.00  0.00    +0.000 C 
ATOM      3  C   UNL     1       5.052   4.290  16.889  0.00  0.00    +0.000 C 
ATOM      4  N   UNL     1       4.676   5.627  17.356  0.00  0.00    +0.000 N 
ATOM      5  C   UNL     1       3.450   5.957  17.976  0.00  0.00    +0.000 C 
ATOM      6  O   UNL     1       3.111   7.115  18.200  0.00  0.00    +0.000 OA
ATOM      7  C   UNL     1       5.465   6.731  16.803  0.00  0.00    +0.000 C 
ATOM      8  C   UNL     1       6.968   6.465  16.915  0.00  0.00    +0.000 C 
ENDROOT
BRANCH   5   9
ATOM      9  C   UNL     1       2.516   4.866  18.378  0.00  0.00    +0.000 A 
ATOM     10  C   UNL     1       2.341   3.770  17.517  0.00  0.00    +0.000 A 
ATOM     11  C   UNL     1       1.656   2.631  17.937  0.00  0.00    +0.000 A 
ATOM     12  C   UNL     1       1.026   2.625  19.175  0.00  0.00    +0.000 A 
ATOM     13  C   UNL     1       1.064   3.765  19.978  0.00  0.00    +0.000 A 
ATOM     14  C   UNL     1       1.814   4.886  19.591  0.00  0.00    +0.000 A 
ATOM     15 CL   UNL     1       1.836   6.222  20.687  0.00  0.00    +0.000 Cl
ENDBRANCH   5   9
BRANCH   1  17
ATOM     16  O   UNL     1       7.904   5.829  14.022  0.00  0.00    +0.000 OA
ATOM     17  C   UNL     1       7.216   5.130  14.757  0.00  0.00    +0.000 C 
ATOM     18  N   UNL     1       6.250   4.271  14.278  0.00  0.00    +0.000 N 
ATOM     19  H   UNL     1       5.920   3.529  14.893  0.00  0.00    +0.000 HD
BRANCH  18  20
ATOM     20  C   UNL     1       5.937   4.162  12.852  0.00  0.00    +0.000 C 
ATOM     21  C   UNL     1       7.180   3.752  12.047  0.00  0.00    +0.000 C 
ATOM     22  C   UNL     1       7.406   2.246  11.919  0.00  0.00    +0.000 C 
ATOM     23  C   UNL     1       6.659   1.629  10.735  0.00  0.00    +0.000 C 
ATOM     24  C   UNL     1       5.145   1.522  10.891  0.00  0.00    +0.000 C 
ATOM     25  C   UNL     1       4.430   2.822  11.250  0.00  0.00    +0.000 C 
ATOM     26  C   UNL     1       4.704   3.266  12.683  0.00  0.00    +0.000 C 
ENDBRANCH  18  20
ENDBRANCH   1  17
TORSDOF 3
ENDMDL
