MODEL 1
REMARK VINA RESULT:      -9.6      0.000      0.000
REMARK  Name = 
REMARK  9 active torsions:
REMARK  status: ('A' for Active; 'I' for Inactive)
REMARK    1  A    between atoms: C_1  and  O_2
REMARK    2  A    between atoms: O_2  and  C_3
REMARK    3  A    between atoms: C_7  and  C_8
REMARK    4  A    between atoms: N_10  and  C_11
REMARK    5  A    between atoms: C_17  and  N_18
REMARK    6  A    between atoms: N_18  and  S_19
REMARK    7  A    between atoms: S_19  and  C_22
REMARK    8  A    between atoms: C_25  and  N_26
REMARK    9  A    between atoms: C_31  and  O_32
REMARK                            x       y       z     vdW  Elec       q    Type
REMARK                         _______ _______ _______ _____ _____    ______ ____
ROOT
ATOM      1  C   UNL     1       2.081   6.445  19.411  0.00  0.00    +0.000 A 
ATOM      2  C   UNL     1       1.517   6.095  18.182  0.00  0.00    +0.000 A 
ATOM      3  C   UNL     1       1.840   4.868  17.570  0.00  0.00    +0.000 A 
ATOM      4  C   UNL     1       2.727   3.977  18.188  0.00  0.00    +0.000 A 
ATOM      5  C   UNL     1       3.475   4.453  19.264  0.00  0.00    +0.000 A 
ATOM      6  C   UNL     1       3.145   5.674  19.875  0.00  0.00    +0.000 A 
ATOM      7  C   UNL     1       4.648   3.652  19.748  0.00  0.00    +0.000 C 
ATOM      8  C   UNL     1       4.222   2.185  19.989  0.00  0.00    +0.000 C 
ATOM      9  C   UNL     1       3.596   1.563  18.726  0.00  0.00    +0.000 C 
ATOM     10  C   UNL     1       2.850   2.530  17.762  0.00  0.00    +0.000 C 
ENDROOT
BRANCH   1  13
ATOM     11  C   UNL     1       1.285   8.764  19.925  0.00  0.00    +0.000 C 
ATOM     12  O   UNL     1       1.607   9.297  18.876  0.00  0.00    +0.000 OA
ATOM     13  N   UNL     1       1.591   7.459  20.282  0.00  0.00    +0.000 N 
ATOM     14  H   UNL     1       1.339   7.157  21.214  0.00  0.00    +0.000 HD
BRANCH  11  19
ATOM     15  C   UNL     1      -0.413  11.647  21.787  0.00  0.00    +0.000 A 
ATOM     16  C   UNL     1      -0.757  10.987  22.964  0.00  0.00    +0.000 A 
ATOM     17  C   UNL     1      -0.468   9.636  23.132  0.00  0.00    +0.000 A 
ATOM     18  C   UNL     1       0.168   8.937  22.111  0.00  0.00    +0.000 A 
ATOM     19  C   UNL     1       0.503   9.576  20.909  0.00  0.00    +0.000 A 
ATOM     20  C   UNL     1       0.216  10.945  20.744  0.00  0.00    +0.000 A 
BRANCH  15  22
ATOM     21  C   UNL     1      -1.051  13.581  23.010  0.00  0.00    +0.000 C 
ATOM     22  O   UNL     1      -0.746  12.973  21.768  0.00  0.00    +0.000 OA
ENDBRANCH  15  22
ENDBRANCH  11  19
ENDBRANCH   1  13
BRANCH   7  23
ATOM     23  N   UNL     1       5.716   3.565  18.746  0.00  0.00    +0.000 NA
ATOM     24  H   UNL     1       5.674   2.784  18.097  0.00  0.00    +0.000 HD
BRANCH  23  25
ATOM     25  S   UNL     1       6.673   4.762  18.180  0.00  0.00    +0.000 S 
ATOM     26  O   UNL     1       5.990   5.998  18.497  0.00  0.00    +0.000 OA
ATOM     27  O   UNL     1       8.050   4.521  18.558  0.00  0.00    +0.000 OA
BRANCH  25  28
ATOM     28  C   UNL     1       6.518   4.522  16.431  0.00  0.00    +0.000 A 
ATOM     29  C   UNL     1       5.455   3.757  15.932  0.00  0.00    +0.000 A 
ATOM     30  C   UNL     1       5.387   3.520  14.560  0.00  0.00    +0.000 A 
ATOM     31  C   UNL     1       6.373   4.054  13.715  0.00  0.00    +0.000 A 
ATOM     32  C   UNL     1       7.407   4.850  14.228  0.00  0.00    +0.000 A 
ATOM     33  C   UNL     1       7.473   5.084  15.594  0.00  0.00    +0.000 A 
BRANCH  31  34
ATOM     34  N   UNL     1       6.339   3.762  12.275  0.00  0.00    +0.000 N 
ATOM     35  O   UNL     1       5.440   3.015  11.866  0.00  0.00    +0.000 OA
ATOM     36  O   UNL     1       7.227   4.255  11.563  0.00  0.00    +0.000 OA
ENDBRANCH  31  34
ENDBRANCH  25  28
ENDBRANCH  23  25
ENDBRANCH   7  23
BRANCH   8  37
ATOM     37  O   UNL     1       5.382   1.412  20.362  0.00  0.00    +0.000 OA
ATOM     38  H   UNL     1       5.202   1.017  21.236  0.00  0.00    +0.000 HD
ENDBRANCH   8  37
TORSDOF 8
ENDMDL
MODEL 2
REMARK VINA RESULT:      -8.8      0.852      1.320
REMARK  Name = 
REMARK  9 active torsions:
REMARK  status: ('A' for Active; 'I' for Inactive)
REMARK    1  A    between atoms: C_1  and  O_2
REMARK    2  A    between atoms: O_2  and  C_3
REMARK    3  A    between atoms: C_7  and  C_8
REMARK    4  A    between atoms: N_10  and  C_11
REMARK    5  A    between atoms: C_17  and  N_18
REMARK    6  A    between atoms: N_18  and  S_19
REMARK    7  A    between atoms: S_19  and  C_22
REMARK    8  A    between atoms: C_25  and  N_26
REMARK    9  A    between atoms: C_31  and  O_32
REMARK                            x       y       z     vdW  Elec       q    Type
REMARK                         _______ _______ _______ _____ _____    ______ ____
ROOT
ATOM      1  C   UNL     1       2.299   6.953  19.085  0.00  0.00    +0.000 A 
ATOM      2  C   UNL     1       1.640   6.503  17.939  0.00  0.00    +0.000 A 
ATOM      3  C   UNL     1       1.831   5.187  17.473  0.00  0.00    +0.000 A 
ATOM      4  C   UNL     1       2.681   4.307  18.157  0.00  0.00    +0.000 A 
ATOM      5  C   UNL     1       3.526   4.848  19.126  0.00  0.00    +0.000 A 
ATOM      6  C   UNL     1       3.327   6.159  19.592  0.00  0.00    +0.000 A 
ATOM      7  C   UNL     1       4.659   4.018  19.650  0.00  0.00    +0.000 C 
ATOM      8  C   UNL     1       4.137   2.633  20.097  0.00  0.00    +0.000 C 
ATOM      9  C   UNL     1       3.393   1.914  18.956  0.00  0.00    +0.000 C 
ATOM     10  C   UNL     1       2.667   2.814  17.913  0.00  0.00    +0.000 C 
ENDROOT
BRANCH   1  13
ATOM     11  C   UNL     1       1.436   9.292  19.333  0.00  0.00    +0.000 C 
ATOM     12  O   UNL     1       1.443   9.607  18.155  0.00  0.00    +0.000 OA
ATOM     13  N   UNL     1       1.941   8.104  19.842  0.00  0.00    +0.000 N 
ATOM     14  H   UNL     1       1.952   7.992  20.847  0.00  0.00    +0.000 HD
BRANCH  11  19
ATOM     15  C   UNL     1      -0.640  10.880  22.131  0.00  0.00    +0.000 A 
ATOM     16  C   UNL     1      -0.363  12.223  21.885  0.00  0.00    +0.000 A 
ATOM     17  C   UNL     1       0.495  12.595  20.856  0.00  0.00    +0.000 A 
ATOM     18  C   UNL     1       1.087  11.615  20.066  0.00  0.00    +0.000 A 
ATOM     19  C   UNL     1       0.842  10.256  20.310  0.00  0.00    +0.000 A 
ATOM     20  C   UNL     1      -0.034   9.881  21.348  0.00  0.00    +0.000 A 
BRANCH  15  22
ATOM     21  C   UNL     1      -2.448  11.687  23.442  0.00  0.00    +0.000 C 
ATOM     22  O   UNL     1      -1.510  10.664  23.163  0.00  0.00    +0.000 OA
ENDBRANCH  15  22
ENDBRANCH  11  19
ENDBRANCH   1  13
BRANCH   7  23
ATOM     23  N   UNL     1       5.658   3.719  18.616  0.00  0.00    +0.000 NA
ATOM     24  H   UNL     1       5.473   2.919  18.019  0.00  0.00    +0.000 HD
BRANCH  23  25
ATOM     25  S   UNL     1       6.752   4.729  17.946  0.00  0.00    +0.000 S 
ATOM     26  O   UNL     1       6.275   6.067  18.215  0.00  0.00    +0.000 OA
ATOM     27  O   UNL     1       8.096   4.304  18.282  0.00  0.00    +0.000 OA
BRANCH  25  28
ATOM     28  C   UNL     1       6.482   4.423  16.221  0.00  0.00    +0.000 A 
ATOM     29  C   UNL     1       5.419   3.600  15.825  0.00  0.00    +0.000 A 
ATOM     30  C   UNL     1       5.261   3.314  14.470  0.00  0.00    +0.000 A 
ATOM     31  C   UNL     1       6.160   3.858  13.538  0.00  0.00    +0.000 A 
ATOM     32  C   UNL     1       7.194   4.711  13.949  0.00  0.00    +0.000 A 
ATOM     33  C   UNL     1       7.349   4.994  15.299  0.00  0.00    +0.000 A 
BRANCH  31  34
ATOM     34  N   UNL     1       6.035   3.516  12.115  0.00  0.00    +0.000 N 
ATOM     35  O   UNL     1       7.075   3.241  11.501  0.00  0.00    +0.000 OA
ATOM     36  O   UNL     1       4.904   3.551  11.608  0.00  0.00    +0.000 OA
ENDBRANCH  31  34
ENDBRANCH  25  28
ENDBRANCH  23  25
ENDBRANCH   7  23
BRANCH   8  37
ATOM     37  O   UNL     1       5.255   1.817  20.509  0.00  0.00    +0.000 OA
ATOM     38  H   UNL     1       5.833   1.699  19.732  0.00  0.00    +0.000 HD
ENDBRANCH   8  37
TORSDOF 8
ENDMDL
MODEL 3
REMARK VINA RESULT:      -8.5      0.831      1.470
REMARK  Name = 
REMARK  9 active torsions:
REMARK  status: ('A' for Active; 'I' for Inactive)
REMARK    1  A    between atoms: C_1  and  O_2
REMARK    2  A    between atoms: O_2  and  C_3
REMARK    3  A    between atoms: C_7  and  C_8
REMARK    4  A    between atoms: N_10  and  C_11
REMARK    5  A    between atoms: C_17  and  N_18
REMARK    6  A    between atoms: N_18  and  S_19
REMARK    7  A    between atoms: S_19  and  C_22
REMARK    8  A    between atoms: C_25  and  N_26
REMARK    9  A    between atoms: C_31  and  O_32
REMARK                            x       y       z     vdW  Elec       q    Type
REMARK                         _______ _______ _______ _____ _____    ______ ____
ROOT
ATOM      1  C   UNL     1       2.035   6.579  18.739  0.00  0.00    +0.000 A 
ATOM      2  C   UNL     1       1.519   5.992  17.581  0.00  0.00    +0.000 A 
ATOM      3  C   UNL     1       1.877   4.678  17.224  0.00  0.00    +0.000 A 
ATOM      4  C   UNL     1       2.751   3.935  18.030  0.00  0.00    +0.000 A 
ATOM      5  C   UNL     1       3.456   4.619  19.020  0.00  0.00    +0.000 A 
ATOM      6  C   UNL     1       3.091   5.928  19.377  0.00  0.00    +0.000 A 
ATOM      7  C   UNL     1       4.619   3.945  19.685  0.00  0.00    +0.000 C 
ATOM      8  C   UNL     1       4.200   2.543  20.186  0.00  0.00    +0.000 C 
ATOM      9  C   UNL     1       3.627   1.682  19.045  0.00  0.00    +0.000 C 
ATOM     10  C   UNL     1       2.905   2.436  17.891  0.00  0.00    +0.000 C 
ENDROOT
BRANCH   1  13
ATOM     11  C   UNL     1       1.547   9.031  18.902  0.00  0.00    +0.000 C 
ATOM     12  O   UNL     1       2.243   9.410  17.975  0.00  0.00    +0.000 OA
ATOM     13  N   UNL     1       1.504   7.730  19.385  0.00  0.00    +0.000 N 
ATOM     14  H   UNL     1       0.948   7.557  20.212  0.00  0.00    +0.000 HD
BRANCH  11  19
ATOM     15  C   UNL     1      -0.220  11.205  21.512  0.00  0.00    +0.000 A 
ATOM     16  C   UNL     1      -1.204  11.773  20.707  0.00  0.00    +0.000 A 
ATOM     17  C   UNL     1      -1.270  11.476  19.349  0.00  0.00    +0.000 A 
ATOM     18  C   UNL     1      -0.341  10.606  18.789  0.00  0.00    +0.000 A 
ATOM     19  C   UNL     1       0.673  10.040  19.577  0.00  0.00    +0.000 A 
ATOM     20  C   UNL     1       0.734  10.336  20.953  0.00  0.00    +0.000 A 
BRANCH  15  22
ATOM     21  C   UNL     1      -1.212  12.590  23.167  0.00  0.00    +0.000 C 
ATOM     22  O   UNL     1      -0.285  11.575  22.826  0.00  0.00    +0.000 OA
ENDBRANCH  15  22
ENDBRANCH  11  19
ENDBRANCH   1  13
BRANCH   7  23
ATOM     23  N   UNL     1       5.723   3.689  18.753  0.00  0.00    +0.000 NA
ATOM     24  H   UNL     1       5.650   2.858  18.173  0.00  0.00    +0.000 HD
BRANCH  23  25
ATOM     25  S   UNL     1       6.798   4.755  18.140  0.00  0.00    +0.000 S 
ATOM     26  O   UNL     1       6.228   6.066  18.365  0.00  0.00    +0.000 OA
ATOM     27  O   UNL     1       8.140   4.411  18.563  0.00  0.00    +0.000 OA
BRANCH  25  28
ATOM     28  C   UNL     1       6.653   4.421  16.405  0.00  0.00    +0.000 A 
ATOM     29  C   UNL     1       7.497   5.082  15.503  0.00  0.00    +0.000 A 
ATOM     30  C   UNL     1       7.325   4.861  14.137  0.00  0.00    +0.000 A 
ATOM     31  C   UNL     1       6.320   3.982  13.700  0.00  0.00    +0.000 A 
ATOM     32  C   UNL     1       5.511   3.299  14.619  0.00  0.00    +0.000 A 
ATOM     33  C   UNL     1       5.685   3.522  15.978  0.00  0.00    +0.000 A 
BRANCH  31  34
ATOM     34  N   UNL     1       6.095   3.787  12.261  0.00  0.00    +0.000 N 
ATOM     35  O   UNL     1       4.975   3.391  11.908  0.00  0.00    +0.000 OA
ATOM     36  O   UNL     1       7.043   4.002  11.492  0.00  0.00    +0.000 OA
ENDBRANCH  31  34
ENDBRANCH  25  28
ENDBRANCH  23  25
ENDBRANCH   7  23
BRANCH   8  37
ATOM     37  O   UNL     1       5.356   1.875  20.737  0.00  0.00    +0.000 OA
ATOM     38  H   UNL     1       5.275   1.904  21.709  0.00  0.00    +0.000 HD
ENDBRANCH   8  37
TORSDOF 8
ENDMDL
MODEL 4
REMARK VINA RESULT:      -8.0      4.131     11.937
REMARK  Name = 
REMARK  9 active torsions:
REMARK  status: ('A' for Active; 'I' for Inactive)
REMARK    1  A    between atoms: C_1  and  O_2
REMARK    2  A    between atoms: O_2  and  C_3
REMARK    3  A    between atoms: C_7  and  C_8
REMARK    4  A    between atoms: N_10  and  C_11
REMARK    5  A    between atoms: C_17  and  N_18
REMARK    6  A    between atoms: N_18  and  S_19
REMARK    7  A    between atoms: S_19  and  C_22
REMARK    8  A    between atoms: C_25  and  N_26
REMARK    9  A    between atoms: C_31  and  O_32
REMARK                            x       y       z     vdW  Elec       q    Type
REMARK                         _______ _______ _______ _____ _____    ______ ____
ROOT
ATOM      1  C   UNL     1       1.282   9.107  18.450  0.00  0.00    +0.000 A 
ATOM      2  C   UNL     1       0.209   9.024  17.561  0.00  0.00    +0.000 A 
ATOM      3  C   UNL     1      -0.774  10.032  17.530  0.00  0.00    +0.000 A 
ATOM      4  C   UNL     1      -0.687  11.137  18.387  0.00  0.00    +0.000 A 
ATOM      5  C   UNL     1       0.228  11.069  19.437  0.00  0.00    +0.000 A 
ATOM      6  C   UNL     1       1.211  10.065  19.460  0.00  0.00    +0.000 A 
ATOM      7  C   UNL     1       0.137  12.071  20.550  0.00  0.00    +0.000 C 
ATOM      8  C   UNL     1       0.083  13.502  19.968  0.00  0.00    +0.000 C 
ATOM      9  C   UNL     1      -1.077  13.663  18.968  0.00  0.00    +0.000 C 
ATOM     10  C   UNL     1      -1.503  12.394  18.174  0.00  0.00    +0.000 C 
ENDROOT
BRANCH   1  13
ATOM     11  C   UNL     1       2.708   7.083  18.835  0.00  0.00    +0.000 C 
ATOM     12  O   UNL     1       1.975   6.497  19.614  0.00  0.00    +0.000 OA
ATOM     13  N   UNL     1       2.493   8.365  18.350  0.00  0.00    +0.000 N 
ATOM     14  H   UNL     1       3.216   8.774  17.772  0.00  0.00    +0.000 HD
BRANCH  11  19
ATOM     15  C   UNL     1       5.608   5.770  16.706  0.00  0.00    +0.000 A 
ATOM     16  C   UNL     1       6.082   4.774  17.556  0.00  0.00    +0.000 A 
ATOM     17  C   UNL     1       5.491   4.558  18.797  0.00  0.00    +0.000 A 
ATOM     18  C   UNL     1       4.416   5.347  19.194  0.00  0.00    +0.000 A 
ATOM     19  C   UNL     1       3.937   6.371  18.363  0.00  0.00    +0.000 A 
ATOM     20  C   UNL     1       4.533   6.584  17.105  0.00  0.00    +0.000 A 
BRANCH  15  22
ATOM     21  C   UNL     1       6.578   4.647  14.852  0.00  0.00    +0.000 C 
ATOM     22  O   UNL     1       6.276   5.860  15.516  0.00  0.00    +0.000 OA
ENDBRANCH  15  22
ENDBRANCH  11  19
ENDBRANCH   1  13
BRANCH   7  23
ATOM     23  N   UNL     1      -1.106  11.939  21.319  0.00  0.00    +0.000 NA
ATOM     24  H   UNL     1      -1.860  11.414  20.886  0.00  0.00    +0.000 HD
BRANCH  23  25
ATOM     25  S   UNL     1      -1.313  12.061  22.935  0.00  0.00    +0.000 S 
ATOM     26  O   UNL     1      -1.138  10.725  23.460  0.00  0.00    +0.000 OA
ATOM     27  O   UNL     1      -0.574  13.197  23.448  0.00  0.00    +0.000 OA
BRANCH  25  28
ATOM     28  C   UNL     1      -3.044  12.429  23.027  0.00  0.00    +0.000 A 
ATOM     29  C   UNL     1      -3.693  12.385  24.268  0.00  0.00    +0.000 A 
ATOM     30  C   UNL     1      -5.068  12.609  24.314  0.00  0.00    +0.000 A 
ATOM     31  C   UNL     1      -5.766  12.878  23.125  0.00  0.00    +0.000 A 
ATOM     32  C   UNL     1      -5.093  12.958  21.898  0.00  0.00    +0.000 A 
ATOM     33  C   UNL     1      -3.724  12.733  21.855  0.00  0.00    +0.000 A 
BRANCH  31  34
ATOM     34  N   UNL     1      -7.224  13.060  23.158  0.00  0.00    +0.000 N 
ATOM     35  O   UNL     1      -7.804  12.829  24.228  0.00  0.00    +0.000 OA
ATOM     36  O   UNL     1      -7.788  13.403  22.108  0.00  0.00    +0.000 OA
ENDBRANCH  31  34
ENDBRANCH  25  28
ENDBRANCH  23  25
ENDBRANCH   7  23
BRANCH   8  37
ATOM     37  O   UNL     1      -0.100  14.444  21.048  0.00  0.00    +0.000 OA
ATOM     38  H   UNL     1      -0.954  14.240  21.473  0.00  0.00    +0.000 HD
ENDBRANCH   8  37
TORSDOF 8
ENDMDL
MODEL 5
REMARK VINA RESULT:      -7.9      4.134     11.875
REMARK  Name = 
REMARK  9 active torsions:
REMARK  status: ('A' for Active; 'I' for Inactive)
REMARK    1  A    between atoms: C_1  and  O_2
REMARK    2  A    between atoms: O_2  and  C_3
REMARK    3  A    between atoms: C_7  and  C_8
REMARK    4  A    between atoms: N_10  and  C_11
REMARK    5  A    between atoms: C_17  and  N_18
REMARK    6  A    between atoms: N_18  and  S_19
REMARK    7  A    between atoms: S_19  and  C_22
REMARK    8  A    between atoms: C_25  and  N_26
REMARK    9  A    between atoms: C_31  and  O_32
REMARK                            x       y       z     vdW  Elec       q    Type
REMARK                         _______ _______ _______ _____ _____    ______ ____
ROOT
ATOM      1  C   UNL     1       1.004   9.136  18.602  0.00  0.00    +0.000 A 
ATOM      2  C   UNL     1      -0.003   9.282  17.645  0.00  0.00    +0.000 A 
ATOM      3  C   UNL     1      -0.767  10.463  17.584  0.00  0.00    +0.000 A 
ATOM      4  C   UNL     1      -0.524  11.514  18.479  0.00  0.00    +0.000 A 
ATOM      5  C   UNL     1       0.287  11.249  19.582  0.00  0.00    +0.000 A 
ATOM      6  C   UNL     1       1.053  10.071  19.635  0.00  0.00    +0.000 A 
ATOM      7  C   UNL     1       0.317  12.228  20.717  0.00  0.00    +0.000 C 
ATOM      8  C   UNL     1       0.582  13.653  20.178  0.00  0.00    +0.000 C 
ATOM      9  C   UNL     1      -0.455  14.057  19.113  0.00  0.00    +0.000 C 
ATOM     10  C   UNL     1      -1.064  12.910  18.255  0.00  0.00    +0.000 C 
ENDROOT
BRANCH   1  13
ATOM     11  C   UNL     1       2.195   7.080  19.397  0.00  0.00    +0.000 C 
ATOM     12  O   UNL     1       1.582   6.914  20.438  0.00  0.00    +0.000 OA
ATOM     13  N   UNL     1       2.051   8.174  18.555  0.00  0.00    +0.000 N 
ATOM     14  H   UNL     1       2.675   8.238  17.761  0.00  0.00    +0.000 HD
BRANCH  11  19
ATOM     15  C   UNL     1       5.369   4.976  18.998  0.00  0.00    +0.000 A 
ATOM     16  C   UNL     1       4.972   4.164  17.939  0.00  0.00    +0.000 A 
ATOM     17  C   UNL     1       3.699   4.281  17.392  0.00  0.00    +0.000 A 
ATOM     18  C   UNL     1       2.811   5.218  17.910  0.00  0.00    +0.000 A 
ATOM     19  C   UNL     1       3.181   6.031  18.992  0.00  0.00    +0.000 A 
ATOM     20  C   UNL     1       4.473   5.915  19.540  0.00  0.00    +0.000 A 
BRANCH  15  22
ATOM     21  C   UNL     1       7.611   5.751  19.111  0.00  0.00    +0.000 C 
ATOM     22  O   UNL     1       6.650   4.760  19.425  0.00  0.00    +0.000 OA
ENDBRANCH  15  22
ENDBRANCH  11  19
ENDBRANCH   1  13
BRANCH   7  23
ATOM     23  N   UNL     1      -0.976  12.328  21.403  0.00  0.00    +0.000 NA
ATOM     24  H   UNL     1      -1.799  12.062  20.870  0.00  0.00    +0.000 HD
BRANCH  23  25
ATOM     25  S   UNL     1      -1.273  12.318  23.009  0.00  0.00    +0.000 S 
ATOM     26  O   UNL     1      -0.963  10.980  23.462  0.00  0.00    +0.000 OA
ATOM     27  O   UNL     1      -0.702  13.496  23.630  0.00  0.00    +0.000 OA
BRANCH  25  28
ATOM     28  C   UNL     1      -3.038  12.472  23.028  0.00  0.00    +0.000 A 
ATOM     29  C   UNL     1      -3.722  12.713  21.829  0.00  0.00    +0.000 A 
ATOM     30  C   UNL     1      -5.103  12.900  21.870  0.00  0.00    +0.000 A 
ATOM     31  C   UNL     1      -5.773  12.837  23.103  0.00  0.00    +0.000 A 
ATOM     32  C   UNL     1      -5.078  12.555  24.288  0.00  0.00    +0.000 A 
ATOM     33  C   UNL     1      -3.703  12.370  24.243  0.00  0.00    +0.000 A 
BRANCH  31  34
ATOM     34  N   UNL     1      -7.220  13.089  23.163  0.00  0.00    +0.000 N 
ATOM     35  O   UNL     1      -7.752  13.593  22.165  0.00  0.00    +0.000 OA
ATOM     36  O   UNL     1      -7.813  12.809  24.215  0.00  0.00    +0.000 OA
ENDBRANCH  31  34
ENDBRANCH  25  28
ENDBRANCH  23  25
ENDBRANCH   7  23
BRANCH   8  37
ATOM     37  O   UNL     1       0.513  14.592  21.273  0.00  0.00    +0.000 OA
ATOM     38  H   UNL     1       1.053  15.367  21.028  0.00  0.00    +0.000 HD
ENDBRANCH   8  37
TORSDOF 8
ENDMDL
MODEL 6
REMARK VINA RESULT:      -7.9      4.611     11.605
REMARK  Name = 
REMARK  9 active torsions:
REMARK  status: ('A' for Active; 'I' for Inactive)
REMARK    1  A    between atoms: C_1  and  O_2
REMARK    2  A    between atoms: O_2  and  C_3
REMARK    3  A    between atoms: C_7  and  C_8
REMARK    4  A    between atoms: N_10  and  C_11
REMARK    5  A    between atoms: C_17  and  N_18
REMARK    6  A    between atoms: N_18  and  S_19
REMARK    7  A    between atoms: S_19  and  C_22
REMARK    8  A    between atoms: C_25  and  N_26
REMARK    9  A    between atoms: C_31  and  O_32
REMARK                            x       y       z     vdW  Elec       q    Type
REMARK                         _______ _______ _______ _____ _____    ______ ____
ROOT
ATOM      1  C   UNL     1       0.166  10.192  19.027  0.00  0.00    +0.000 A 
ATOM      2  C   UNL     1      -0.786  10.657  18.118  0.00  0.00    +0.000 A 
ATOM      3  C   UNL     1      -1.095  12.030  18.045  0.00  0.00    +0.000 A 
ATOM      4  C   UNL     1      -0.445  12.950  18.879  0.00  0.00    +0.000 A 
ATOM      5  C   UNL     1       0.292  12.444  19.948  0.00  0.00    +0.000 A 
ATOM      6  C   UNL     1       0.603  11.075  20.014  0.00  0.00    +0.000 A 
ATOM      7  C   UNL     1       0.733  13.377  21.036  0.00  0.00    +0.000 C 
ATOM      8  C   UNL     1       1.441  14.607  20.422  0.00  0.00    +0.000 C 
ATOM      9  C   UNL     1       0.543  15.322  19.395  0.00  0.00    +0.000 C 
ATOM     10  C   UNL     1      -0.480  14.441  18.622  0.00  0.00    +0.000 C 
ENDROOT
BRANCH   1  13
ATOM     11  C   UNL     1       1.901   8.597  18.177  0.00  0.00    +0.000 C 
ATOM     12  O   UNL     1       2.322   9.272  17.252  0.00  0.00    +0.000 OA
ATOM     13  N   UNL     1       0.809   8.923  18.968  0.00  0.00    +0.000 N 
ATOM     14  H   UNL     1       0.507   8.242  19.652  0.00  0.00    +0.000 HD
BRANCH  11  19
ATOM     15  C   UNL     1       3.094   5.365  19.848  0.00  0.00    +0.000 A 
ATOM     16  C   UNL     1       4.201   5.090  19.049  0.00  0.00    +0.000 A 
ATOM     17  C   UNL     1       4.530   5.919  17.982  0.00  0.00    +0.000 A 
ATOM     18  C   UNL     1       3.743   7.033  17.707  0.00  0.00    +0.000 A 
ATOM     19  C   UNL     1       2.610   7.316  18.485  0.00  0.00    +0.000 A 
ATOM     20  C   UNL     1       2.283   6.479  19.570  0.00  0.00    +0.000 A 
BRANCH  15  22
ATOM     21  C   UNL     1       1.742   3.661  20.801  0.00  0.00    +0.000 C 
ATOM     22  O   UNL     1       2.900   4.474  20.867  0.00  0.00    +0.000 OA
ENDBRANCH  15  22
ENDBRANCH  11  19
ENDBRANCH   1  13
BRANCH   7  23
ATOM     23  N   UNL     1      -0.399  13.938  21.784  0.00  0.00    +0.000 NA
ATOM     24  H   UNL     1      -1.023  14.556  21.273  0.00  0.00    +0.000 HD
BRANCH  23  25
ATOM     25  S   UNL     1      -1.103  13.360  23.139  0.00  0.00    +0.000 S 
ATOM     26  O   UNL     1      -0.571  12.027  23.324  0.00  0.00    +0.000 OA
ATOM     27  O   UNL     1      -1.067  14.359  24.186  0.00  0.00    +0.000 OA
BRANCH  25  28
ATOM     28  C   UNL     1      -2.780  13.174  22.596  0.00  0.00    +0.000 A 
ATOM     29  C   UNL     1      -3.815  13.179  23.541  0.00  0.00    +0.000 A 
ATOM     30  C   UNL     1      -5.121  12.963  23.106  0.00  0.00    +0.000 A 
ATOM     31  C   UNL     1      -5.370  12.754  21.739  0.00  0.00    +0.000 A 
ATOM     32  C   UNL     1      -4.326  12.793  20.803  0.00  0.00    +0.000 A 
ATOM     33  C   UNL     1      -3.027  13.007  21.240  0.00  0.00    +0.000 A 
BRANCH  31  34
ATOM     34  N   UNL     1      -6.736  12.470  21.279  0.00  0.00    +0.000 N 
ATOM     35  O   UNL     1      -7.077  11.282  21.206  0.00  0.00    +0.000 OA
ATOM     36  O   UNL     1      -7.453  13.432  20.966  0.00  0.00    +0.000 OA
ENDBRANCH  31  34
ENDBRANCH  25  28
ENDBRANCH  23  25
ENDBRANCH   7  23
BRANCH   8  37
ATOM     37  O   UNL     1       1.773  15.536  21.476  0.00  0.00    +0.000 OA
ATOM     38  H   UNL     1       2.740  15.503  21.601  0.00  0.00    +0.000 HD
ENDBRANCH   8  37
TORSDOF 8
ENDMDL
MODEL 7
REMARK VINA RESULT:      -7.9      4.116     11.598
REMARK  Name = 
REMARK  9 active torsions:
REMARK  status: ('A' for Active; 'I' for Inactive)
REMARK    1  A    between atoms: C_1  and  O_2
REMARK    2  A    between atoms: O_2  and  C_3
REMARK    3  A    between atoms: C_7  and  C_8
REMARK    4  A    between atoms: N_10  and  C_11
REMARK    5  A    between atoms: C_17  and  N_18
REMARK    6  A    between atoms: N_18  and  S_19
REMARK    7  A    between atoms: S_19  and  C_22
REMARK    8  A    between atoms: C_25  and  N_26
REMARK    9  A    between atoms: C_31  and  O_32
REMARK                            x       y       z     vdW  Elec       q    Type
REMARK                         _______ _______ _______ _____ _____    ______ ____
ROOT
ATOM      1  C   UNL     1       0.710  10.028  19.319  0.00  0.00    +0.000 A 
ATOM      2  C   UNL     1      -0.298  10.261  18.381  0.00  0.00    +0.000 A 
ATOM      3  C   UNL     1      -0.798  11.562  18.177  0.00  0.00    +0.000 A 
ATOM      4  C   UNL     1      -0.286  12.643  18.906  0.00  0.00    +0.000 A 
ATOM      5  C   UNL     1       0.515  12.356  20.011  0.00  0.00    +0.000 A 
ATOM      6  C   UNL     1       1.017  11.058  20.207  0.00  0.00    +0.000 A 
ATOM      7  C   UNL     1       0.819  13.446  20.994  0.00  0.00    +0.000 C 
ATOM      8  C   UNL     1       1.346  14.696  20.251  0.00  0.00    +0.000 C 
ATOM      9  C   UNL     1       0.356  15.171  19.172  0.00  0.00    +0.000 C 
ATOM     10  C   UNL     1      -0.532  14.081  18.504  0.00  0.00    +0.000 C 
ENDROOT
BRANCH   1  13
ATOM     11  C   UNL     1       1.443   7.853  20.325  0.00  0.00    +0.000 C 
ATOM     12  O   UNL     1       0.821   7.926  21.372  0.00  0.00    +0.000 OA
ATOM     13  N   UNL     1       1.527   8.863  19.377  0.00  0.00    +0.000 N 
ATOM     14  H   UNL     1       2.140   8.713  18.586  0.00  0.00    +0.000 HD
BRANCH  11  19
ATOM     15  C   UNL     1       3.653   5.166  18.726  0.00  0.00    +0.000 A 
ATOM     16  C   UNL     1       3.262   4.067  19.487  0.00  0.00    +0.000 A 
ATOM     17  C   UNL     1       2.328   4.206  20.508  0.00  0.00    +0.000 A 
ATOM     18  C   UNL     1       1.781   5.457  20.774  0.00  0.00    +0.000 A 
ATOM     19  C   UNL     1       2.176   6.581  20.035  0.00  0.00    +0.000 A 
ATOM     20  C   UNL     1       3.117   6.437  18.997  0.00  0.00    +0.000 A 
BRANCH  15  22
ATOM     21  C   UNL     1       4.425   3.640  17.077  0.00  0.00    +0.000 C 
ATOM     22  O   UNL     1       4.566   4.879  17.750  0.00  0.00    +0.000 OA
ENDBRANCH  15  22
ENDBRANCH  11  19
ENDBRANCH   1  13
BRANCH   7  23
ATOM     23  N   UNL     1      -0.380  13.914  21.698  0.00  0.00    +0.000 NA
ATOM     24  H   UNL     1      -1.043  14.463  21.159  0.00  0.00    +0.000 HD
BRANCH  23  25
ATOM     25  S   UNL     1      -1.069  13.296  23.044  0.00  0.00    +0.000 S 
ATOM     26  O   UNL     1      -0.529  11.963  23.190  0.00  0.00    +0.000 OA
ATOM     27  O   UNL     1      -1.030  14.269  24.117  0.00  0.00    +0.000 OA
BRANCH  25  28
ATOM     28  C   UNL     1      -2.750  13.115  22.511  0.00  0.00    +0.000 A 
ATOM     29  C   UNL     1      -3.782  13.163  23.457  0.00  0.00    +0.000 A 
ATOM     30  C   UNL     1      -5.092  12.950  23.032  0.00  0.00    +0.000 A 
ATOM     31  C   UNL     1      -5.347  12.701  21.673  0.00  0.00    +0.000 A 
ATOM     32  C   UNL     1      -4.306  12.696  20.734  0.00  0.00    +0.000 A 
ATOM     33  C   UNL     1      -3.002  12.908  21.161  0.00  0.00    +0.000 A 
BRANCH  31  34
ATOM     34  N   UNL     1      -6.718  12.420  21.225  0.00  0.00    +0.000 N 
ATOM     35  O   UNL     1      -7.154  11.275  21.407  0.00  0.00    +0.000 OA
ATOM     36  O   UNL     1      -7.344  13.334  20.669  0.00  0.00    +0.000 OA
ENDBRANCH  31  34
ENDBRANCH  25  28
ENDBRANCH  23  25
ENDBRANCH   7  23
BRANCH   8  37
ATOM     37  O   UNL     1       1.543  15.763  21.204  0.00  0.00    +0.000 OA
ATOM     38  H   UNL     1       2.373  16.218  20.966  0.00  0.00    +0.000 HD
ENDBRANCH   8  37
TORSDOF 8
ENDMDL
MODEL 8
REMARK VINA RESULT:      -7.8      4.393     10.886
REMARK  Name = 
REMARK  9 active torsions:
REMARK  status: ('A' for Active; 'I' for Inactive)
REMARK    1  A    between atoms: C_1  and  O_2
REMARK    2  A    between atoms: O_2  and  C_3
REMARK    3  A    between atoms: C_7  and  C_8
REMARK    4  A    between atoms: N_10  and  C_11
REMARK    5  A    between atoms: C_17  and  N_18
REMARK    6  A    between atoms: N_18  and  S_19
REMARK    7  A    between atoms: S_19  and  C_22
REMARK    8  A    between atoms: C_25  and  N_26
REMARK    9  A    between atoms: C_31  and  O_32
REMARK                            x       y       z     vdW  Elec       q    Type
REMARK                         _______ _______ _______ _____ _____    ______ ____
ROOT
ATOM      1  C   UNL     1       0.632  11.012  20.599  0.00  0.00    +0.000 A 
ATOM      2  C   UNL     1       1.346  12.210  20.536  0.00  0.00    +0.000 A 
ATOM      3  C   UNL     1       0.863  13.366  21.179  0.00  0.00    +0.000 A 
ATOM      4  C   UNL     1      -0.339  13.330  21.899  0.00  0.00    +0.000 A 
ATOM      5  C   UNL     1      -1.160  12.216  21.728  0.00  0.00    +0.000 A 
ATOM      6  C   UNL     1      -0.672  11.063  21.091  0.00  0.00    +0.000 A 
ATOM      7  C   UNL     1      -2.577  12.274  22.217  0.00  0.00    +0.000 C 
ATOM      8  C   UNL     1      -2.609  12.752  23.687  0.00  0.00    +0.000 C 
ATOM      9  C   UNL     1      -1.899  14.108  23.856  0.00  0.00    +0.000 C 
ATOM     10  C   UNL     1      -0.732  14.418  22.874  0.00  0.00    +0.000 C 
ENDROOT
BRANCH   1  13
ATOM     11  C   UNL     1       1.369   9.198  19.036  0.00  0.00    +0.000 C 
ATOM     12  O   UNL     1       0.922   9.665  18.002  0.00  0.00    +0.000 OA
ATOM     13  N   UNL     1       1.158   9.723  20.303  0.00  0.00    +0.000 N 
ATOM     14  H   UNL     1       1.514   9.198  21.092  0.00  0.00    +0.000 HD
BRANCH  11  19
ATOM     15  C   UNL     1       3.670   6.405  17.784  0.00  0.00    +0.000 A 
ATOM     16  C   UNL     1       3.508   5.493  18.824  0.00  0.00    +0.000 A 
ATOM     17  C   UNL     1       2.695   5.794  19.912  0.00  0.00    +0.000 A 
ATOM     18  C   UNL     1       2.040   7.019  19.964  0.00  0.00    +0.000 A 
ATOM     19  C   UNL     1       2.206   7.962  18.939  0.00  0.00    +0.000 A 
ATOM     20  C   UNL     1       3.024   7.653  17.834  0.00  0.00    +0.000 A 
BRANCH  15  22
ATOM     21  C   UNL     1       4.699   4.574  16.675  0.00  0.00    +0.000 C 
ATOM     22  O   UNL     1       4.485   5.971  16.776  0.00  0.00    +0.000 OA
ENDBRANCH  15  22
ENDBRANCH  11  19
ENDBRANCH   1  13
BRANCH   7  23
ATOM     23  N   UNL     1      -3.379  13.264  21.490  0.00  0.00    +0.000 NA
ATOM     24  H   UNL     1      -2.884  14.066  21.110  0.00  0.00    +0.000 HD
BRANCH  23  25
ATOM     25  S   UNL     1      -4.829  13.058  20.765  0.00  0.00    +0.000 S 
ATOM     26  O   UNL     1      -5.539  12.087  21.569  0.00  0.00    +0.000 OA
ATOM     27  O   UNL     1      -5.401  14.342  20.418  0.00  0.00    +0.000 OA
BRANCH  25  28
ATOM     28  C   UNL     1      -4.346  12.235  19.272  0.00  0.00    +0.000 A 
ATOM     29  C   UNL     1      -2.984  12.085  18.976  0.00  0.00    +0.000 A 
ATOM     30  C   UNL     1      -2.622  11.497  17.765  0.00  0.00    +0.000 A 
ATOM     31  C   UNL     1      -3.622  11.065  16.879  0.00  0.00    +0.000 A 
ATOM     32  C   UNL     1      -4.979  11.187  17.209  0.00  0.00    +0.000 A 
ATOM     33  C   UNL     1      -5.337  11.774  18.415  0.00  0.00    +0.000 A 
BRANCH  31  34
ATOM     34  N   UNL     1      -3.249  10.496  15.576  0.00  0.00    +0.000 N 
ATOM     35  O   UNL     1      -2.464   9.537  15.577  0.00  0.00    +0.000 OA
ATOM     36  O   UNL     1      -3.716  11.026  14.558  0.00  0.00    +0.000 OA
ENDBRANCH  31  34
ENDBRANCH  25  28
ENDBRANCH  23  25
ENDBRANCH   7  23
BRANCH   8  37
ATOM     37  O   UNL     1      -3.983  12.891  24.108  0.00  0.00    +0.000 OA
ATOM     38  H   UNL     1      -4.546  12.733  23.327  0.00  0.00    +0.000 HD
ENDBRANCH   8  37
TORSDOF 8
ENDMDL
MODEL 9
REMARK VINA RESULT:      -7.8      4.857     10.820
REMARK  Name = 
REMARK  9 active torsions:
REMARK  status: ('A' for Active; 'I' for Inactive)
REMARK    1  A    between atoms: C_1  and  O_2
REMARK    2  A    between atoms: O_2  and  C_3
REMARK    3  A    between atoms: C_7  and  C_8
REMARK    4  A    between atoms: N_10  and  C_11
REMARK    5  A    between atoms: C_17  and  N_18
REMARK    6  A    between atoms: N_18  and  S_19
REMARK    7  A    between atoms: S_19  and  C_22
REMARK    8  A    between atoms: C_25  and  N_26
REMARK    9  A    between atoms: C_31  and  O_32
REMARK                            x       y       z     vdW  Elec       q    Type
REMARK                         _______ _______ _______ _____ _____    ______ ____
ROOT
ATOM      1  C   UNL     1       0.571  10.825  20.332  0.00  0.00    +0.000 A 
ATOM      2  C   UNL     1       1.335  11.990  20.231  0.00  0.00    +0.000 A 
ATOM      3  C   UNL     1       0.948  13.160  20.912  0.00  0.00    +0.000 A 
ATOM      4  C   UNL     1      -0.206  13.171  21.708  0.00  0.00    +0.000 A 
ATOM      5  C   UNL     1      -1.087  12.098  21.583  0.00  0.00    +0.000 A 
ATOM      6  C   UNL     1      -0.694  10.930  20.908  0.00  0.00    +0.000 A 
ATOM      7  C   UNL     1      -2.465  12.215  22.164  0.00  0.00    +0.000 C 
ATOM      8  C   UNL     1      -2.380  12.679  23.636  0.00  0.00    +0.000 C 
ATOM      9  C   UNL     1      -1.599  14.000  23.768  0.00  0.00    +0.000 C 
ATOM     10  C   UNL     1      -0.485  14.266  22.715  0.00  0.00    +0.000 C 
ENDROOT
BRANCH   1  13
ATOM     11  C   UNL     1       1.639   9.146  18.809  0.00  0.00    +0.000 C 
ATOM     12  O   UNL     1       1.684   9.829  17.799  0.00  0.00    +0.000 OA
ATOM     13  N   UNL     1       1.017   9.516  19.993  0.00  0.00    +0.000 N 
ATOM     14  H   UNL     1       0.977   8.829  20.735  0.00  0.00    +0.000 HD
BRANCH  11  19
ATOM     15  C   UNL     1       2.913   5.651  19.714  0.00  0.00    +0.000 A 
ATOM     16  C   UNL     1       3.803   5.453  18.662  0.00  0.00    +0.000 A 
ATOM     17  C   UNL     1       3.960   6.419  17.674  0.00  0.00    +0.000 A 
ATOM     18  C   UNL     1       3.218   7.594  17.735  0.00  0.00    +0.000 A 
ATOM     19  C   UNL     1       2.299   7.804  18.773  0.00  0.00    +0.000 A 
ATOM     20  C   UNL     1       2.146   6.828  19.777  0.00  0.00    +0.000 A 
BRANCH  15  22
ATOM     21  C   UNL     1       3.153   3.325  20.132  0.00  0.00    +0.000 C 
ATOM     22  O   UNL     1       2.872   4.625  20.618  0.00  0.00    +0.000 OA
ENDBRANCH  15  22
ENDBRANCH  11  19
ENDBRANCH   1  13
BRANCH   7  23
ATOM     23  N   UNL     1      -3.266  13.248  21.497  0.00  0.00    +0.000 NA
ATOM     24  H   UNL     1      -2.766  14.057  21.141  0.00  0.00    +0.000 HD
BRANCH  23  25
ATOM     25  S   UNL     1      -4.734  13.095  20.797  0.00  0.00    +0.000 S 
ATOM     26  O   UNL     1      -5.470  12.159  21.619  0.00  0.00    +0.000 OA
ATOM     27  O   UNL     1      -5.260  14.400  20.450  0.00  0.00    +0.000 OA
BRANCH  25  28
ATOM     28  C   UNL     1      -4.309  12.244  19.302  0.00  0.00    +0.000 A 
ATOM     29  C   UNL     1      -2.976  12.235  18.869  0.00  0.00    +0.000 A 
ATOM     30  C   UNL     1      -2.670  11.621  17.655  0.00  0.00    +0.000 A 
ATOM     31  C   UNL     1      -3.695  11.023  16.904  0.00  0.00    +0.000 A 
ATOM     32  C   UNL     1      -5.016  11.006  17.373  0.00  0.00    +0.000 A 
ATOM     33  C   UNL     1      -5.318  11.620  18.581  0.00  0.00    +0.000 A 
BRANCH  31  34
ATOM     34  N   UNL     1      -3.389  10.422  15.598  0.00  0.00    +0.000 N 
ATOM     35  O   UNL     1      -3.648  11.092  14.588  0.00  0.00    +0.000 OA
ATOM     36  O   UNL     1      -2.920   9.275  15.584  0.00  0.00    +0.000 OA
ENDBRANCH  31  34
ENDBRANCH  25  28
ENDBRANCH  23  25
ENDBRANCH   7  23
BRANCH   8  37
ATOM     37  O   UNL     1      -3.716  12.876  24.147  0.00  0.00    +0.000 OA
ATOM     38  H   UNL     1      -3.877  12.188  24.820  0.00  0.00    +0.000 HD
ENDBRANCH   8  37
TORSDOF 8
ENDMDL
