MODEL 1
REMARK VINA RESULT:      -6.2      0.000      0.000
REMARK  Name = 
REMARK  24 active torsions:
REMARK  status: ('A' for Active; 'I' for Inactive)
REMARK    1  A    between atoms: C_1  and  C_2
REMARK    2  A    between atoms: C_2  and  C_3
REMARK    3  A    between atoms: C_4  and  C_5
REMARK    4  A    between atoms: C_5  and  C_6
REMARK    5  A    between atoms: C_6  and  C_7
REMARK    6  A    between atoms: C_7  and  C_8
REMARK    7  A    between atoms: C_9  and  C_10
REMARK    8  A    between atoms: C_10  and  C_11
REMARK    9  A    between atoms: C_11  and  C_12
REMARK   10  A    between atoms: C_12  and  C_13
REMARK   11  A    between atoms: C_14  and  C_15
REMARK   12  A    between atoms: C_15  and  C_16
REMARK   13  A    between atoms: C_16  and  O_17
REMARK   14  A    between atoms: O_17  and  C_18
REMARK   15  A    between atoms: C_18  and  C_19
REMARK   16  A    between atoms: C_19  and  C_20
REMARK   17  A    between atoms: C_20  and  C_21
REMARK   18  A    between atoms: C_21  and  C_22
REMARK   19  A    between atoms: C_22  and  N_23
REMARK   20  A    between atoms: C_25  and  O_26
REMARK   21  A    between atoms: C_27  and  O_28
REMARK   22  A    between atoms: C_29  and  O_30
REMARK   23  A    between atoms: C_31  and  C_32
REMARK   24  A    between atoms: C_32  and  O_33
REMARK                            x       y       z     vdW  Elec       q    Type
REMARK                         _______ _______ _______ _____ _____    ______ ____
ROOT
ATOM      1  C   UNL     1       1.322   9.960  18.266  0.00  0.00    +0.000 C 
ENDROOT
BRANCH   1   2
ATOM      2  C   UNL     1       1.755   8.680  18.940  0.00  0.00    +0.000 C 
BRANCH   2   3
ATOM      3  O   UNL     1       1.434   8.807  20.328  0.00  0.00    +0.000 OA
BRANCH   3   4
ATOM      4  C   UNL     1       1.376   7.533  20.949  0.00  0.00    +0.000 C 
BRANCH   4   5
ATOM      5  C   UNL     1       2.168   6.546  20.104  0.00  0.00    +0.000 C 
BRANCH   5   8
ATOM      6  C   UNL     1       1.453   4.141  20.471  0.00  0.00    +0.000 C 
ATOM      7  C   UNL     1       2.457   3.960  21.586  0.00  0.00    +0.000 C 
ATOM      8  C   UNL     1       1.337   5.327  19.842  0.00  0.00    +0.000 C 
BRANCH   6   9
ATOM      9  C   UNL     1       0.568   2.992  20.011  0.00  0.00    +0.000 C 
BRANCH   9  10
ATOM     10  C   UNL     1       0.969   2.393  18.667  0.00  0.00    +0.000 C 
BRANCH  10  13
ATOM     11  C   UNL     1       3.237   2.812  17.725  0.00  0.00    +0.000 C 
ATOM     12  C   UNL     1       3.718   1.563  18.433  0.00  0.00    +0.000 C 
ATOM     13  C   UNL     1       1.944   3.185  17.840  0.00  0.00    +0.000 C 
BRANCH  11  14
ATOM     14  C   UNL     1       4.184   3.633  16.873  0.00  0.00    +0.000 C 
BRANCH  14  15
ATOM     15  C   UNL     1       4.086   5.150  17.049  0.00  0.00    +0.000 C 
BRANCH  15  19
ATOM     16  C   UNL     1       7.558   6.787  17.677  0.00  0.00    +0.000 C 
ATOM     17  C   UNL     1       6.305   5.994  17.913  0.00  0.00    +0.000 C 
ATOM     18  C   UNL     1       6.108   5.392  19.276  0.00  0.00    +0.000 C 
ATOM     19  C   UNL     1       5.410   5.840  16.917  0.00  0.00    +0.000 C 
ENDBRANCH  15  19
ENDBRANCH  14  15
ENDBRANCH  11  14
ENDBRANCH  10  13
ENDBRANCH   9  10
ENDBRANCH   6   9
ENDBRANCH   5   8
ENDBRANCH   4   5
ENDBRANCH   3   4
ENDBRANCH   2   3
ENDBRANCH   1   2
BRANCH   1  20
ATOM     20  C   UNL     1      -0.192  10.153  18.293  0.00  0.00    +0.000 C 
BRANCH  20  21
ATOM     21  C   UNL     1      -0.446  11.509  18.921  0.00  0.00    +0.000 C 
BRANCH  21  22
ATOM     22  C   UNL     1      -0.438  11.553  20.447  0.00  0.00    +0.000 C 
BRANCH  22  23
ATOM     23  N   UNL     1      -1.783  11.890  20.941  0.00  0.00    +0.000 NA
ATOM     24  C   UNL     1      -2.570  12.636  19.953  0.00  0.00    +0.000 C 
ATOM     25  C   UNL     1      -4.054  12.686  20.363  0.00  0.00    +0.000 C 
ATOM     26  C   UNL     1      -4.219  13.223  21.799  0.00  0.00    +0.000 C 
ATOM     27  C   UNL     1      -3.310  12.465  22.778  0.00  0.00    +0.000 C 
ATOM     28  C   UNL     1      -1.845  12.497  22.296  0.00  0.00    +0.000 C 
BRANCH  27  29
ATOM     29  O   UNL     1      -3.396  13.011  24.103  0.00  0.00    +0.000 OA
ATOM     30  H   UNL     1      -4.031  13.751  24.063  0.00  0.00    +0.000 HD
ENDBRANCH  27  29
BRANCH  26  31
ATOM     31  O   UNL     1      -5.576  13.136  22.261  0.00  0.00    +0.000 OA
ATOM     32  H   UNL     1      -5.642  13.611  23.111  0.00  0.00    +0.000 HD
ENDBRANCH  26  31
BRANCH  25  33
ATOM     33  O   UNL     1      -4.802  13.475  19.433  0.00  0.00    +0.000 OA
ATOM     34  H   UNL     1      -4.527  13.235  18.532  0.00  0.00    +0.000 HD
ENDBRANCH  25  33
BRANCH  28  35
ATOM     35  C   UNL     1      -1.232  13.917  22.467  0.00  0.00    +0.000 C 
BRANCH  35  36
ATOM     36  O   UNL     1      -0.766  14.174  23.793  0.00  0.00    +0.000 OA
ATOM     37  H   UNL     1      -0.224  13.411  24.057  0.00  0.00    +0.000 HD
ENDBRANCH  35  36
ENDBRANCH  28  35
ENDBRANCH  22  23
ENDBRANCH  21  22
ENDBRANCH  20  21
ENDBRANCH   1  20
TORSDOF 20
ENDMDL
MODEL 2
REMARK VINA RESULT:      -6.2      4.200     10.356
REMARK  Name = 
REMARK  24 active torsions:
REMARK  status: ('A' for Active; 'I' for Inactive)
REMARK    1  A    between atoms: C_1  and  C_2
REMARK    2  A    between atoms: C_2  and  C_3
REMARK    3  A    between atoms: C_4  and  C_5
REMARK    4  A    between atoms: C_5  and  C_6
REMARK    5  A    between atoms: C_6  and  C_7
REMARK    6  A    between atoms: C_7  and  C_8
REMARK    7  A    between atoms: C_9  and  C_10
REMARK    8  A    between atoms: C_10  and  C_11
REMARK    9  A    between atoms: C_11  and  C_12
REMARK   10  A    between atoms: C_12  and  C_13
REMARK   11  A    between atoms: C_14  and  C_15
REMARK   12  A    between atoms: C_15  and  C_16
REMARK   13  A    between atoms: C_16  and  O_17
REMARK   14  A    between atoms: O_17  and  C_18
REMARK   15  A    between atoms: C_18  and  C_19
REMARK   16  A    between atoms: C_19  and  C_20
REMARK   17  A    between atoms: C_20  and  C_21
REMARK   18  A    between atoms: C_21  and  C_22
REMARK   19  A    between atoms: C_22  and  N_23
REMARK   20  A    between atoms: C_25  and  O_26
REMARK   21  A    between atoms: C_27  and  O_28
REMARK   22  A    between atoms: C_29  and  O_30
REMARK   23  A    between atoms: C_31  and  C_32
REMARK   24  A    between atoms: C_32  and  O_33
REMARK                            x       y       z     vdW  Elec       q    Type
REMARK                         _______ _______ _______ _____ _____    ______ ____
ROOT
ATOM      1  C   UNL     1       1.751   3.274  21.233  0.00  0.00    +0.000 C 
ENDROOT
BRANCH   1   2
ATOM      2  C   UNL     1       2.262   4.691  21.122  0.00  0.00    +0.000 C 
BRANCH   2   3
ATOM      3  O   UNL     1       1.313   5.418  20.339  0.00  0.00    +0.000 OA
BRANCH   3   4
ATOM      4  C   UNL     1       0.997   6.657  20.956  0.00  0.00    +0.000 C 
BRANCH   4   5
ATOM      5  C   UNL     1       1.961   7.714  20.438  0.00  0.00    +0.000 C 
BRANCH   5   8
ATOM      6  C   UNL     1       1.130   9.543  18.891  0.00  0.00    +0.000 C 
ATOM      7  C   UNL     1       1.803   8.908  17.697  0.00  0.00    +0.000 C 
ATOM      8  C   UNL     1       1.205   8.965  20.106  0.00  0.00    +0.000 C 
BRANCH   6   9
ATOM      9  C   UNL     1       0.375  10.858  18.766  0.00  0.00    +0.000 C 
BRANCH   9  10
ATOM     10  C   UNL     1      -0.228  11.361  20.074  0.00  0.00    +0.000 C 
BRANCH  10  13
ATOM     11  C   UNL     1      -2.329  12.699  20.031  0.00  0.00    +0.000 C 
ATOM     12  C   UNL     1      -1.484  13.946  19.875  0.00  0.00    +0.000 C 
ATOM     13  C   UNL     1      -1.725  11.494  20.118  0.00  0.00    +0.000 C 
BRANCH  11  14
ATOM     14  C   UNL     1      -3.841  12.788  20.068  0.00  0.00    +0.000 C 
BRANCH  14  15
ATOM     15  C   UNL     1      -4.585  11.778  19.191  0.00  0.00    +0.000 C 
BRANCH  15  19
ATOM     16  C   UNL     1      -3.172  11.145  15.623  0.00  0.00    +0.000 C 
ATOM     17  C   UNL     1      -3.585  10.896  17.045  0.00  0.00    +0.000 C 
ATOM     18  C   UNL     1      -3.289   9.544  17.631  0.00  0.00    +0.000 C 
ATOM     19  C   UNL     1      -4.204  11.868  17.745  0.00  0.00    +0.000 C 
ENDBRANCH  15  19
ENDBRANCH  14  15
ENDBRANCH  11  14
ENDBRANCH  10  13
ENDBRANCH   9  10
ENDBRANCH   6   9
ENDBRANCH   5   8
ENDBRANCH   4   5
ENDBRANCH   3   4
ENDBRANCH   2   3
ENDBRANCH   1   2
BRANCH   1  20
ATOM     20  C   UNL     1       2.020   2.454  19.974  0.00  0.00    +0.000 C 
BRANCH  20  21
ATOM     21  C   UNL     1       3.482   2.653  19.629  0.00  0.00    +0.000 C 
BRANCH  21  22
ATOM     22  C   UNL     1       3.822   2.681  18.140  0.00  0.00    +0.000 C 
BRANCH  22  23
ATOM     23  N   UNL     1       4.825   3.725  17.880  0.00  0.00    +0.000 NA
ATOM     24  C   UNL     1       5.500   4.170  19.104  0.00  0.00    +0.000 C 
ATOM     25  C   UNL     1       6.748   5.008  18.766  0.00  0.00    +0.000 C 
ATOM     26  C   UNL     1       6.399   6.168  17.812  0.00  0.00    +0.000 C 
ATOM     27  C   UNL     1       5.619   5.660  16.590  0.00  0.00    +0.000 C 
ATOM     28  C   UNL     1       4.376   4.860  17.032  0.00  0.00    +0.000 C 
BRANCH  27  29
ATOM     29  O   UNL     1       5.219   6.743  15.736  0.00  0.00    +0.000 OA
ATOM     30  H   UNL     1       4.367   7.073  16.078  0.00  0.00    +0.000 HD
ENDBRANCH  27  29
BRANCH  26  31
ATOM     31  O   UNL     1       7.566   6.872  17.359  0.00  0.00    +0.000 OA
ATOM     32  H   UNL     1       8.354   6.351  17.607  0.00  0.00    +0.000 HD
ENDBRANCH  26  31
BRANCH  25  33
ATOM     33  O   UNL     1       7.359   5.498  19.964  0.00  0.00    +0.000 OA
ATOM     34  H   UNL     1       7.747   4.745  20.442  0.00  0.00    +0.000 HD
ENDBRANCH  25  33
BRANCH  28  35
ATOM     35  C   UNL     1       3.288   5.802  17.624  0.00  0.00    +0.000 C 
BRANCH  35  36
ATOM     36  O   UNL     1       1.996   5.195  17.695  0.00  0.00    +0.000 OA
ATOM     37  H   UNL     1       1.395   5.740  17.160  0.00  0.00    +0.000 HD
ENDBRANCH  35  36
ENDBRANCH  28  35
ENDBRANCH  22  23
ENDBRANCH  21  22
ENDBRANCH  20  21
ENDBRANCH   1  20
TORSDOF 20
ENDMDL
MODEL 3
REMARK VINA RESULT:      -6.2      5.859     10.848
REMARK  Name = 
REMARK  24 active torsions:
REMARK  status: ('A' for Active; 'I' for Inactive)
REMARK    1  A    between atoms: C_1  and  C_2
REMARK    2  A    between atoms: C_2  and  C_3
REMARK    3  A    between atoms: C_4  and  C_5
REMARK    4  A    between atoms: C_5  and  C_6
REMARK    5  A    between atoms: C_6  and  C_7
REMARK    6  A    between atoms: C_7  and  C_8
REMARK    7  A    between atoms: C_9  and  C_10
REMARK    8  A    between atoms: C_10  and  C_11
REMARK    9  A    between atoms: C_11  and  C_12
REMARK   10  A    between atoms: C_12  and  C_13
REMARK   11  A    between atoms: C_14  and  C_15
REMARK   12  A    between atoms: C_15  and  C_16
REMARK   13  A    between atoms: C_16  and  O_17
REMARK   14  A    between atoms: O_17  and  C_18
REMARK   15  A    between atoms: C_18  and  C_19
REMARK   16  A    between atoms: C_19  and  C_20
REMARK   17  A    between atoms: C_20  and  C_21
REMARK   18  A    between atoms: C_21  and  C_22
REMARK   19  A    between atoms: C_22  and  N_23
REMARK   20  A    between atoms: C_25  and  O_26
REMARK   21  A    between atoms: C_27  and  O_28
REMARK   22  A    between atoms: C_29  and  O_30
REMARK   23  A    between atoms: C_31  and  C_32
REMARK   24  A    between atoms: C_32  and  O_33
REMARK                            x       y       z     vdW  Elec       q    Type
REMARK                         _______ _______ _______ _____ _____    ______ ____
ROOT
ATOM      1  C   UNL     1       7.201   6.767  17.245  0.00  0.00    +0.000 C 
ENDROOT
BRANCH   1   2
ATOM      2  C   UNL     1       7.631   8.178  17.567  0.00  0.00    +0.000 C 
BRANCH   2   3
ATOM      3  O   UNL     1       8.593   8.093  18.622  0.00  0.00    +0.000 OA
BRANCH   3   4
ATOM      4  C   UNL     1       8.956   9.387  19.077  0.00  0.00    +0.000 C 
BRANCH   4   5
ATOM      5  C   UNL     1       8.702  10.383  17.955  0.00  0.00    +0.000 C 
BRANCH   5   8
ATOM      6  C   UNL     1       9.517  12.781  17.844  0.00  0.00    +0.000 C 
ATOM      7  C   UNL     1       8.110  13.303  17.661  0.00  0.00    +0.000 C 
ATOM      8  C   UNL     1       9.742  11.462  17.995  0.00  0.00    +0.000 C 
BRANCH   6   9
ATOM      9  C   UNL     1      10.714  13.719  17.837  0.00  0.00    +0.000 C 
BRANCH   9  10
ATOM     10  C   UNL     1      11.332  13.956  19.212  0.00  0.00    +0.000 C 
BRANCH  10  13
ATOM     11  C   UNL     1       9.884  14.044  21.237  0.00  0.00    +0.000 C 
ATOM     12  C   UNL     1      10.077  12.550  21.390  0.00  0.00    +0.000 C 
ATOM     13  C   UNL     1      10.484  14.690  20.213  0.00  0.00    +0.000 C 
BRANCH  11  14
ATOM     14  C   UNL     1       9.046  14.823  22.231  0.00  0.00    +0.000 C 
BRANCH  14  15
ATOM     15  C   UNL     1       8.368  16.081  21.683  0.00  0.00    +0.000 C 
BRANCH  15  19
ATOM     16  C   UNL     1       5.139  15.104  19.747  0.00  0.00    +0.000 C 
ATOM     17  C   UNL     1       6.050  15.477  20.881  0.00  0.00    +0.000 C 
ATOM     18  C   UNL     1       5.465  15.503  22.265  0.00  0.00    +0.000 C 
ATOM     19  C   UNL     1       7.340  15.780  20.635  0.00  0.00    +0.000 C 
ENDBRANCH  15  19
ENDBRANCH  14  15
ENDBRANCH  11  14
ENDBRANCH  10  13
ENDBRANCH   9  10
ENDBRANCH   6   9
ENDBRANCH   5   8
ENDBRANCH   4   5
ENDBRANCH   3   4
ENDBRANCH   2   3
ENDBRANCH   1   2
BRANCH   1  20
ATOM     20  C   UNL     1       6.970   5.925  18.498  0.00  0.00    +0.000 C 
BRANCH  20  21
ATOM     21  C   UNL     1       6.298   4.645  18.043  0.00  0.00    +0.000 C 
BRANCH  21  22
ATOM     22  C   UNL     1       4.926   4.802  17.391  0.00  0.00    +0.000 C 
BRANCH  22  23
ATOM     23  N   UNL     1       3.878   4.376  18.332  0.00  0.00    +0.000 NA
ATOM     24  C   UNL     1       2.892   3.489  17.706  0.00  0.00    +0.000 C 
ATOM     25  C   UNL     1       2.013   2.810  18.774  0.00  0.00    +0.000 C 
ATOM     26  C   UNL     1       1.378   3.850  19.719  0.00  0.00    +0.000 C 
ATOM     27  C   UNL     1       2.442   4.807  20.278  0.00  0.00    +0.000 C 
ATOM     28  C   UNL     1       3.246   5.456  19.134  0.00  0.00    +0.000 C 
BRANCH  27  29
ATOM     29  O   UNL     1       1.850   5.829  21.095  0.00  0.00    +0.000 OA
ATOM     30  H   UNL     1       0.882   5.720  21.027  0.00  0.00    +0.000 HD
ENDBRANCH  27  29
BRANCH  26  31
ATOM     31  O   UNL     1       0.680   3.238  20.814  0.00  0.00    +0.000 OA
ATOM     32  H   UNL     1      -0.244   3.553  20.804  0.00  0.00    +0.000 HD
ENDBRANCH  26  31
BRANCH  25  33
ATOM     33  O   UNL     1       1.008   2.002  18.153  0.00  0.00    +0.000 OA
ATOM     34  H   UNL     1       1.414   1.163  17.875  0.00  0.00    +0.000 HD
ENDBRANCH  25  33
BRANCH  28  35
ATOM     35  C   UNL     1       2.382   6.498  18.366  0.00  0.00    +0.000 C 
BRANCH  35  36
ATOM     36  O   UNL     1       2.259   7.745  19.053  0.00  0.00    +0.000 OA
ATOM     37  H   UNL     1       1.769   8.346  18.467  0.00  0.00    +0.000 HD
ENDBRANCH  35  36
ENDBRANCH  28  35
ENDBRANCH  22  23
ENDBRANCH  21  22
ENDBRANCH  20  21
ENDBRANCH   1  20
TORSDOF 20
ENDMDL
MODEL 4
REMARK VINA RESULT:      -6.1      2.085      3.191
REMARK  Name = 
REMARK  24 active torsions:
REMARK  status: ('A' for Active; 'I' for Inactive)
REMARK    1  A    between atoms: C_1  and  C_2
REMARK    2  A    between atoms: C_2  and  C_3
REMARK    3  A    between atoms: C_4  and  C_5
REMARK    4  A    between atoms: C_5  and  C_6
REMARK    5  A    between atoms: C_6  and  C_7
REMARK    6  A    between atoms: C_7  and  C_8
REMARK    7  A    between atoms: C_9  and  C_10
REMARK    8  A    between atoms: C_10  and  C_11
REMARK    9  A    between atoms: C_11  and  C_12
REMARK   10  A    between atoms: C_12  and  C_13
REMARK   11  A    between atoms: C_14  and  C_15
REMARK   12  A    between atoms: C_15  and  C_16
REMARK   13  A    between atoms: C_16  and  O_17
REMARK   14  A    between atoms: O_17  and  C_18
REMARK   15  A    between atoms: C_18  and  C_19
REMARK   16  A    between atoms: C_19  and  C_20
REMARK   17  A    between atoms: C_20  and  C_21
REMARK   18  A    between atoms: C_21  and  C_22
REMARK   19  A    between atoms: C_22  and  N_23
REMARK   20  A    between atoms: C_25  and  O_26
REMARK   21  A    between atoms: C_27  and  O_28
REMARK   22  A    between atoms: C_29  and  O_30
REMARK   23  A    between atoms: C_31  and  C_32
REMARK   24  A    between atoms: C_32  and  O_33
REMARK                            x       y       z     vdW  Elec       q    Type
REMARK                         _______ _______ _______ _____ _____    ______ ____
ROOT
ATOM      1  C   UNL     1       0.185  10.324  21.878  0.00  0.00    +0.000 C 
ENDROOT
BRANCH   1   2
ATOM      2  C   UNL     1       1.202   9.393  22.495  0.00  0.00    +0.000 C 
BRANCH   2   3
ATOM      3  O   UNL     1       1.676   8.539  21.451  0.00  0.00    +0.000 OA
BRANCH   3   4
ATOM      4  C   UNL     1       0.891   7.359  21.372  0.00  0.00    +0.000 C 
BRANCH   4   5
ATOM      5  C   UNL     1       1.377   6.534  20.189  0.00  0.00    +0.000 C 
BRANCH   5   8
ATOM      6  C   UNL     1       1.972   4.097  20.561  0.00  0.00    +0.000 C 
ATOM      7  C   UNL     1       0.728   3.632  19.838  0.00  0.00    +0.000 C 
ATOM      8  C   UNL     1       2.241   5.412  20.680  0.00  0.00    +0.000 C 
BRANCH   6   9
ATOM      9  C   UNL     1       2.935   3.104  21.194  0.00  0.00    +0.000 C 
BRANCH   9  10
ATOM     10  C   UNL     1       3.901   2.454  20.208  0.00  0.00    +0.000 C 
BRANCH  10  13
ATOM     11  C   UNL     1       4.156   3.303  17.880  0.00  0.00    +0.000 C 
ATOM     12  C   UNL     1       3.090   2.319  17.447  0.00  0.00    +0.000 C 
ATOM     13  C   UNL     1       4.522   3.357  19.179  0.00  0.00    +0.000 C 
BRANCH  11  14
ATOM     14  C   UNL     1       4.800   4.239  16.877  0.00  0.00    +0.000 C 
BRANCH  14  15
ATOM     15  C   UNL     1       6.322   4.369  16.974  0.00  0.00    +0.000 C 
BRANCH  15  19
ATOM     16  C   UNL     1       7.775   7.921  17.605  0.00  0.00    +0.000 C 
ATOM     17  C   UNL     1       7.432   6.475  17.819  0.00  0.00    +0.000 C 
ATOM     18  C   UNL     1       7.831   5.850  19.127  0.00  0.00    +0.000 C 
ATOM     19  C   UNL     1       6.796   5.785  16.852  0.00  0.00    +0.000 C 
ENDBRANCH  15  19
ENDBRANCH  14  15
ENDBRANCH  11  14
ENDBRANCH  10  13
ENDBRANCH   9  10
ENDBRANCH   6   9
ENDBRANCH   5   8
ENDBRANCH   4   5
ENDBRANCH   3   4
ENDBRANCH   2   3
ENDBRANCH   1   2
BRANCH   1  20
ATOM     20  C   UNL     1      -0.838  10.828  22.893  0.00  0.00    +0.000 C 
BRANCH  20  21
ATOM     21  C   UNL     1      -1.074  12.292  22.580  0.00  0.00    +0.000 C 
BRANCH  21  22
ATOM     22  C   UNL     1      -2.431  12.637  21.969  0.00  0.00    +0.000 C 
BRANCH  22  23
ATOM     23  N   UNL     1      -3.034  13.761  22.702  0.00  0.00    +0.000 NA
ATOM     24  C   UNL     1      -2.077  14.425  23.594  0.00  0.00    +0.000 C 
ATOM     25  C   UNL     1      -2.636  15.773  24.089  0.00  0.00    +0.000 C 
ATOM     26  C   UNL     1      -4.032  15.599  24.721  0.00  0.00    +0.000 C 
ATOM     27  C   UNL     1      -4.969  14.823  23.782  0.00  0.00    +0.000 C 
ATOM     28  C   UNL     1      -4.333  13.480  23.368  0.00  0.00    +0.000 C 
BRANCH  27  29
ATOM     29  O   UNL     1      -6.246  14.587  24.394  0.00  0.00    +0.000 OA
ATOM     30  H   UNL     1      -6.195  13.712  24.825  0.00  0.00    +0.000 HD
ENDBRANCH  27  29
BRANCH  26  31
ATOM     31  O   UNL     1      -4.641  16.857  25.050  0.00  0.00    +0.000 OA
ATOM     32  H   UNL     1      -5.600  16.788  24.883  0.00  0.00    +0.000 HD
ENDBRANCH  26  31
BRANCH  25  33
ATOM     33  O   UNL     1      -1.728  16.380  25.013  0.00  0.00    +0.000 OA
ATOM     34  H   UNL     1      -0.856  16.448  24.589  0.00  0.00    +0.000 HD
ENDBRANCH  25  33
BRANCH  28  35
ATOM     35  C   UNL     1      -4.320  12.478  24.558  0.00  0.00    +0.000 C 
BRANCH  35  36
ATOM     36  O   UNL     1      -5.568  11.807  24.744  0.00  0.00    +0.000 OA
ATOM     37  H   UNL     1      -6.186  12.455  25.122  0.00  0.00    +0.000 HD
ENDBRANCH  35  36
ENDBRANCH  28  35
ENDBRANCH  22  23
ENDBRANCH  21  22
ENDBRANCH  20  21
ENDBRANCH   1  20
TORSDOF 20
ENDMDL
MODEL 5
REMARK VINA RESULT:      -6.1      3.432     11.242
REMARK  Name = 
REMARK  24 active torsions:
REMARK  status: ('A' for Active; 'I' for Inactive)
REMARK    1  A    between atoms: C_1  and  C_2
REMARK    2  A    between atoms: C_2  and  C_3
REMARK    3  A    between atoms: C_4  and  C_5
REMARK    4  A    between atoms: C_5  and  C_6
REMARK    5  A    between atoms: C_6  and  C_7
REMARK    6  A    between atoms: C_7  and  C_8
REMARK    7  A    between atoms: C_9  and  C_10
REMARK    8  A    between atoms: C_10  and  C_11
REMARK    9  A    between atoms: C_11  and  C_12
REMARK   10  A    between atoms: C_12  and  C_13
REMARK   11  A    between atoms: C_14  and  C_15
REMARK   12  A    between atoms: C_15  and  C_16
REMARK   13  A    between atoms: C_16  and  O_17
REMARK   14  A    between atoms: O_17  and  C_18
REMARK   15  A    between atoms: C_18  and  C_19
REMARK   16  A    between atoms: C_19  and  C_20
REMARK   17  A    between atoms: C_20  and  C_21
REMARK   18  A    between atoms: C_21  and  C_22
REMARK   19  A    between atoms: C_22  and  N_23
REMARK   20  A    between atoms: C_25  and  O_26
REMARK   21  A    between atoms: C_27  and  O_28
REMARK   22  A    between atoms: C_29  and  O_30
REMARK   23  A    between atoms: C_31  and  C_32
REMARK   24  A    between atoms: C_32  and  O_33
REMARK                            x       y       z     vdW  Elec       q    Type
REMARK                         _______ _______ _______ _____ _____    ______ ____
ROOT
ATOM      1  C   UNL     1       0.851   9.150  18.290  0.00  0.00    +0.000 C 
ENDROOT
BRANCH   1   2
ATOM      2  C   UNL     1       0.865  10.030  19.517  0.00  0.00    +0.000 C 
BRANCH   2   3
ATOM      3  O   UNL     1      -0.449  10.573  19.659  0.00  0.00    +0.000 OA
BRANCH   3   4
ATOM      4  C   UNL     1      -0.549  11.826  19.000  0.00  0.00    +0.000 C 
BRANCH   4   5
ATOM      5  C   UNL     1      -0.176  12.922  19.986  0.00  0.00    +0.000 C 
BRANCH   5   8
ATOM      6  C   UNL     1      -1.696  13.715  21.855  0.00  0.00    +0.000 C 
ATOM      7  C   UNL     1      -1.807  15.094  21.247  0.00  0.00    +0.000 C 
ATOM      8  C   UNL     1      -0.970  12.757  21.247  0.00  0.00    +0.000 C 
BRANCH   6   9
ATOM      9  C   UNL     1      -2.373  13.377  23.174  0.00  0.00    +0.000 C 
BRANCH   9  10
ATOM     10  C   UNL     1      -3.638  12.536  23.031  0.00  0.00    +0.000 C 
BRANCH  10  13
ATOM     11  C   UNL     1      -6.009  13.120  22.537  0.00  0.00    +0.000 C 
ATOM     12  C   UNL     1      -6.382  12.597  23.907  0.00  0.00    +0.000 C 
ATOM     13  C   UNL     1      -4.718  13.090  22.142  0.00  0.00    +0.000 C 
BRANCH  11  14
ATOM     14  C   UNL     1      -7.064  13.697  21.615  0.00  0.00    +0.000 C 
BRANCH  14  15
ATOM     15  C   UNL     1      -7.416  12.842  20.395  0.00  0.00    +0.000 C 
BRANCH  15  19
ATOM     16  C   UNL     1      -7.397   8.954  20.288  0.00  0.00    +0.000 C 
ATOM     17  C   UNL     1      -7.162  10.381  19.884  0.00  0.00    +0.000 C 
ATOM     18  C   UNL     1      -6.522  10.630  18.547  0.00  0.00    +0.000 C 
ATOM     19  C   UNL     1      -7.516  11.382  20.715  0.00  0.00    +0.000 C 
ENDBRANCH  15  19
ENDBRANCH  14  15
ENDBRANCH  11  14
ENDBRANCH  10  13
ENDBRANCH   9  10
ENDBRANCH   6   9
ENDBRANCH   5   8
ENDBRANCH   4   5
ENDBRANCH   3   4
ENDBRANCH   2   3
ENDBRANCH   1   2
BRANCH   1  20
ATOM     20  C   UNL     1       2.215   9.075  17.608  0.00  0.00    +0.000 C 
BRANCH  20  21
ATOM     21  C   UNL     1       2.693   7.644  17.749  0.00  0.00    +0.000 C 
BRANCH  21  22
ATOM     22  C   UNL     1       2.510   7.008  19.126  0.00  0.00    +0.000 C 
BRANCH  22  23
ATOM     23  N   UNL     1       2.335   5.554  18.981  0.00  0.00    +0.000 NA
ATOM     24  C   UNL     1       1.760   4.938  20.182  0.00  0.00    +0.000 C 
ATOM     25  C   UNL     1       1.291   3.500  19.887  0.00  0.00    +0.000 C 
ATOM     26  C   UNL     1       2.423   2.662  19.258  0.00  0.00    +0.000 C 
ATOM     27  C   UNL     1       3.047   3.391  18.059  0.00  0.00    +0.000 C 
ATOM     28  C   UNL     1       3.509   4.806  18.462  0.00  0.00    +0.000 C 
BRANCH  27  29
ATOM     29  O   UNL     1       4.154   2.655  17.517  0.00  0.00    +0.000 OA
ATOM     30  H   UNL     1       4.154   2.813  16.553  0.00  0.00    +0.000 HD
ENDBRANCH  27  29
BRANCH  26  31
ATOM     31  O   UNL     1       1.970   1.367  18.833  0.00  0.00    +0.000 OA
ATOM     32  H   UNL     1       2.585   1.036  18.152  0.00  0.00    +0.000 HD
ENDBRANCH  26  31
BRANCH  25  33
ATOM     33  O   UNL     1       0.798   2.882  21.079  0.00  0.00    +0.000 OA
ATOM     34  H   UNL     1       0.180   2.176  20.828  0.00  0.00    +0.000 HD
ENDBRANCH  25  33
BRANCH  28  35
ATOM     35  C   UNL     1       4.769   4.743  19.373  0.00  0.00    +0.000 C 
BRANCH  35  36
ATOM     36  O   UNL     1       5.897   4.141  18.734  0.00  0.00    +0.000 OA
ATOM     37  H   UNL     1       6.673   4.328  19.289  0.00  0.00    +0.000 HD
ENDBRANCH  35  36
ENDBRANCH  28  35
ENDBRANCH  22  23
ENDBRANCH  21  22
ENDBRANCH  20  21
ENDBRANCH   1  20
TORSDOF 20
ENDMDL
MODEL 6
REMARK VINA RESULT:      -6.0      5.560      9.934
REMARK  Name = 
REMARK  24 active torsions:
REMARK  status: ('A' for Active; 'I' for Inactive)
REMARK    1  A    between atoms: C_1  and  C_2
REMARK    2  A    between atoms: C_2  and  C_3
REMARK    3  A    between atoms: C_4  and  C_5
REMARK    4  A    between atoms: C_5  and  C_6
REMARK    5  A    between atoms: C_6  and  C_7
REMARK    6  A    between atoms: C_7  and  C_8
REMARK    7  A    between atoms: C_9  and  C_10
REMARK    8  A    between atoms: C_10  and  C_11
REMARK    9  A    between atoms: C_11  and  C_12
REMARK   10  A    between atoms: C_12  and  C_13
REMARK   11  A    between atoms: C_14  and  C_15
REMARK   12  A    between atoms: C_15  and  C_16
REMARK   13  A    between atoms: C_16  and  O_17
REMARK   14  A    between atoms: O_17  and  C_18
REMARK   15  A    between atoms: C_18  and  C_19
REMARK   16  A    between atoms: C_19  and  C_20
REMARK   17  A    between atoms: C_20  and  C_21
REMARK   18  A    between atoms: C_21  and  C_22
REMARK   19  A    between atoms: C_22  and  N_23
REMARK   20  A    between atoms: C_25  and  O_26
REMARK   21  A    between atoms: C_27  and  O_28
REMARK   22  A    between atoms: C_29  and  O_30
REMARK   23  A    between atoms: C_31  and  C_32
REMARK   24  A    between atoms: C_32  and  O_33
REMARK                            x       y       z     vdW  Elec       q    Type
REMARK                         _______ _______ _______ _____ _____    ______ ____
ROOT
ATOM      1  C   UNL     1       2.935   1.689  18.494  0.00  0.00    +0.000 C 
ENDROOT
BRANCH   1   2
ATOM      2  C   UNL     1       4.300   1.116  18.792  0.00  0.00    +0.000 C 
BRANCH   2   3
ATOM      3  O   UNL     1       4.565   1.360  20.175  0.00  0.00    +0.000 OA
BRANCH   3   4
ATOM      4  C   UNL     1       4.271   2.707  20.513  0.00  0.00    +0.000 C 
BRANCH   4   5
ATOM      5  C   UNL     1       3.018   2.726  21.376  0.00  0.00    +0.000 C 
BRANCH   5   8
ATOM      6  C   UNL     1       1.446   4.625  20.780  0.00  0.00    +0.000 C 
ATOM      7  C   UNL     1       0.651   3.740  19.847  0.00  0.00    +0.000 C 
ATOM      8  C   UNL     1       2.492   4.127  21.468  0.00  0.00    +0.000 C 
BRANCH   6   9
ATOM      9  C   UNL     1       1.109   6.099  20.950  0.00  0.00    +0.000 C 
BRANCH   9  10
ATOM     10  C   UNL     1       2.149   7.050  20.365  0.00  0.00    +0.000 C 
BRANCH  10  13
ATOM     11  C   UNL     1       1.819   8.793  18.617  0.00  0.00    +0.000 C 
ATOM     12  C   UNL     1       2.517   7.881  17.632  0.00  0.00    +0.000 C 
ATOM     13  C   UNL     1       1.649   8.387  19.894  0.00  0.00    +0.000 C 
BRANCH  11  14
ATOM     14  C   UNL     1       1.289  10.145  18.180  0.00  0.00    +0.000 C 
BRANCH  14  15
ATOM     15  C   UNL     1      -0.147  10.461  18.604  0.00  0.00    +0.000 C 
BRANCH  15  19
ATOM     16  C   UNL     1      -3.377   9.971  16.493  0.00  0.00    +0.000 C 
ATOM     17  C   UNL     1      -2.431  10.514  17.525  0.00  0.00    +0.000 C 
ATOM     18  C   UNL     1      -2.955  11.557  18.472  0.00  0.00    +0.000 C 
ATOM     19  C   UNL     1      -1.160  10.067  17.573  0.00  0.00    +0.000 C 
ENDBRANCH  15  19
ENDBRANCH  14  15
ENDBRANCH  11  14
ENDBRANCH  10  13
ENDBRANCH   9  10
ENDBRANCH   6   9
ENDBRANCH   5   8
ENDBRANCH   4   5
ENDBRANCH   3   4
ENDBRANCH   2   3
ENDBRANCH   1   2
BRANCH   1  20
ATOM     20  C   UNL     1       2.791   2.133  17.041  0.00  0.00    +0.000 C 
BRANCH  20  21
ATOM     21  C   UNL     1       2.532   3.626  17.066  0.00  0.00    +0.000 C 
BRANCH  21  22
ATOM     22  C   UNL     1       3.587   4.479  17.768  0.00  0.00    +0.000 C 
BRANCH  22  23
ATOM     23  N   UNL     1       4.646   4.841  16.813  0.00  0.00    +0.000 NA
ATOM     24  C   UNL     1       5.009   3.727  15.931  0.00  0.00    +0.000 C 
ATOM     25  C   UNL     1       5.867   4.223  14.751  0.00  0.00    +0.000 C 
ATOM     26  C   UNL     1       7.088   5.025  15.246  0.00  0.00    +0.000 C 
ATOM     27  C   UNL     1       6.661   6.122  16.233  0.00  0.00    +0.000 C 
ATOM     28  C   UNL     1       5.834   5.523  17.389  0.00  0.00    +0.000 C 
BRANCH  27  29
ATOM     29  O   UNL     1       7.798   6.822  16.762  0.00  0.00    +0.000 OA
ATOM     30  H   UNL     1       7.499   7.274  17.574  0.00  0.00    +0.000 HD
ENDBRANCH  27  29
BRANCH  26  31
ATOM     31  O   UNL     1       7.819   5.627  14.167  0.00  0.00    +0.000 OA
ATOM     32  H   UNL     1       8.764   5.647  14.410  0.00  0.00    +0.000 HD
ENDBRANCH  26  31
BRANCH  25  33
ATOM     33  O   UNL     1       6.277   3.120  13.935  0.00  0.00    +0.000 OA
ATOM     34  H   UNL     1       7.020   2.671  14.373  0.00  0.00    +0.000 HD
ENDBRANCH  25  33
BRANCH  28  35
ATOM     35  C   UNL     1       6.735   4.692  18.347  0.00  0.00    +0.000 C 
BRANCH  35  36
ATOM     36  O   UNL     1       6.697   5.153  19.699  0.00  0.00    +0.000 OA
ATOM     37  H   UNL     1       7.583   5.495  19.908  0.00  0.00    +0.000 HD
ENDBRANCH  35  36
ENDBRANCH  28  35
ENDBRANCH  22  23
ENDBRANCH  21  22
ENDBRANCH  20  21
ENDBRANCH   1  20
TORSDOF 20
ENDMDL
MODEL 7
REMARK VINA RESULT:      -6.0      2.474      4.008
REMARK  Name = 
REMARK  24 active torsions:
REMARK  status: ('A' for Active; 'I' for Inactive)
REMARK    1  A    between atoms: C_1  and  C_2
REMARK    2  A    between atoms: C_2  and  C_3
REMARK    3  A    between atoms: C_4  and  C_5
REMARK    4  A    between atoms: C_5  and  C_6
REMARK    5  A    between atoms: C_6  and  C_7
REMARK    6  A    between atoms: C_7  and  C_8
REMARK    7  A    between atoms: C_9  and  C_10
REMARK    8  A    between atoms: C_10  and  C_11
REMARK    9  A    between atoms: C_11  and  C_12
REMARK   10  A    between atoms: C_12  and  C_13
REMARK   11  A    between atoms: C_14  and  C_15
REMARK   12  A    between atoms: C_15  and  C_16
REMARK   13  A    between atoms: C_16  and  O_17
REMARK   14  A    between atoms: O_17  and  C_18
REMARK   15  A    between atoms: C_18  and  C_19
REMARK   16  A    between atoms: C_19  and  C_20
REMARK   17  A    between atoms: C_20  and  C_21
REMARK   18  A    between atoms: C_21  and  C_22
REMARK   19  A    between atoms: C_22  and  N_23
REMARK   20  A    between atoms: C_25  and  O_26
REMARK   21  A    between atoms: C_27  and  O_28
REMARK   22  A    between atoms: C_29  and  O_30
REMARK   23  A    between atoms: C_31  and  C_32
REMARK   24  A    between atoms: C_32  and  O_33
REMARK                            x       y       z     vdW  Elec       q    Type
REMARK                         _______ _______ _______ _____ _____    ______ ____
ROOT
ATOM      1  C   UNL     1       0.346   9.338  23.144  0.00  0.00    +0.000 C 
ENDROOT
BRANCH   1   2
ATOM      2  C   UNL     1       1.537   9.136  22.238  0.00  0.00    +0.000 C 
BRANCH   2   3
ATOM      3  O   UNL     1       1.040   8.617  21.002  0.00  0.00    +0.000 OA
BRANCH   3   4
ATOM      4  C   UNL     1       1.853   7.549  20.542  0.00  0.00    +0.000 C 
BRANCH   4   5
ATOM      5  C   UNL     1       1.120   6.240  20.794  0.00  0.00    +0.000 C 
BRANCH   5   8
ATOM      6  C   UNL     1       1.935   3.838  20.816  0.00  0.00    +0.000 C 
ATOM      7  C   UNL     1       0.661   3.349  20.165  0.00  0.00    +0.000 C 
ATOM      8  C   UNL     1       2.114   5.150  21.064  0.00  0.00    +0.000 C 
BRANCH   6   9
ATOM      9  C   UNL     1       3.032   2.870  21.231  0.00  0.00    +0.000 C 
BRANCH   9  10
ATOM     10  C   UNL     1       3.723   2.169  20.065  0.00  0.00    +0.000 C 
BRANCH  10  13
ATOM     11  C   UNL     1       3.754   3.110  17.759  0.00  0.00    +0.000 C 
ATOM     12  C   UNL     1       2.530   2.277  17.445  0.00  0.00    +0.000 C 
ATOM     13  C   UNL     1       4.298   3.053  18.994  0.00  0.00    +0.000 C 
BRANCH  11  14
ATOM     14  C   UNL     1       4.359   4.023  16.711  0.00  0.00    +0.000 C 
BRANCH  14  15
ATOM     15  C   UNL     1       4.385   5.512  17.066  0.00  0.00    +0.000 C 
BRANCH  15  19
ATOM     16  C   UNL     1       7.778   6.279  18.805  0.00  0.00    +0.000 C 
ATOM     17  C   UNL     1       6.771   6.019  17.722  0.00  0.00    +0.000 C 
ATOM     18  C   UNL     1       7.271   5.953  16.306  0.00  0.00    +0.000 C 
ATOM     19  C   UNL     1       5.470   5.862  18.038  0.00  0.00    +0.000 C 
ENDBRANCH  15  19
ENDBRANCH  14  15
ENDBRANCH  11  14
ENDBRANCH  10  13
ENDBRANCH   9  10
ENDBRANCH   6   9
ENDBRANCH   5   8
ENDBRANCH   4   5
ENDBRANCH   3   4
ENDBRANCH   2   3
ENDBRANCH   1   2
BRANCH   1  20
ATOM     20  C   UNL     1      -0.853   9.933  22.410  0.00  0.00    +0.000 C 
BRANCH  20  21
ATOM     21  C   UNL     1      -1.027  11.345  22.933  0.00  0.00    +0.000 C 
BRANCH  21  22
ATOM     22  C   UNL     1      -1.116  12.445  21.877  0.00  0.00    +0.000 C 
BRANCH  22  23
ATOM     23  N   UNL     1      -0.127  12.197  20.817  0.00  0.00    +0.000 NA
ATOM     24  C   UNL     1       0.672  13.388  20.508  0.00  0.00    +0.000 C 
ATOM     25  C   UNL     1       1.895  13.017  19.647  0.00  0.00    +0.000 C 
ATOM     26  C   UNL     1       1.474  12.227  18.391  0.00  0.00    +0.000 C 
ATOM     27  C   UNL     1       0.570  11.042  18.763  0.00  0.00    +0.000 C 
ATOM     28  C   UNL     1      -0.637  11.520  19.597  0.00  0.00    +0.000 C 
BRANCH  27  29
ATOM     29  O   UNL     1       0.107  10.349  17.594  0.00  0.00    +0.000 OA
ATOM     30  H   UNL     1       0.439  10.844  16.822  0.00  0.00    +0.000 HD
ENDBRANCH  27  29
BRANCH  26  31
ATOM     31  O   UNL     1       2.603  11.737  17.652  0.00  0.00    +0.000 OA
ATOM     32  H   UNL     1       3.228  11.328  18.280  0.00  0.00    +0.000 HD
ENDBRANCH  26  31
BRANCH  25  33
ATOM     33  O   UNL     1       2.628  14.192  19.290  0.00  0.00    +0.000 OA
ATOM     34  H   UNL     1       2.203  14.599  18.516  0.00  0.00    +0.000 HD
ENDBRANCH  25  33
BRANCH  28  35
ATOM     35  C   UNL     1      -1.646  12.310  18.716  0.00  0.00    +0.000 C 
BRANCH  35  36
ATOM     36  O   UNL     1      -1.081  12.775  17.489  0.00  0.00    +0.000 OA
ATOM     37  H   UNL     1      -0.114  12.754  17.595  0.00  0.00    +0.000 HD
ENDBRANCH  35  36
ENDBRANCH  28  35
ENDBRANCH  22  23
ENDBRANCH  21  22
ENDBRANCH  20  21
ENDBRANCH   1  20
TORSDOF 20
ENDMDL
MODEL 8
REMARK VINA RESULT:      -6.0      3.313     10.726
REMARK  Name = 
REMARK  24 active torsions:
REMARK  status: ('A' for Active; 'I' for Inactive)
REMARK    1  A    between atoms: C_1  and  C_2
REMARK    2  A    between atoms: C_2  and  C_3
REMARK    3  A    between atoms: C_4  and  C_5
REMARK    4  A    between atoms: C_5  and  C_6
REMARK    5  A    between atoms: C_6  and  C_7
REMARK    6  A    between atoms: C_7  and  C_8
REMARK    7  A    between atoms: C_9  and  C_10
REMARK    8  A    between atoms: C_10  and  C_11
REMARK    9  A    between atoms: C_11  and  C_12
REMARK   10  A    between atoms: C_12  and  C_13
REMARK   11  A    between atoms: C_14  and  C_15
REMARK   12  A    between atoms: C_15  and  C_16
REMARK   13  A    between atoms: C_16  and  O_17
REMARK   14  A    between atoms: O_17  and  C_18
REMARK   15  A    between atoms: C_18  and  C_19
REMARK   16  A    between atoms: C_19  and  C_20
REMARK   17  A    between atoms: C_20  and  C_21
REMARK   18  A    between atoms: C_21  and  C_22
REMARK   19  A    between atoms: C_22  and  N_23
REMARK   20  A    between atoms: C_25  and  O_26
REMARK   21  A    between atoms: C_27  and  O_28
REMARK   22  A    between atoms: C_29  and  O_30
REMARK   23  A    between atoms: C_31  and  C_32
REMARK   24  A    between atoms: C_32  and  O_33
REMARK                            x       y       z     vdW  Elec       q    Type
REMARK                         _______ _______ _______ _____ _____    ______ ____
ROOT
ATOM      1  C   UNL     1       0.224   9.293  20.765  0.00  0.00    +0.000 C 
ENDROOT
BRANCH   1   2
ATOM      2  C   UNL     1       0.735  10.673  20.428  0.00  0.00    +0.000 C 
BRANCH   2   3
ATOM      3  O   UNL     1       0.400  11.524  21.527  0.00  0.00    +0.000 OA
BRANCH   3   4
ATOM      4  C   UNL     1      -1.008  11.639  21.663  0.00  0.00    +0.000 C 
BRANCH   4   5
ATOM      5  C   UNL     1      -1.383  11.306  23.099  0.00  0.00    +0.000 C 
BRANCH   5   8
ATOM      6  C   UNL     1      -2.970  13.151  23.813  0.00  0.00    +0.000 C 
ATOM      7  C   UNL     1      -1.839  14.147  23.928  0.00  0.00    +0.000 C 
ATOM      8  C   UNL     1      -2.729  11.886  23.415  0.00  0.00    +0.000 C 
BRANCH   6   9
ATOM      9  C   UNL     1      -4.399  13.535  24.164  0.00  0.00    +0.000 C 
BRANCH   9  10
ATOM     10  C   UNL     1      -5.222  14.034  22.979  0.00  0.00    +0.000 C 
BRANCH  10  13
ATOM     11  C   UNL     1      -5.073  12.982  20.726  0.00  0.00    +0.000 C 
ATOM     12  C   UNL     1      -4.017  14.005  20.363  0.00  0.00    +0.000 C 
ATOM     13  C   UNL     1      -5.624  13.006  21.959  0.00  0.00    +0.000 C 
BRANCH  11  14
ATOM     14  C   UNL     1      -5.499  11.922  19.731  0.00  0.00    +0.000 C 
BRANCH  14  15
ATOM     15  C   UNL     1      -4.859  12.021  18.343  0.00  0.00    +0.000 C 
BRANCH  15  19
ATOM     16  C   UNL     1      -1.723   9.995  17.256  0.00  0.00    +0.000 C 
ATOM     17  C   UNL     1      -3.037  10.716  17.178  0.00  0.00    +0.000 C 
ATOM     18  C   UNL     1      -3.757  10.711  15.859  0.00  0.00    +0.000 C 
ATOM     19  C   UNL     1      -3.525  11.344  18.266  0.00  0.00    +0.000 C 
ENDBRANCH  15  19
ENDBRANCH  14  15
ENDBRANCH  11  14
ENDBRANCH  10  13
ENDBRANCH   9  10
ENDBRANCH   6   9
ENDBRANCH   5   8
ENDBRANCH   4   5
ENDBRANCH   3   4
ENDBRANCH   2   3
ENDBRANCH   1   2
BRANCH   1  20
ATOM     20  C   UNL     1       1.326   8.370  21.279  0.00  0.00    +0.000 C 
BRANCH  20  21
ATOM     21  C   UNL     1       1.820   7.577  20.085  0.00  0.00    +0.000 C 
BRANCH  21  22
ATOM     22  C   UNL     1       1.898   6.063  20.271  0.00  0.00    +0.000 C 
BRANCH  22  23
ATOM     23  N   UNL     1       3.142   5.554  19.673  0.00  0.00    +0.000 NA
ATOM     24  C   UNL     1       3.371   6.083  18.324  0.00  0.00    +0.000 C 
ATOM     25  C   UNL     1       4.814   5.798  17.864  0.00  0.00    +0.000 C 
ATOM     26  C   UNL     1       5.156   4.300  17.993  0.00  0.00    +0.000 C 
ATOM     27  C   UNL     1       4.816   3.777  19.397  0.00  0.00    +0.000 C 
ATOM     28  C   UNL     1       3.347   4.084  19.752  0.00  0.00    +0.000 C 
BRANCH  27  29
ATOM     29  O   UNL     1       5.055   2.364  19.502  0.00  0.00    +0.000 OA
ATOM     30  H   UNL     1       5.659   2.235  20.258  0.00  0.00    +0.000 HD
ENDBRANCH  27  29
BRANCH  26  31
ATOM     31  O   UNL     1       6.539   4.030  17.718  0.00  0.00    +0.000 OA
ATOM     32  H   UNL     1       6.587   3.358  17.012  0.00  0.00    +0.000 HD
ENDBRANCH  26  31
BRANCH  25  33
ATOM     33  O   UNL     1       5.008   6.253  16.522  0.00  0.00    +0.000 OA
ATOM     34  H   UNL     1       5.519   7.080  16.547  0.00  0.00    +0.000 HD
ENDBRANCH  25  33
BRANCH  28  35
ATOM     35  C   UNL     1       2.375   3.187  18.932  0.00  0.00    +0.000 C 
BRANCH  35  36
ATOM     36  O   UNL     1       2.141   1.912  19.534  0.00  0.00    +0.000 OA
ATOM     37  H   UNL     1       2.006   1.276  18.811  0.00  0.00    +0.000 HD
ENDBRANCH  35  36
ENDBRANCH  28  35
ENDBRANCH  22  23
ENDBRANCH  21  22
ENDBRANCH  20  21
ENDBRANCH   1  20
TORSDOF 20
ENDMDL
MODEL 9
REMARK VINA RESULT:      -6.0      4.575     10.818
REMARK  Name = 
REMARK  24 active torsions:
REMARK  status: ('A' for Active; 'I' for Inactive)
REMARK    1  A    between atoms: C_1  and  C_2
REMARK    2  A    between atoms: C_2  and  C_3
REMARK    3  A    between atoms: C_4  and  C_5
REMARK    4  A    between atoms: C_5  and  C_6
REMARK    5  A    between atoms: C_6  and  C_7
REMARK    6  A    between atoms: C_7  and  C_8
REMARK    7  A    between atoms: C_9  and  C_10
REMARK    8  A    between atoms: C_10  and  C_11
REMARK    9  A    between atoms: C_11  and  C_12
REMARK   10  A    between atoms: C_12  and  C_13
REMARK   11  A    between atoms: C_14  and  C_15
REMARK   12  A    between atoms: C_15  and  C_16
REMARK   13  A    between atoms: C_16  and  O_17
REMARK   14  A    between atoms: O_17  and  C_18
REMARK   15  A    between atoms: C_18  and  C_19
REMARK   16  A    between atoms: C_19  and  C_20
REMARK   17  A    between atoms: C_20  and  C_21
REMARK   18  A    between atoms: C_21  and  C_22
REMARK   19  A    between atoms: C_22  and  N_23
REMARK   20  A    between atoms: C_25  and  O_26
REMARK   21  A    between atoms: C_27  and  O_28
REMARK   22  A    between atoms: C_29  and  O_30
REMARK   23  A    between atoms: C_31  and  C_32
REMARK   24  A    between atoms: C_32  and  O_33
REMARK                            x       y       z     vdW  Elec       q    Type
REMARK                         _______ _______ _______ _____ _____    ______ ____
ROOT
ATOM      1  C   UNL     1       1.451   2.223  18.797  0.00  0.00    +0.000 C 
ENDROOT
BRANCH   1   2
ATOM      2  C   UNL     1       0.603   3.148  19.637  0.00  0.00    +0.000 C 
BRANCH   2   3
ATOM      3  O   UNL     1       1.497   3.942  20.420  0.00  0.00    +0.000 OA
BRANCH   3   4
ATOM      4  C   UNL     1       1.090   5.302  20.424  0.00  0.00    +0.000 C 
BRANCH   4   5
ATOM      5  C   UNL     1       2.317   6.174  20.202  0.00  0.00    +0.000 C 
BRANCH   5   8
ATOM      6  C   UNL     1       2.166   8.212  18.700  0.00  0.00    +0.000 C 
ATOM      7  C   UNL     1       2.937   7.519  17.599  0.00  0.00    +0.000 C 
ATOM      8  C   UNL     1       1.887   7.566  19.849  0.00  0.00    +0.000 C 
BRANCH   6   9
ATOM      9  C   UNL     1       1.709   9.655  18.556  0.00  0.00    +0.000 C 
BRANCH   9  10
ATOM     10  C   UNL     1       0.264   9.810  18.091  0.00  0.00    +0.000 C 
BRANCH  10  13
ATOM     11  C   UNL     1      -1.052  11.616  19.193  0.00  0.00    +0.000 C 
ATOM     12  C   UNL     1      -0.428  12.603  18.230  0.00  0.00    +0.000 C 
ATOM     13  C   UNL     1      -0.722  10.309  19.112  0.00  0.00    +0.000 C 
BRANCH  11  14
ATOM     14  C   UNL     1      -2.059  12.075  20.229  0.00  0.00    +0.000 C 
BRANCH  14  15
ATOM     15  C   UNL     1      -1.618  11.932  21.688  0.00  0.00    +0.000 C 
BRANCH  15  19
ATOM     16  C   UNL     1      -3.572  13.709  24.544  0.00  0.00    +0.000 C 
ATOM     17  C   UNL     1      -2.482  13.391  23.561  0.00  0.00    +0.000 C 
ATOM     18  C   UNL     1      -1.225  14.212  23.625  0.00  0.00    +0.000 C 
ATOM     19  C   UNL     1      -2.656  12.404  22.660  0.00  0.00    +0.000 C 
ENDBRANCH  15  19
ENDBRANCH  14  15
ENDBRANCH  11  14
ENDBRANCH  10  13
ENDBRANCH   9  10
ENDBRANCH   6   9
ENDBRANCH   5   8
ENDBRANCH   4   5
ENDBRANCH   3   4
ENDBRANCH   2   3
ENDBRANCH   1   2
BRANCH   1  20
ATOM     20  C   UNL     1       2.397   2.979  17.867  0.00  0.00    +0.000 C 
BRANCH  20  21
ATOM     21  C   UNL     1       3.803   2.707  18.361  0.00  0.00    +0.000 C 
BRANCH  21  22
ATOM     22  C   UNL     1       4.632   3.934  18.737  0.00  0.00    +0.000 C 
BRANCH  22  23
ATOM     23  N   UNL     1       5.272   4.488  17.534  0.00  0.00    +0.000 NA
ATOM     24  C   UNL     1       5.551   3.459  16.526  0.00  0.00    +0.000 C 
ATOM     25  C   UNL     1       5.911   4.104  15.173  0.00  0.00    +0.000 C 
ATOM     26  C   UNL     1       7.055   5.126  15.329  0.00  0.00    +0.000 C 
ATOM     27  C   UNL     1       6.750   6.126  16.454  0.00  0.00    +0.000 C 
ATOM     28  C   UNL     1       6.432   5.386  17.769  0.00  0.00    +0.000 C 
BRANCH  27  29
ATOM     29  O   UNL     1       7.846   7.032  16.661  0.00  0.00    +0.000 OA
ATOM     30  H   UNL     1       8.608   6.670  16.170  0.00  0.00    +0.000 HD
ENDBRANCH  27  29
BRANCH  26  31
ATOM     31  O   UNL     1       7.307   5.852  14.116  0.00  0.00    +0.000 OA
ATOM     32  H   UNL     1       6.535   5.744  13.528  0.00  0.00    +0.000 HD
ENDBRANCH  26  31
BRANCH  25  33
ATOM     33  O   UNL     1       6.251   3.096  14.216  0.00  0.00    +0.000 OA
ATOM     34  H   UNL     1       6.587   3.533  13.414  0.00  0.00    +0.000 HD
ENDBRANCH  25  33
BRANCH  28  35
ATOM     35  C   UNL     1       7.715   4.745  18.373  0.00  0.00    +0.000 C 
BRANCH  35  36
ATOM     36  O   UNL     1       8.054   5.267  19.660  0.00  0.00    +0.000 OA
ATOM     37  H   UNL     1       8.795   4.736  19.996  0.00  0.00    +0.000 HD
ENDBRANCH  35  36
ENDBRANCH  28  35
ENDBRANCH  22  23
ENDBRANCH  21  22
ENDBRANCH  20  21
ENDBRANCH   1  20
TORSDOF 20
ENDMDL
