MODEL 1
REMARK VINA RESULT:      -8.3      0.000      0.000
REMARK  Name = 
REMARK  5 active torsions:
REMARK  status: ('A' for Active; 'I' for Inactive)
REMARK    1  A    between atoms: C_1  and  C_2
REMARK    2  A    between atoms: C_13  and  C_14
REMARK    3  A    between atoms: C_14  and  C_15
REMARK    4  A    between atoms: C_15  and  C_16
REMARK    5  A    between atoms: C_18  and  O_19
REMARK                            x       y       z     vdW  Elec       q    Type
REMARK                         _______ _______ _______ _____ _____    ______ ____
ROOT
ATOM      1  C   UNL     1       3.741   1.415  17.737  0.00  0.00    +0.000 C 
ATOM      2  C   UNL     1       3.155   2.635  18.403  0.00  0.00    +0.000 A 
ATOM      3  C   UNL     1       2.628   2.455  19.684  0.00  0.00    +0.000 A 
ATOM      4  C   UNL     1       2.146   3.529  20.424  0.00  0.00    +0.000 A 
ATOM      5 CL   UNL     1       1.560   3.159  22.017  0.00  0.00    +0.000 Cl
ATOM      6  C   UNL     1       2.160   4.839  19.904  0.00  0.00    +0.000 A 
ATOM      7  C   UNL     1       1.724   5.947  20.674  0.00  0.00    +0.000 A 
ATOM      8  C   UNL     1       1.745   7.246  20.178  0.00  0.00    +0.000 A 
ATOM      9  C   UNL     1       2.186   7.460  18.886  0.00  0.00    +0.000 A 
ATOM     10 CL   UNL     1       2.220   9.060  18.251  0.00  0.00    +0.000 Cl
ATOM     11  C   UNL     1       2.617   6.386  18.098  0.00  0.00    +0.000 A 
ATOM     12  C   UNL     1       2.645   5.049  18.577  0.00  0.00    +0.000 A 
ATOM     13  C   UNL     1       3.153   3.931  17.819  0.00  0.00    +0.000 A 
ENDROOT
BRANCH  13  14
ATOM     14  C   UNL     1       3.784   4.129  16.440  0.00  0.00    +0.000 C 
BRANCH  14  15
ATOM     15  C   UNL     1       4.634   5.401  16.264  0.00  0.00    +0.000 C 
BRANCH  15  16
ATOM     16  C   UNL     1       6.101   5.179  16.676  0.00  0.00    +0.000 C 
ATOM     17  C   UNL     1       6.203   4.593  18.078  0.00  0.00    +0.000 C 
ATOM     18  C   UNL     1       7.596   4.807  18.636  0.00  0.00    +0.000 C 
ATOM     19  C   UNL     1       7.896   6.289  18.713  0.00  0.00    +0.000 C 
ATOM     20  C   UNL     1       7.578   7.033  17.451  0.00  0.00    +0.000 C 
ATOM     21  O   UNL     1       8.000   8.173  17.265  0.00  0.00    +0.000 OA
ATOM     22  O   UNL     1       6.797   6.439  16.530  0.00  0.00    +0.000 OA
BRANCH  18  23
ATOM     23  O   UNL     1       8.570   4.106  17.868  0.00  0.00    +0.000 OA
ATOM     24  H   UNL     1       9.261   4.720  17.563  0.00  0.00    +0.000 HD
ENDBRANCH  18  23
ENDBRANCH  15  16
ENDBRANCH  14  15
ENDBRANCH  13  14
TORSDOF 4
ENDMDL
MODEL 2
REMARK VINA RESULT:      -8.3      0.996      1.727
REMARK  Name = 
REMARK  5 active torsions:
REMARK  status: ('A' for Active; 'I' for Inactive)
REMARK    1  A    between atoms: C_1  and  C_2
REMARK    2  A    between atoms: C_13  and  C_14
REMARK    3  A    between atoms: C_14  and  C_15
REMARK    4  A    between atoms: C_15  and  C_16
REMARK    5  A    between atoms: C_18  and  O_19
REMARK                            x       y       z     vdW  Elec       q    Type
REMARK                         _______ _______ _______ _____ _____    ______ ____
ROOT
ATOM      1  C   UNL     1       3.891   1.275  17.805  0.00  0.00    +0.000 C 
ATOM      2  C   UNL     1       3.259   2.490  18.440  0.00  0.00    +0.000 A 
ATOM      3  C   UNL     1       2.649   2.300  19.682  0.00  0.00    +0.000 A 
ATOM      4  C   UNL     1       2.116   3.368  20.395  0.00  0.00    +0.000 A 
ATOM      5 CL   UNL     1       1.427   2.985  21.943  0.00  0.00    +0.000 Cl
ATOM      6  C   UNL     1       2.162   4.681  19.887  0.00  0.00    +0.000 A 
ATOM      7  C   UNL     1       1.673   5.783  20.633  0.00  0.00    +0.000 A 
ATOM      8  C   UNL     1       1.724   7.086  20.149  0.00  0.00    +0.000 A 
ATOM      9  C   UNL     1       2.250   7.310  18.890  0.00  0.00    +0.000 A 
ATOM     10 CL   UNL     1       2.322   8.914  18.270  0.00  0.00    +0.000 Cl
ATOM     11  C   UNL     1       2.734   6.242  18.126  0.00  0.00    +0.000 A 
ATOM     12  C   UNL     1       2.734   4.901  18.596  0.00  0.00    +0.000 A 
ATOM     13  C   UNL     1       3.293   3.790  17.866  0.00  0.00    +0.000 A 
ENDROOT
BRANCH  13  14
ATOM     14  C   UNL     1       4.014   3.999  16.533  0.00  0.00    +0.000 C 
BRANCH  14  15
ATOM     15  C   UNL     1       5.538   4.205  16.615  0.00  0.00    +0.000 C 
BRANCH  15  16
ATOM     16  C   UNL     1       5.904   5.551  17.269  0.00  0.00    +0.000 C 
ATOM     17  C   UNL     1       7.036   6.244  16.523  0.00  0.00    +0.000 C 
ATOM     18  C   UNL     1       7.682   7.293  17.405  0.00  0.00    +0.000 C 
ATOM     19  C   UNL     1       8.254   6.641  18.645  0.00  0.00    +0.000 C 
ATOM     20  C   UNL     1       7.298   5.711  19.331  0.00  0.00    +0.000 C 
ATOM     21  O   UNL     1       7.514   5.312  20.473  0.00  0.00    +0.000 OA
ATOM     22  O   UNL     1       6.206   5.298  18.662  0.00  0.00    +0.000 OA
BRANCH  18  23
ATOM     23  O   UNL     1       6.760   8.330  17.726  0.00  0.00    +0.000 OA
ATOM     24  H   UNL     1       6.549   8.309  18.677  0.00  0.00    +0.000 HD
ENDBRANCH  18  23
ENDBRANCH  15  16
ENDBRANCH  14  15
ENDBRANCH  13  14
TORSDOF 4
ENDMDL
MODEL 3
REMARK VINA RESULT:      -7.9      4.017      6.301
REMARK  Name = 
REMARK  5 active torsions:
REMARK  status: ('A' for Active; 'I' for Inactive)
REMARK    1  A    between atoms: C_1  and  C_2
REMARK    2  A    between atoms: C_13  and  C_14
REMARK    3  A    between atoms: C_14  and  C_15
REMARK    4  A    between atoms: C_15  and  C_16
REMARK    5  A    between atoms: C_18  and  O_19
REMARK                            x       y       z     vdW  Elec       q    Type
REMARK                         _______ _______ _______ _____ _____    ______ ____
ROOT
ATOM      1  C   UNL     1       1.106   7.406  21.084  0.00  0.00    +0.000 C 
ATOM      2  C   UNL     1       1.939   6.435  20.284  0.00  0.00    +0.000 A 
ATOM      3  C   UNL     1       1.925   5.103  20.705  0.00  0.00    +0.000 A 
ATOM      4  C   UNL     1       2.584   4.112  19.987  0.00  0.00    +0.000 A 
ATOM      5 CL   UNL     1       2.444   2.496  20.609  0.00  0.00    +0.000 Cl
ATOM      6  C   UNL     1       3.301   4.415  18.812  0.00  0.00    +0.000 A 
ATOM      7  C   UNL     1       3.927   3.402  18.044  0.00  0.00    +0.000 A 
ATOM      8  C   UNL     1       4.627   3.685  16.876  0.00  0.00    +0.000 A 
ATOM      9  C   UNL     1       4.732   5.000  16.463  0.00  0.00    +0.000 A 
ATOM     10 CL   UNL     1       5.594   5.375  15.021  0.00  0.00    +0.000 Cl
ATOM     11  C   UNL     1       4.131   6.024  17.204  0.00  0.00    +0.000 A 
ATOM     12  C   UNL     1       3.378   5.775  18.383  0.00  0.00    +0.000 A 
ATOM     13  C   UNL     1       2.683   6.797  19.128  0.00  0.00    +0.000 A 
ENDROOT
BRANCH  13  14
ATOM     14  C   UNL     1       2.646   8.247  18.641  0.00  0.00    +0.000 C 
BRANCH  14  15
ATOM     15  C   UNL     1       1.474   8.617  17.712  0.00  0.00    +0.000 C 
BRANCH  15  16
ATOM     16  C   UNL     1       0.958  10.044  17.973  0.00  0.00    +0.000 C 
ATOM     17  C   UNL     1       2.107  11.029  18.150  0.00  0.00    +0.000 C 
ATOM     18  C   UNL     1       1.619  12.285  18.844  0.00  0.00    +0.000 C 
ATOM     19  C   UNL     1       1.072  11.936  20.212  0.00  0.00    +0.000 C 
ATOM     20  C   UNL     1       0.112  10.784  20.200  0.00  0.00    +0.000 C 
ATOM     21  O   UNL     1      -0.606  10.549  21.169  0.00  0.00    +0.000 OA
ATOM     22  O   UNL     1       0.069   9.991  19.114  0.00  0.00    +0.000 OA
BRANCH  18  23
ATOM     23  O   UNL     1       0.660  12.972  18.046  0.00  0.00    +0.000 OA
ATOM     24  H   UNL     1      -0.137  13.165  18.572  0.00  0.00    +0.000 HD
ENDBRANCH  18  23
ENDBRANCH  15  16
ENDBRANCH  14  15
ENDBRANCH  13  14
TORSDOF 4
ENDMDL
MODEL 4
REMARK VINA RESULT:      -7.8      3.931      6.647
REMARK  Name = 
REMARK  5 active torsions:
REMARK  status: ('A' for Active; 'I' for Inactive)
REMARK    1  A    between atoms: C_1  and  C_2
REMARK    2  A    between atoms: C_13  and  C_14
REMARK    3  A    between atoms: C_14  and  C_15
REMARK    4  A    between atoms: C_15  and  C_16
REMARK    5  A    between atoms: C_18  and  O_19
REMARK                            x       y       z     vdW  Elec       q    Type
REMARK                         _______ _______ _______ _____ _____    ______ ____
ROOT
ATOM      1  C   UNL     1       3.905   5.507  19.133  0.00  0.00    +0.000 C 
ATOM      2  C   UNL     1       4.792   5.580  17.914  0.00  0.00    +0.000 A 
ATOM      3  C   UNL     1       5.862   6.476  17.972  0.00  0.00    +0.000 A 
ATOM      4  C   UNL     1       6.791   6.558  16.941  0.00  0.00    +0.000 A 
ATOM      5 CL   UNL     1       8.090   7.688  17.171  0.00  0.00    +0.000 Cl
ATOM      6  C   UNL     1       6.683   5.746  15.794  0.00  0.00    +0.000 A 
ATOM      7  C   UNL     1       7.658   5.782  14.766  0.00  0.00    +0.000 A 
ATOM      8  C   UNL     1       7.570   4.978  13.635  0.00  0.00    +0.000 A 
ATOM      9  C   UNL     1       6.486   4.132  13.500  0.00  0.00    +0.000 A 
ATOM     10 CL   UNL     1       6.356   3.128  12.108  0.00  0.00    +0.000 Cl
ATOM     11  C   UNL     1       5.503   4.078  14.495  0.00  0.00    +0.000 A 
ATOM     12  C   UNL     1       5.572   4.856  15.682  0.00  0.00    +0.000 A 
ATOM     13  C   UNL     1       4.616   4.771  16.759  0.00  0.00    +0.000 A 
ENDROOT
BRANCH  13  14
ATOM     14  C   UNL     1       3.476   3.751  16.729  0.00  0.00    +0.000 C 
BRANCH  14  15
ATOM     15  C   UNL     1       3.649   2.519  17.636  0.00  0.00    +0.000 C 
BRANCH  15  16
ATOM     16  C   UNL     1       2.418   2.284  18.533  0.00  0.00    +0.000 C 
ATOM     17  C   UNL     1       1.446   3.454  18.463  0.00  0.00    +0.000 C 
ATOM     18  C   UNL     1       0.510   3.430  19.655  0.00  0.00    +0.000 C 
ATOM     19  C   UNL     1       1.307   3.546  20.937  0.00  0.00    +0.000 C 
ATOM     20  C   UNL     1       2.473   2.607  21.006  0.00  0.00    +0.000 C 
ATOM     21  O   UNL     1       3.054   2.397  22.069  0.00  0.00    +0.000 OA
ATOM     22  O   UNL     1       2.894   2.014  19.873  0.00  0.00    +0.000 OA
BRANCH  18  23
ATOM     23  O   UNL     1      -0.309   2.265  19.640  0.00  0.00    +0.000 OA
ATOM     24  H   UNL     1       0.224   1.478  19.853  0.00  0.00    +0.000 HD
ENDBRANCH  18  23
ENDBRANCH  15  16
ENDBRANCH  14  15
ENDBRANCH  13  14
TORSDOF 4
ENDMDL
MODEL 5
REMARK VINA RESULT:      -7.8      4.187      6.648
REMARK  Name = 
REMARK  5 active torsions:
REMARK  status: ('A' for Active; 'I' for Inactive)
REMARK    1  A    between atoms: C_1  and  C_2
REMARK    2  A    between atoms: C_13  and  C_14
REMARK    3  A    between atoms: C_14  and  C_15
REMARK    4  A    between atoms: C_15  and  C_16
REMARK    5  A    between atoms: C_18  and  O_19
REMARK                            x       y       z     vdW  Elec       q    Type
REMARK                         _______ _______ _______ _____ _____    ______ ____
ROOT
ATOM      1  C   UNL     1       1.009   7.414  21.127  0.00  0.00    +0.000 C 
ATOM      2  C   UNL     1       1.885   6.470  20.340  0.00  0.00    +0.000 A 
ATOM      3  C   UNL     1       1.933   5.147  20.785  0.00  0.00    +0.000 A 
ATOM      4  C   UNL     1       2.637   4.175  20.081  0.00  0.00    +0.000 A 
ATOM      5 CL   UNL     1       2.573   2.565  20.731  0.00  0.00    +0.000 Cl
ATOM      6  C   UNL     1       3.335   4.491  18.899  0.00  0.00    +0.000 A 
ATOM      7  C   UNL     1       4.006   3.495  18.145  0.00  0.00    +0.000 A 
ATOM      8  C   UNL     1       4.688   3.791  16.970  0.00  0.00    +0.000 A 
ATOM      9  C   UNL     1       4.730   5.102  16.535  0.00  0.00    +0.000 A 
ATOM     10 CL   UNL     1       5.570   5.491  15.083  0.00  0.00    +0.000 Cl
ATOM     11  C   UNL     1       4.084   6.109  17.260  0.00  0.00    +0.000 A 
ATOM     12  C   UNL     1       3.347   5.845  18.446  0.00  0.00    +0.000 A 
ATOM     13  C   UNL     1       2.607   6.847  19.176  0.00  0.00    +0.000 A 
ENDROOT
BRANCH  13  14
ATOM     14  C   UNL     1       2.502   8.284  18.664  0.00  0.00    +0.000 C 
BRANCH  14  15
ATOM     15  C   UNL     1       1.333   8.574  17.703  0.00  0.00    +0.000 C 
BRANCH  15  16
ATOM     16  C   UNL     1       0.740   9.979  17.921  0.00  0.00    +0.000 C 
ATOM     17  C   UNL     1       0.992  10.477  19.338  0.00  0.00    +0.000 C 
ATOM     18  C   UNL     1       0.040  11.608  19.673  0.00  0.00    +0.000 C 
ATOM     19  C   UNL     1      -1.390  11.119  19.585  0.00  0.00    +0.000 C 
ATOM     20  C   UNL     1      -1.691  10.366  18.323  0.00  0.00    +0.000 C 
ATOM     21  O   UNL     1      -2.850  10.135  17.986  0.00  0.00    +0.000 OA
ATOM     22  O   UNL     1      -0.664   9.924  17.574  0.00  0.00    +0.000 OA
BRANCH  18  23
ATOM     23  O   UNL     1       0.270  12.737  18.836  0.00  0.00    +0.000 OA
ATOM     24  H   UNL     1      -0.353  13.452  19.059  0.00  0.00    +0.000 HD
ENDBRANCH  18  23
ENDBRANCH  15  16
ENDBRANCH  14  15
ENDBRANCH  13  14
TORSDOF 4
ENDMDL
MODEL 6
REMARK VINA RESULT:      -7.7      1.404      2.302
REMARK  Name = 
REMARK  5 active torsions:
REMARK  status: ('A' for Active; 'I' for Inactive)
REMARK    1  A    between atoms: C_1  and  C_2
REMARK    2  A    between atoms: C_13  and  C_14
REMARK    3  A    between atoms: C_14  and  C_15
REMARK    4  A    between atoms: C_15  and  C_16
REMARK    5  A    between atoms: C_18  and  O_19
REMARK                            x       y       z     vdW  Elec       q    Type
REMARK                         _______ _______ _______ _____ _____    ______ ____
ROOT
ATOM      1  C   UNL     1       4.087   3.566  17.254  0.00  0.00    +0.000 C 
ATOM      2  C   UNL     1       3.281   4.401  18.219  0.00  0.00    +0.000 A 
ATOM      3  C   UNL     1       2.781   3.744  19.346  0.00  0.00    +0.000 A 
ATOM      4  C   UNL     1       2.102   4.438  20.343  0.00  0.00    +0.000 A 
ATOM      5 CL   UNL     1       1.574   3.496  21.704  0.00  0.00    +0.000 Cl
ATOM      6  C   UNL     1       1.885   5.826  20.248  0.00  0.00    +0.000 A 
ATOM      7  C   UNL     1       1.245   6.549  21.287  0.00  0.00    +0.000 A 
ATOM      8  C   UNL     1       1.035   7.922  21.212  0.00  0.00    +0.000 A 
ATOM      9  C   UNL     1       1.446   8.599  20.079  0.00  0.00    +0.000 A 
ATOM     10 CL   UNL     1       1.195  10.298  19.964  0.00  0.00    +0.000 Cl
ATOM     11  C   UNL     1       2.074   7.913  19.033  0.00  0.00    +0.000 A 
ATOM     12  C   UNL     1       2.339   6.517  19.084  0.00  0.00    +0.000 A 
ATOM     13  C   UNL     1       3.050   5.794  18.058  0.00  0.00    +0.000 A 
ENDROOT
BRANCH  13  14
ATOM     14  C   UNL     1       3.651   6.515  16.850  0.00  0.00    +0.000 C 
BRANCH  14  15
ATOM     15  C   UNL     1       4.948   7.303  17.112  0.00  0.00    +0.000 C 
BRANCH  15  16
ATOM     16  C   UNL     1       6.151   6.705  16.357  0.00  0.00    +0.000 C 
ATOM     17  C   UNL     1       5.700   5.790  15.226  0.00  0.00    +0.000 C 
ATOM     18  C   UNL     1       6.833   4.875  14.808  0.00  0.00    +0.000 C 
ATOM     19  C   UNL     1       7.258   4.015  15.979  0.00  0.00    +0.000 C 
ATOM     20  C   UNL     1       7.478   4.788  17.245  0.00  0.00    +0.000 C 
ATOM     21  O   UNL     1       8.066   4.284  18.199  0.00  0.00    +0.000 OA
ATOM     22  O   UNL     1       6.995   6.041  17.328  0.00  0.00    +0.000 OA
BRANCH  18  23
ATOM     23  O   UNL     1       7.923   5.620  14.272  0.00  0.00    +0.000 OA
ATOM     24  H   UNL     1       7.609   6.212  13.565  0.00  0.00    +0.000 HD
ENDBRANCH  18  23
ENDBRANCH  15  16
ENDBRANCH  14  15
ENDBRANCH  13  14
TORSDOF 4
ENDMDL
MODEL 7
REMARK VINA RESULT:      -7.6      4.137      7.147
REMARK  Name = 
REMARK  5 active torsions:
REMARK  status: ('A' for Active; 'I' for Inactive)
REMARK    1  A    between atoms: C_1  and  C_2
REMARK    2  A    between atoms: C_13  and  C_14
REMARK    3  A    between atoms: C_14  and  C_15
REMARK    4  A    between atoms: C_15  and  C_16
REMARK    5  A    between atoms: C_18  and  O_19
REMARK                            x       y       z     vdW  Elec       q    Type
REMARK                         _______ _______ _______ _____ _____    ______ ____
ROOT
ATOM      1  C   UNL     1       2.333   9.258  18.028  0.00  0.00    +0.000 C 
ATOM      2  C   UNL     1       2.615   7.790  18.236  0.00  0.00    +0.000 A 
ATOM      3  C   UNL     1       3.518   7.195  17.351  0.00  0.00    +0.000 A 
ATOM      4  C   UNL     1       3.917   5.872  17.509  0.00  0.00    +0.000 A 
ATOM      5 CL   UNL     1       5.076   5.282  16.357  0.00  0.00    +0.000 Cl
ATOM      6  C   UNL     1       3.417   5.079  18.560  0.00  0.00    +0.000 A 
ATOM      7  C   UNL     1       3.862   3.748  18.761  0.00  0.00    +0.000 A 
ATOM      8  C   UNL     1       3.387   2.958  19.802  0.00  0.00    +0.000 A 
ATOM      9  C   UNL     1       2.434   3.481  20.655  0.00  0.00    +0.000 A 
ATOM     10 CL   UNL     1       1.830   2.520  21.950  0.00  0.00    +0.000 Cl
ATOM     11  C   UNL     1       1.968   4.789  20.479  0.00  0.00    +0.000 A 
ATOM     12  C   UNL     1       2.453   5.642  19.451  0.00  0.00    +0.000 A 
ATOM     13  C   UNL     1       2.050   7.018  19.287  0.00  0.00    +0.000 A 
ENDROOT
BRANCH  13  14
ATOM     14  C   UNL     1       1.107   7.692  20.285  0.00  0.00    +0.000 C 
BRANCH  14  15
ATOM     15  C   UNL     1       1.754   8.197  21.589  0.00  0.00    +0.000 C 
BRANCH  15  16
ATOM     16  C   UNL     1       1.089   9.489  22.101  0.00  0.00    +0.000 C 
ATOM     17  C   UNL     1      -0.417   9.320  22.250  0.00  0.00    +0.000 C 
ATOM     18  C   UNL     1      -1.095  10.674  22.300  0.00  0.00    +0.000 C 
ATOM     19  C   UNL     1      -0.823  11.432  21.018  0.00  0.00    +0.000 C 
ATOM     20  C   UNL     1       0.623  11.442  20.620  0.00  0.00    +0.000 C 
ATOM     21  O   UNL     1       1.038  12.218  19.763  0.00  0.00    +0.000 OA
ATOM     22  O   UNL     1       1.459  10.562  21.202  0.00  0.00    +0.000 OA
BRANCH  18  23
ATOM     23  O   UNL     1      -0.688  11.410  23.450  0.00  0.00    +0.000 OA
ATOM     24  H   UNL     1       0.282  11.502  23.463  0.00  0.00    +0.000 HD
ENDBRANCH  18  23
ENDBRANCH  15  16
ENDBRANCH  14  15
ENDBRANCH  13  14
TORSDOF 4
ENDMDL
MODEL 8
REMARK VINA RESULT:      -7.6      4.133      6.560
REMARK  Name = 
REMARK  5 active torsions:
REMARK  status: ('A' for Active; 'I' for Inactive)
REMARK    1  A    between atoms: C_1  and  C_2
REMARK    2  A    between atoms: C_13  and  C_14
REMARK    3  A    between atoms: C_14  and  C_15
REMARK    4  A    between atoms: C_15  and  C_16
REMARK    5  A    between atoms: C_18  and  O_19
REMARK                            x       y       z     vdW  Elec       q    Type
REMARK                         _______ _______ _______ _____ _____    ______ ____
ROOT
ATOM      1  C   UNL     1       1.120   7.735  21.017  0.00  0.00    +0.000 C 
ATOM      2  C   UNL     1       1.925   6.727  20.233  0.00  0.00    +0.000 A 
ATOM      3  C   UNL     1       1.874   5.405  20.680  0.00  0.00    +0.000 A 
ATOM      4  C   UNL     1       2.505   4.382  19.979  0.00  0.00    +0.000 A 
ATOM      5 CL   UNL     1       2.321   2.783  20.632  0.00  0.00    +0.000 Cl
ATOM      6  C   UNL     1       3.228   4.644  18.799  0.00  0.00    +0.000 A 
ATOM      7  C   UNL     1       3.825   3.599  18.048  0.00  0.00    +0.000 A 
ATOM      8  C   UNL     1       4.530   3.842  16.875  0.00  0.00    +0.000 A 
ATOM      9  C   UNL     1       4.671   5.146  16.438  0.00  0.00    +0.000 A 
ATOM     10 CL   UNL     1       5.541   5.469  14.988  0.00  0.00    +0.000 Cl
ATOM     11  C   UNL     1       4.099   6.199  17.160  0.00  0.00    +0.000 A 
ATOM     12  C   UNL     1       3.341   5.993  18.344  0.00  0.00    +0.000 A 
ATOM     13  C   UNL     1       2.677   7.048  19.071  0.00  0.00    +0.000 A 
ENDROOT
BRANCH  13  14
ATOM     14  C   UNL     1       2.679   8.488  18.557  0.00  0.00    +0.000 C 
BRANCH  14  15
ATOM     15  C   UNL     1       1.404   8.945  17.824  0.00  0.00    +0.000 C 
BRANCH  15  16
ATOM     16  C   UNL     1       0.582   9.943  18.661  0.00  0.00    +0.000 C 
ATOM     17  C   UNL     1      -0.750  10.264  17.996  0.00  0.00    +0.000 C 
ATOM     18  C   UNL     1      -1.323  11.548  18.562  0.00  0.00    +0.000 C 
ATOM     19  C   UNL     1      -0.369  12.695  18.301  0.00  0.00    +0.000 C 
ATOM     20  C   UNL     1       1.051  12.393  18.678  0.00  0.00    +0.000 C 
ATOM     21  O   UNL     1       1.885  13.290  18.771  0.00  0.00    +0.000 OA
ATOM     22  O   UNL     1       1.405  11.112  18.888  0.00  0.00    +0.000 OA
BRANCH  18  23
ATOM     23  O   UNL     1      -1.623  11.410  19.947  0.00  0.00    +0.000 OA
ATOM     24  H   UNL     1      -0.872  11.718  20.486  0.00  0.00    +0.000 HD
ENDBRANCH  18  23
ENDBRANCH  15  16
ENDBRANCH  14  15
ENDBRANCH  13  14
TORSDOF 4
ENDMDL
MODEL 9
REMARK VINA RESULT:      -7.5      1.937      4.051
REMARK  Name = 
REMARK  5 active torsions:
REMARK  status: ('A' for Active; 'I' for Inactive)
REMARK    1  A    between atoms: C_1  and  C_2
REMARK    2  A    between atoms: C_13  and  C_14
REMARK    3  A    between atoms: C_14  and  C_15
REMARK    4  A    between atoms: C_15  and  C_16
REMARK    5  A    between atoms: C_18  and  O_19
REMARK                            x       y       z     vdW  Elec       q    Type
REMARK                         _______ _______ _______ _____ _____    ______ ____
ROOT
ATOM      1  C   UNL     1       2.260   9.706  17.653  0.00  0.00    +0.000 C 
ATOM      2  C   UNL     1       2.228   8.504  18.565  0.00  0.00    +0.000 A 
ATOM      3  C   UNL     1       1.383   8.583  19.674  0.00  0.00    +0.000 A 
ATOM      4  C   UNL     1       1.210   7.500  20.528  0.00  0.00    +0.000 A 
ATOM      5 CL   UNL     1       0.097   7.732  21.841  0.00  0.00    +0.000 Cl
ATOM      6  C   UNL     1       1.889   6.284  20.312  0.00  0.00    +0.000 A 
ATOM      7  C   UNL     1       1.674   5.157  21.145  0.00  0.00    +0.000 A 
ATOM      8  C   UNL     1       2.327   3.947  20.935  0.00  0.00    +0.000 A 
ATOM      9  C   UNL     1       3.231   3.848  19.895  0.00  0.00    +0.000 A 
ATOM     10 CL   UNL     1       4.053   2.361  19.617  0.00  0.00    +0.000 Cl
ATOM     11  C   UNL     1       3.471   4.945  19.059  0.00  0.00    +0.000 A 
ATOM     12  C   UNL     1       2.799   6.188  19.216  0.00  0.00    +0.000 A 
ATOM     13  C   UNL     1       2.967   7.313  18.328  0.00  0.00    +0.000 A 
ENDROOT
BRANCH  13  14
ATOM     14  C   UNL     1       3.845   7.214  17.080  0.00  0.00    +0.000 C 
BRANCH  14  15
ATOM     15  C   UNL     1       5.310   7.658  17.249  0.00  0.00    +0.000 C 
BRANCH  15  16
ATOM     16  C   UNL     1       6.273   6.811  16.394  0.00  0.00    +0.000 C 
ATOM     17  C   UNL     1       5.515   5.905  15.434  0.00  0.00    +0.000 C 
ATOM     18  C   UNL     1       6.413   4.784  14.951  0.00  0.00    +0.000 C 
ATOM     19  C   UNL     1       6.876   3.953  16.130  0.00  0.00    +0.000 C 
ATOM     20  C   UNL     1       7.408   4.770  17.269  0.00  0.00    +0.000 C 
ATOM     21  O   UNL     1       8.052   4.247  18.176  0.00  0.00    +0.000 OA
ATOM     22  O   UNL     1       7.145   6.089  17.296  0.00  0.00    +0.000 OA
BRANCH  18  23
ATOM     23  O   UNL     1       7.508   5.293  14.196  0.00  0.00    +0.000 OA
ATOM     24  H   UNL     1       7.190   5.928  13.530  0.00  0.00    +0.000 HD
ENDBRANCH  18  23
ENDBRANCH  15  16
ENDBRANCH  14  15
ENDBRANCH  13  14
TORSDOF 4
ENDMDL
