MODEL 1
REMARK VINA RESULT:      -7.7      0.000      0.000
REMARK  Name = 
REMARK  4 active torsions:
REMARK  status: ('A' for Active; 'I' for Inactive)
REMARK    1  A    between atoms: O_1  and  C_2
REMARK    2  A    between atoms: C_2  and  C_3
REMARK    3  A    between atoms: C_2  and  C_14
REMARK    4  A    between atoms: C_6  and  C_7
REMARK                            x       y       z     vdW  Elec       q    Type
REMARK                         _______ _______ _______ _____ _____    ______ ____
ROOT
ATOM      1  C   UNL     1       5.623   4.070  18.122  0.00  0.00    +0.000 A 
ATOM      2  N   UNL     1       6.802   4.622  18.308  0.00  0.00    +0.000 NA
ATOM      3  N   UNL     1       7.381   4.799  17.070  0.00  0.00    +0.000 NA
ATOM      4  C   UNL     1       6.541   4.374  16.143  0.00  0.00    +0.000 A 
ATOM      5  N   UNL     1       5.416   3.924  16.782  0.00  0.00    +0.000 N 
ATOM      6  H   UNL     1       4.587   3.549  16.348  0.00  0.00    +0.000 HD
ENDROOT
BRANCH   4   7
ATOM      7  C   UNL     1       6.742   4.371  14.695  0.00  0.00    +0.000 A 
ATOM      8  C   UNL     1       7.672   5.243  14.125  0.00  0.00    +0.000 A 
ATOM      9  C   UNL     1       7.845   5.232  12.750  0.00  0.00    +0.000 A 
ATOM     10  N   UNL     1       7.169   4.413  11.918  0.00  0.00    +0.000 NA
ATOM     11  C   UNL     1       6.279   3.574  12.483  0.00  0.00    +0.000 A 
ATOM     12  C   UNL     1       6.033   3.515  13.846  0.00  0.00    +0.000 A 
ENDBRANCH   4   7
BRANCH   1  13
ATOM     13  C   UNL     1       4.610   3.679  19.143  0.00  0.00    +0.000 C 
BRANCH  13  14
ATOM     14  C   UNL     1       3.179   3.569  18.568  0.00  0.00    +0.000 C 
ATOM     15  C   UNL     1       2.383   2.447  19.269  0.00  0.00    +0.000 C 
ATOM     16  C   UNL     1       1.884   2.840  20.632  0.00  0.00    +0.000 C 
ATOM     17  C   UNL     1       1.754   4.118  21.021  0.00  0.00    +0.000 C 
ATOM     18  C   UNL     1       2.058   5.282  20.125  0.00  0.00    +0.000 C 
ATOM     19  C   UNL     1       2.368   4.879  18.678  0.00  0.00    +0.000 C 
ENDBRANCH  13  14
BRANCH  13  20
ATOM     20  O   UNL     1       5.032   2.421  19.678  0.00  0.00    +0.000 OA
ATOM     21  H   UNL     1       4.236   1.956  20.001  0.00  0.00    +0.000 HD
ENDBRANCH  13  20
ENDBRANCH   1  13
TORSDOF 4
ENDMDL
MODEL 2
REMARK VINA RESULT:      -7.7      0.230      1.101
REMARK  Name = 
REMARK  4 active torsions:
REMARK  status: ('A' for Active; 'I' for Inactive)
REMARK    1  A    between atoms: O_1  and  C_2
REMARK    2  A    between atoms: C_2  and  C_3
REMARK    3  A    between atoms: C_2  and  C_14
REMARK    4  A    between atoms: C_6  and  C_7
REMARK                            x       y       z     vdW  Elec       q    Type
REMARK                         _______ _______ _______ _____ _____    ______ ____
ROOT
ATOM      1  C   UNL     1       5.461   3.954  18.148  0.00  0.00    +0.000 A 
ATOM      2  N   UNL     1       6.602   4.564  18.380  0.00  0.00    +0.000 NA
ATOM      3  N   UNL     1       7.211   4.788  17.165  0.00  0.00    +0.000 NA
ATOM      4  C   UNL     1       6.426   4.332  16.205  0.00  0.00    +0.000 A 
ATOM      5  N   UNL     1       5.305   3.816  16.800  0.00  0.00    +0.000 N 
ATOM      6  H   UNL     1       4.512   3.404  16.334  0.00  0.00    +0.000 HD
ENDROOT
BRANCH   4   7
ATOM      7  C   UNL     1       6.675   4.359  14.764  0.00  0.00    +0.000 A 
ATOM      8  C   UNL     1       5.946   3.516  13.923  0.00  0.00    +0.000 A 
ATOM      9  C   UNL     1       6.198   3.548  12.560  0.00  0.00    +0.000 A 
ATOM     10  N   UNL     1       7.110   4.361  11.989  0.00  0.00    +0.000 NA
ATOM     11  C   UNL     1       7.802   5.172  12.813  0.00  0.00    +0.000 A 
ATOM     12  C   UNL     1       7.623   5.208  14.187  0.00  0.00    +0.000 A 
ENDBRANCH   4   7
BRANCH   1  13
ATOM     13  C   UNL     1       4.436   3.497  19.130  0.00  0.00    +0.000 C 
BRANCH  13  14
ATOM     14  C   UNL     1       3.032   3.322  18.506  0.00  0.00    +0.000 C 
ATOM     15  C   UNL     1       2.244   2.201  19.218  0.00  0.00    +0.000 C 
ATOM     16  C   UNL     1       1.680   2.628  20.545  0.00  0.00    +0.000 C 
ATOM     17  C   UNL     1       1.496   3.915  20.880  0.00  0.00    +0.000 C 
ATOM     18  C   UNL     1       1.800   5.054  19.954  0.00  0.00    +0.000 C 
ATOM     19  C   UNL     1       2.179   4.609  18.535  0.00  0.00    +0.000 C 
ENDBRANCH  13  14
BRANCH  13  20
ATOM     20  O   UNL     1       4.905   2.255  19.663  0.00  0.00    +0.000 OA
ATOM     21  H   UNL     1       5.727   2.022  19.189  0.00  0.00    +0.000 HD
ENDBRANCH  13  20
ENDBRANCH   1  13
TORSDOF 4
ENDMDL
MODEL 3
REMARK VINA RESULT:      -7.4      1.123      1.872
REMARK  Name = 
REMARK  4 active torsions:
REMARK  status: ('A' for Active; 'I' for Inactive)
REMARK    1  A    between atoms: O_1  and  C_2
REMARK    2  A    between atoms: C_2  and  C_3
REMARK    3  A    between atoms: C_2  and  C_14
REMARK    4  A    between atoms: C_6  and  C_7
REMARK                            x       y       z     vdW  Elec       q    Type
REMARK                         _______ _______ _______ _____ _____    ______ ____
ROOT
ATOM      1  C   UNL     1       4.993   4.389  18.112  0.00  0.00    +0.000 A 
ATOM      2  N   UNL     1       6.269   4.432  18.427  0.00  0.00    +0.000 NA
ATOM      3  N   UNL     1       6.990   4.420  17.253  0.00  0.00    +0.000 NA
ATOM      4  C   UNL     1       6.146   4.393  16.236  0.00  0.00    +0.000 A 
ATOM      5  N   UNL     1       4.878   4.390  16.754  0.00  0.00    +0.000 N 
ATOM      6  H   UNL     1       4.015   4.384  16.232  0.00  0.00    +0.000 HD
ENDROOT
BRANCH   4   7
ATOM      7  C   UNL     1       6.471   4.370  14.811  0.00  0.00    +0.000 A 
ATOM      8  C   UNL     1       5.760   3.526  13.954  0.00  0.00    +0.000 A 
ATOM      9  C   UNL     1       6.085   3.511  12.607  0.00  0.00    +0.000 A 
ATOM     10  N   UNL     1       7.051   4.279  12.063  0.00  0.00    +0.000 NA
ATOM     11  C   UNL     1       7.725   5.091  12.901  0.00  0.00    +0.000 A 
ATOM     12  C   UNL     1       7.476   5.173  14.262  0.00  0.00    +0.000 A 
ENDBRANCH   4   7
BRANCH   1  13
ATOM     13  C   UNL     1       3.813   4.381  19.023  0.00  0.00    +0.000 C 
BRANCH  13  14
ATOM     14  C   UNL     1       3.603   3.026  19.736  0.00  0.00    +0.000 C 
ATOM     15  C   UNL     1       2.778   3.200  21.029  0.00  0.00    +0.000 C 
ATOM     16  C   UNL     1       1.307   3.374  20.772  0.00  0.00    +0.000 C 
ATOM     17  C   UNL     1       0.716   2.994  19.628  0.00  0.00    +0.000 C 
ATOM     18  C   UNL     1       1.455   2.326  18.507  0.00  0.00    +0.000 C 
ATOM     19  C   UNL     1       2.905   1.967  18.855  0.00  0.00    +0.000 C 
ENDBRANCH  13  14
BRANCH  13  20
ATOM     20  O   UNL     1       4.028   5.422  19.981  0.00  0.00    +0.000 OA
ATOM     21  H   UNL     1       4.457   5.021  20.761  0.00  0.00    +0.000 HD
ENDBRANCH  13  20
ENDBRANCH   1  13
TORSDOF 4
ENDMDL
MODEL 4
REMARK VINA RESULT:      -7.4      1.173      1.616
REMARK  Name = 
REMARK  4 active torsions:
REMARK  status: ('A' for Active; 'I' for Inactive)
REMARK    1  A    between atoms: O_1  and  C_2
REMARK    2  A    between atoms: C_2  and  C_3
REMARK    3  A    between atoms: C_2  and  C_14
REMARK    4  A    between atoms: C_6  and  C_7
REMARK                            x       y       z     vdW  Elec       q    Type
REMARK                         _______ _______ _______ _____ _____    ______ ____
ROOT
ATOM      1  C   UNL     1       5.006   4.486  18.073  0.00  0.00    +0.000 A 
ATOM      2  N   UNL     1       6.283   4.481  18.385  0.00  0.00    +0.000 NA
ATOM      3  N   UNL     1       7.000   4.427  17.211  0.00  0.00    +0.000 NA
ATOM      4  C   UNL     1       6.155   4.423  16.196  0.00  0.00    +0.000 A 
ATOM      5  N   UNL     1       4.888   4.477  16.714  0.00  0.00    +0.000 N 
ATOM      6  H   UNL     1       4.025   4.500  16.193  0.00  0.00    +0.000 HD
ENDROOT
BRANCH   4   7
ATOM      7  C   UNL     1       6.477   4.372  14.770  0.00  0.00    +0.000 A 
ATOM      8  C   UNL     1       7.495   5.182  14.263  0.00  0.00    +0.000 A 
ATOM      9  C   UNL     1       7.783   5.126  12.908  0.00  0.00    +0.000 A 
ATOM     10  N   UNL     1       7.138   4.321  12.040  0.00  0.00    +0.000 NA
ATOM     11  C   UNL     1       6.161   3.542  12.544  0.00  0.00    +0.000 A 
ATOM     12  C   UNL     1       5.799   3.531  13.882  0.00  0.00    +0.000 A 
ENDBRANCH   4   7
BRANCH   1  13
ATOM     13  C   UNL     1       3.827   4.536  18.984  0.00  0.00    +0.000 C 
BRANCH  13  14
ATOM     14  C   UNL     1       3.630   3.235  19.795  0.00  0.00    +0.000 C 
ATOM     15  C   UNL     1       2.546   3.415  20.880  0.00  0.00    +0.000 C 
ATOM     16  C   UNL     1       1.148   3.370  20.330  0.00  0.00    +0.000 C 
ATOM     17  C   UNL     1       0.847   2.813  19.146  0.00  0.00    +0.000 C 
ATOM     18  C   UNL     1       1.867   2.150  18.269  0.00  0.00    +0.000 C 
ATOM     19  C   UNL     1       3.248   2.018  18.925  0.00  0.00    +0.000 C 
ENDBRANCH  13  14
BRANCH  13  20
ATOM     20  O   UNL     1       4.036   5.646  19.863  0.00  0.00    +0.000 OA
ATOM     21  H   UNL     1       4.128   5.292  20.769  0.00  0.00    +0.000 HD
ENDBRANCH  13  20
ENDBRANCH   1  13
TORSDOF 4
ENDMDL
MODEL 5
REMARK VINA RESULT:      -7.3      1.007      1.517
REMARK  Name = 
REMARK  4 active torsions:
REMARK  status: ('A' for Active; 'I' for Inactive)
REMARK    1  A    between atoms: O_1  and  C_2
REMARK    2  A    between atoms: C_2  and  C_3
REMARK    3  A    between atoms: C_2  and  C_14
REMARK    4  A    between atoms: C_6  and  C_7
REMARK                            x       y       z     vdW  Elec       q    Type
REMARK                         _______ _______ _______ _____ _____    ______ ____
ROOT
ATOM      1  C   UNL     1       4.762   4.727  17.725  0.00  0.00    +0.000 A 
ATOM      2  N   UNL     1       4.788   6.014  17.456  0.00  0.00    +0.000 NA
ATOM      3  N   UNL     1       5.301   6.166  16.187  0.00  0.00    +0.000 NA
ATOM      4  C   UNL     1       5.561   4.970  15.687  0.00  0.00    +0.000 A 
ATOM      5  N   UNL     1       5.213   4.044  16.635  0.00  0.00    +0.000 N 
ATOM      6  H   UNL     1       5.281   3.042  16.549  0.00  0.00    +0.000 HD
ENDROOT
BRANCH   4   7
ATOM      7  C   UNL     1       6.117   4.657  14.371  0.00  0.00    +0.000 A 
ATOM      8  C   UNL     1       5.464   3.738  13.547  0.00  0.00    +0.000 A 
ATOM      9  C   UNL     1       6.007   3.447  12.306  0.00  0.00    +0.000 A 
ATOM     10  N   UNL     1       7.138   4.012  11.835  0.00  0.00    +0.000 NA
ATOM     11  C   UNL     1       7.754   4.900  12.639  0.00  0.00    +0.000 A 
ATOM     12  C   UNL     1       7.290   5.252  13.897  0.00  0.00    +0.000 A 
ENDBRANCH   4   7
BRANCH   1  13
ATOM     13  C   UNL     1       4.295   4.048  18.967  0.00  0.00    +0.000 C 
BRANCH  13  14
ATOM     14  C   UNL     1       2.904   3.390  18.814  0.00  0.00    +0.000 C 
ATOM     15  C   UNL     1       2.719   2.240  19.827  0.00  0.00    +0.000 C 
ATOM     16  C   UNL     1       2.419   2.723  21.219  0.00  0.00    +0.000 C 
ATOM     17  C   UNL     1       1.937   3.948  21.479  0.00  0.00    +0.000 C 
ATOM     18  C   UNL     1       1.618   4.947  20.406  0.00  0.00    +0.000 C 
ATOM     19  C   UNL     1       1.731   4.380  18.985  0.00  0.00    +0.000 C 
ENDBRANCH  13  14
BRANCH  13  20
ATOM     20  O   UNL     1       5.281   3.063  19.290  0.00  0.00    +0.000 OA
ATOM     21  H   UNL     1       4.904   2.483  19.980  0.00  0.00    +0.000 HD
ENDBRANCH  13  20
ENDBRANCH   1  13
TORSDOF 4
ENDMDL
MODEL 6
REMARK VINA RESULT:      -7.3      4.563      7.914
REMARK  Name = 
REMARK  4 active torsions:
REMARK  status: ('A' for Active; 'I' for Inactive)
REMARK    1  A    between atoms: O_1  and  C_2
REMARK    2  A    between atoms: C_2  and  C_3
REMARK    3  A    between atoms: C_2  and  C_14
REMARK    4  A    between atoms: C_6  and  C_7
REMARK                            x       y       z     vdW  Elec       q    Type
REMARK                         _______ _______ _______ _____ _____    ______ ____
ROOT
ATOM      1  C   UNL     1       2.596   6.675  19.341  0.00  0.00    +0.000 A 
ATOM      2  N   UNL     1       2.496   7.579  18.391  0.00  0.00    +0.000 NA
ATOM      3  N   UNL     1       1.833   8.666  18.917  0.00  0.00    +0.000 NA
ATOM      4  C   UNL     1       1.557   8.423  20.186  0.00  0.00    +0.000 A 
ATOM      5  N   UNL     1       2.043   7.178  20.482  0.00  0.00    +0.000 N 
ATOM      6  H   UNL     1       2.000   6.711  21.375  0.00  0.00    +0.000 HD
ENDROOT
BRANCH   4   7
ATOM      7  C   UNL     1       0.861   9.299  21.128  0.00  0.00    +0.000 A 
ATOM      8  C   UNL     1       0.606  10.626  20.778  0.00  0.00    +0.000 A 
ATOM      9  C   UNL     1      -0.048  11.445  21.685  0.00  0.00    +0.000 A 
ATOM     10  N   UNL     1      -0.466  11.030  22.898  0.00  0.00    +0.000 NA
ATOM     11  C   UNL     1      -0.217   9.746  23.221  0.00  0.00    +0.000 A 
ATOM     12  C   UNL     1       0.433   8.854  22.383  0.00  0.00    +0.000 A 
ENDBRANCH   4   7
BRANCH   1  13
ATOM     13  C   UNL     1       3.227   5.326  19.276  0.00  0.00    +0.000 C 
BRANCH  13  14
ATOM     14  C   UNL     1       3.003   4.615  17.922  0.00  0.00    +0.000 C 
ATOM     15  C   UNL     1       3.946   3.402  17.768  0.00  0.00    +0.000 C 
ATOM     16  C   UNL     1       3.496   2.202  18.556  0.00  0.00    +0.000 C 
ATOM     17  C   UNL     1       2.234   2.039  18.981  0.00  0.00    +0.000 C 
ATOM     18  C   UNL     1       1.137   3.018  18.685  0.00  0.00    +0.000 C 
ATOM     19  C   UNL     1       1.551   4.130  17.712  0.00  0.00    +0.000 C 
ENDBRANCH  13  14
BRANCH  13  20
ATOM     20  O   UNL     1       4.625   5.516  19.515  0.00  0.00    +0.000 OA
ATOM     21  H   UNL     1       5.112   5.023  18.827  0.00  0.00    +0.000 HD
ENDBRANCH  13  20
ENDBRANCH   1  13
TORSDOF 4
ENDMDL
MODEL 7
REMARK VINA RESULT:      -7.3      4.613      8.007
REMARK  Name = 
REMARK  4 active torsions:
REMARK  status: ('A' for Active; 'I' for Inactive)
REMARK    1  A    between atoms: O_1  and  C_2
REMARK    2  A    between atoms: C_2  and  C_3
REMARK    3  A    between atoms: C_2  and  C_14
REMARK    4  A    between atoms: C_6  and  C_7
REMARK                            x       y       z     vdW  Elec       q    Type
REMARK                         _______ _______ _______ _____ _____    ______ ____
ROOT
ATOM      1  C   UNL     1       2.506   6.722  19.347  0.00  0.00    +0.000 A 
ATOM      2  N   UNL     1       2.411   7.618  18.390  0.00  0.00    +0.000 NA
ATOM      3  N   UNL     1       1.763   8.717  18.908  0.00  0.00    +0.000 NA
ATOM      4  C   UNL     1       1.490   8.488  20.181  0.00  0.00    +0.000 A 
ATOM      5  N   UNL     1       1.964   7.240  20.486  0.00  0.00    +0.000 N 
ATOM      6  H   UNL     1       1.920   6.783  21.383  0.00  0.00    +0.000 HD
ENDROOT
BRANCH   4   7
ATOM      7  C   UNL     1       0.808   9.380  21.119  0.00  0.00    +0.000 A 
ATOM      8  C   UNL     1       0.383   8.887  22.355  0.00  0.00    +0.000 A 
ATOM      9  C   UNL     1      -0.267   9.744  23.229  0.00  0.00    +0.000 A 
ATOM     10  N   UNL     1      -0.509  11.043  22.961  0.00  0.00    +0.000 NA
ATOM     11  C   UNL     1      -0.089  11.505  21.767  0.00  0.00    +0.000 A 
ATOM     12  C   UNL     1       0.565  10.725  20.826  0.00  0.00    +0.000 A 
ENDBRANCH   4   7
BRANCH   1  13
ATOM     13  C   UNL     1       3.122   5.365  19.291  0.00  0.00    +0.000 C 
BRANCH  13  14
ATOM     14  C   UNL     1       2.930   4.666  17.926  0.00  0.00    +0.000 C 
ATOM     15  C   UNL     1       3.913   3.487  17.763  0.00  0.00    +0.000 C 
ATOM     16  C   UNL     1       3.498   2.262  18.530  0.00  0.00    +0.000 C 
ATOM     17  C   UNL     1       2.239   2.052  18.944  0.00  0.00    +0.000 C 
ATOM     18  C   UNL     1       1.112   2.998  18.653  0.00  0.00    +0.000 C 
ATOM     19  C   UNL     1       1.497   4.137  17.699  0.00  0.00    +0.000 C 
ENDBRANCH  13  14
BRANCH  13  20
ATOM     20  O   UNL     1       4.514   5.536  19.575  0.00  0.00    +0.000 OA
ATOM     21  H   UNL     1       4.687   5.141  20.451  0.00  0.00    +0.000 HD
ENDBRANCH  13  20
ENDBRANCH   1  13
TORSDOF 4
ENDMDL
MODEL 8
REMARK VINA RESULT:      -7.0      1.404      1.619
REMARK  Name = 
REMARK  4 active torsions:
REMARK  status: ('A' for Active; 'I' for Inactive)
REMARK    1  A    between atoms: O_1  and  C_2
REMARK    2  A    between atoms: C_2  and  C_3
REMARK    3  A    between atoms: C_2  and  C_14
REMARK    4  A    between atoms: C_6  and  C_7
REMARK                            x       y       z     vdW  Elec       q    Type
REMARK                         _______ _______ _______ _____ _____    ______ ____
ROOT
ATOM      1  C   UNL     1       4.508   5.191  17.628  0.00  0.00    +0.000 A 
ATOM      2  N   UNL     1       5.277   6.257  17.605  0.00  0.00    +0.000 NA
ATOM      3  N   UNL     1       5.990   6.232  16.427  0.00  0.00    +0.000 NA
ATOM      4  C   UNL     1       5.633   5.165  15.735  0.00  0.00    +0.000 A 
ATOM      5  N   UNL     1       4.685   4.500  16.466  0.00  0.00    +0.000 N 
ATOM      6  H   UNL     1       4.206   3.652  16.202  0.00  0.00    +0.000 HD
ENDROOT
BRANCH   4   7
ATOM      7  C   UNL     1       6.135   4.741  14.429  0.00  0.00    +0.000 A 
ATOM      8  C   UNL     1       7.316   5.297  13.930  0.00  0.00    +0.000 A 
ATOM      9  C   UNL     1       7.775   4.890  12.687  0.00  0.00    +0.000 A 
ATOM     10  N   UNL     1       7.149   3.971  11.924  0.00  0.00    +0.000 NA
ATOM     11  C   UNL     1       6.014   3.441  12.420  0.00  0.00    +0.000 A 
ATOM     12  C   UNL     1       5.475   3.787  13.649  0.00  0.00    +0.000 A 
ENDBRANCH   4   7
BRANCH   1  13
ATOM     13  C   UNL     1       3.548   4.762  18.685  0.00  0.00    +0.000 C 
BRANCH  13  14
ATOM     14  C   UNL     1       3.509   3.229  18.884  0.00  0.00    +0.000 C 
ATOM     15  C   UNL     1       3.375   2.867  20.380  0.00  0.00    +0.000 C 
ATOM     16  C   UNL     1       1.977   3.044  20.906  0.00  0.00    +0.000 C 
ATOM     17  C   UNL     1       0.897   3.083  20.111  0.00  0.00    +0.000 C 
ATOM     18  C   UNL     1       0.969   2.919  18.622  0.00  0.00    +0.000 C 
ATOM     19  C   UNL     1       2.365   2.535  18.113  0.00  0.00    +0.000 C 
ENDBRANCH  13  14
BRANCH  13  20
ATOM     20  O   UNL     1       3.951   5.414  19.893  0.00  0.00    +0.000 OA
ATOM     21  H   UNL     1       3.259   5.248  20.563  0.00  0.00    +0.000 HD
ENDBRANCH  13  20
ENDBRANCH   1  13
TORSDOF 4
ENDMDL
MODEL 9
REMARK VINA RESULT:      -6.9      1.157      1.378
REMARK  Name = 
REMARK  4 active torsions:
REMARK  status: ('A' for Active; 'I' for Inactive)
REMARK    1  A    between atoms: O_1  and  C_2
REMARK    2  A    between atoms: C_2  and  C_3
REMARK    3  A    between atoms: C_2  and  C_14
REMARK    4  A    between atoms: C_6  and  C_7
REMARK                            x       y       z     vdW  Elec       q    Type
REMARK                         _______ _______ _______ _____ _____    ______ ____
ROOT
ATOM      1  C   UNL     1       4.445   4.646  17.601  0.00  0.00    +0.000 A 
ATOM      2  N   UNL     1       4.860   5.892  17.534  0.00  0.00    +0.000 NA
ATOM      3  N   UNL     1       5.532   6.046  16.341  0.00  0.00    +0.000 NA
ATOM      4  C   UNL     1       5.500   4.899  15.685  0.00  0.00    +0.000 A 
ATOM      5  N   UNL     1       4.805   4.004  16.453  0.00  0.00    +0.000 N 
ATOM      6  H   UNL     1       4.598   3.045  16.220  0.00  0.00    +0.000 HD
ENDROOT
BRANCH   4   7
ATOM      7  C   UNL     1       6.088   4.606  14.378  0.00  0.00    +0.000 A 
ATOM      8  C   UNL     1       7.260   5.258  13.986  0.00  0.00    +0.000 A 
ATOM      9  C   UNL     1       7.800   4.973  12.742  0.00  0.00    +0.000 A 
ATOM     10  N   UNL     1       7.263   4.087  11.879  0.00  0.00    +0.000 NA
ATOM     11  C   UNL     1       6.135   3.463  12.273  0.00  0.00    +0.000 A 
ATOM     12  C   UNL     1       5.519   3.683  13.495  0.00  0.00    +0.000 A 
ENDBRANCH   4   7
BRANCH   1  13
ATOM     13  C   UNL     1       3.673   3.983  18.689  0.00  0.00    +0.000 C 
BRANCH  13  14
ATOM     14  C   UNL     1       2.258   4.577  18.880  0.00  0.00    +0.000 C 
ATOM     15  C   UNL     1       1.169   3.510  18.631  0.00  0.00    +0.000 C 
ATOM     16  C   UNL     1       1.004   2.556  19.782  0.00  0.00    +0.000 C 
ATOM     17  C   UNL     1       1.415   2.838  21.028  0.00  0.00    +0.000 C 
ATOM     18  C   UNL     1       2.048   4.144  21.406  0.00  0.00    +0.000 C 
ATOM     19  C   UNL     1       2.028   5.186  20.280  0.00  0.00    +0.000 C 
ENDBRANCH  13  14
BRANCH  13  20
ATOM     20  O   UNL     1       3.591   2.596  18.346  0.00  0.00    +0.000 OA
ATOM     21  H   UNL     1       3.823   2.512  17.401  0.00  0.00    +0.000 HD
ENDBRANCH  13  20
ENDBRANCH   1  13
TORSDOF 4
ENDMDL
