MODEL 1
REMARK VINA RESULT:      -7.9      0.000      0.000
REMARK  Name = 
REMARK  8 active torsions:
REMARK  status: ('A' for Active; 'I' for Inactive)
REMARK    1  A    between atoms: C_1  and  O_2
REMARK    2  A    between atoms: O_2  and  C_3
REMARK    3  A    between atoms: C_6  and  C_7
REMARK    4  A    between atoms: C_10  and  S_11
REMARK    5  A    between atoms: S_11  and  N_14
REMARK    6  A    between atoms: N_14  and  C_15
REMARK    7  A    between atoms: N_14  and  C_23
REMARK    8  A    between atoms: C_15  and  C_16
REMARK                            x       y       z     vdW  Elec       q    Type
REMARK                         _______ _______ _______ _____ _____    ______ ____
ROOT
ATOM      1  N   UNL     1       5.238   4.377  17.093  0.00  0.00    +0.000 NA
ENDROOT
BRANCH   1   2
ATOM      2  C   UNL     1       5.942   5.472  17.914  0.00  0.00    +0.000 C 
ATOM      3  C   UNL     1       6.267   6.709  17.049  0.00  0.00    +0.000 C 
ATOM      4  C   UNL     1       7.140   7.730  17.766  0.00  0.00    +0.000 C 
ATOM      5  O   UNL     1       8.289   7.114  18.340  0.00  0.00    +0.000 OA
ATOM      6  C   UNL     1       7.944   6.130  19.309  0.00  0.00    +0.000 C 
ATOM      7  C   UNL     1       7.195   4.983  18.650  0.00  0.00    +0.000 C 
ENDBRANCH   1   2
BRANCH   1   8
ATOM      8  S   UNL     1       3.803   3.729  17.918  0.00  0.00    +0.000 S 
ATOM      9  O   UNL     1       4.272   2.680  18.797  0.00  0.00    +0.000 OA
ATOM     10  O   UNL     1       2.760   3.470  16.951  0.00  0.00    +0.000 OA
BRANCH   8  16
ATOM     11  C   UNL     1       2.650   4.898  20.155  0.00  0.00    +0.000 A 
ATOM     12  C   UNL     1       1.970   5.961  20.750  0.00  0.00    +0.000 A 
ATOM     13  C   UNL     1       1.817   7.182  20.064  0.00  0.00    +0.000 A 
ATOM     14  C   UNL     1       2.368   7.364  18.787  0.00  0.00    +0.000 A 
ATOM     15  C   UNL     1       3.050   6.317  18.191  0.00  0.00    +0.000 A 
ATOM     16  C   UNL     1       3.172   5.089  18.869  0.00  0.00    +0.000 A 
BRANCH  11  18
ATOM     17  C   UNL     1       1.811   3.048  21.497  0.00  0.00    +0.000 C 
ATOM     18  O   UNL     1       2.806   3.669  20.705  0.00  0.00    +0.000 OA
ENDBRANCH  11  18
BRANCH  14  19
ATOM     19  C   UNL     1       2.196   8.609  18.085  0.00  0.00    +0.000 C 
ATOM     20  N   UNL     1       2.056   9.605  17.515  0.00  0.00    +0.000 NA
ENDBRANCH  14  19
ENDBRANCH   8  16
ENDBRANCH   1   8
BRANCH   1  21
ATOM     21  C   UNL     1       4.851   4.771  15.682  0.00  0.00    +0.000 C 
BRANCH  21  22
ATOM     22  C   UNL     1       5.601   4.334  14.426  0.00  0.00    +0.000 A 
ATOM     23  C   UNL     1       5.056   3.567  13.389  0.00  0.00    +0.000 A 
ATOM     24  C   UNL     1       5.789   3.351  12.205  0.00  0.00    +0.000 A 
ATOM     25  C   UNL     1       7.047   3.926  12.035  0.00  0.00    +0.000 A 
ATOM     26  F   UNL     1       7.724   3.733  10.894  0.00  0.00    +0.000 F 
ATOM     27  C   UNL     1       7.591   4.718  13.028  0.00  0.00    +0.000 A 
ATOM     28  C   UNL     1       6.872   4.923  14.209  0.00  0.00    +0.000 A 
ENDBRANCH  21  22
ENDBRANCH   1  21
TORSDOF 7
ENDMDL
MODEL 2
REMARK VINA RESULT:      -7.3      3.191      5.187
REMARK  Name = 
REMARK  8 active torsions:
REMARK  status: ('A' for Active; 'I' for Inactive)
REMARK    1  A    between atoms: C_1  and  O_2
REMARK    2  A    between atoms: O_2  and  C_3
REMARK    3  A    between atoms: C_6  and  C_7
REMARK    4  A    between atoms: C_10  and  S_11
REMARK    5  A    between atoms: S_11  and  N_14
REMARK    6  A    between atoms: N_14  and  C_15
REMARK    7  A    between atoms: N_14  and  C_23
REMARK    8  A    between atoms: C_15  and  C_16
REMARK                            x       y       z     vdW  Elec       q    Type
REMARK                         _______ _______ _______ _____ _____    ______ ____
ROOT
ATOM      1  N   UNL     1       5.491   4.585  15.912  0.00  0.00    +0.000 NA
ENDROOT
BRANCH   1   2
ATOM      2  C   UNL     1       6.309   4.109  14.698  0.00  0.00    +0.000 C 
ATOM      3  C   UNL     1       7.313   5.187  14.233  0.00  0.00    +0.000 C 
ATOM      4  C   UNL     1       7.997   4.841  12.917  0.00  0.00    +0.000 C 
ATOM      5  O   UNL     1       7.046   4.475  11.922  0.00  0.00    +0.000 OA
ATOM      6  C   UNL     1       6.292   3.327  12.295  0.00  0.00    +0.000 C 
ATOM      7  C   UNL     1       5.449   3.628  13.524  0.00  0.00    +0.000 C 
ENDBRANCH   1   2
BRANCH   1   8
ATOM      8  S   UNL     1       5.632   6.337  16.180  0.00  0.00    +0.000 S 
ATOM      9  O   UNL     1       5.105   6.977  14.995  0.00  0.00    +0.000 OA
ATOM     10  O   UNL     1       6.960   6.651  16.659  0.00  0.00    +0.000 OA
BRANCH   8  16
ATOM     11  C   UNL     1       4.678   5.913  18.750  0.00  0.00    +0.000 A 
ATOM     12  C   UNL     1       3.682   6.078  19.713  0.00  0.00    +0.000 A 
ATOM     13  C   UNL     1       2.622   6.979  19.494  0.00  0.00    +0.000 A 
ATOM     14  C   UNL     1       2.560   7.748  18.323  0.00  0.00    +0.000 A 
ATOM     15  C   UNL     1       3.547   7.596  17.364  0.00  0.00    +0.000 A 
ATOM     16  C   UNL     1       4.587   6.670  17.575  0.00  0.00    +0.000 A 
BRANCH  11  18
ATOM     17  C   UNL     1       6.905   5.323  19.537  0.00  0.00    +0.000 C 
ATOM     18  O   UNL     1       5.708   5.037  18.838  0.00  0.00    +0.000 OA
ENDBRANCH  11  18
BRANCH  14  19
ATOM     19  C   UNL     1       1.466   8.657  18.098  0.00  0.00    +0.000 C 
ATOM     20  N   UNL     1       0.592   9.389  17.912  0.00  0.00    +0.000 NA
ENDBRANCH  14  19
ENDBRANCH   8  16
ENDBRANCH   1   8
BRANCH   1  21
ATOM     21  C   UNL     1       4.021   4.214  15.890  0.00  0.00    +0.000 C 
BRANCH  21  22
ATOM     22  C   UNL     1       3.309   3.443  16.998  0.00  0.00    +0.000 A 
ATOM     23  C   UNL     1       3.892   2.444  17.788  0.00  0.00    +0.000 A 
ATOM     24  C   UNL     1       3.191   1.906  18.885  0.00  0.00    +0.000 A 
ATOM     25  C   UNL     1       1.926   2.384  19.221  0.00  0.00    +0.000 A 
ATOM     26  F   UNL     1       1.279   1.881  20.282  0.00  0.00    +0.000 F 
ATOM     27  C   UNL     1       1.344   3.396  18.482  0.00  0.00    +0.000 A 
ATOM     28  C   UNL     1       2.032   3.923  17.384  0.00  0.00    +0.000 A 
ENDBRANCH  21  22
ENDBRANCH   1  21
TORSDOF 7
ENDMDL
MODEL 3
REMARK VINA RESULT:      -7.3      3.091      7.029
REMARK  Name = 
REMARK  8 active torsions:
REMARK  status: ('A' for Active; 'I' for Inactive)
REMARK    1  A    between atoms: C_1  and  O_2
REMARK    2  A    between atoms: O_2  and  C_3
REMARK    3  A    between atoms: C_6  and  C_7
REMARK    4  A    between atoms: C_10  and  S_11
REMARK    5  A    between atoms: S_11  and  N_14
REMARK    6  A    between atoms: N_14  and  C_15
REMARK    7  A    between atoms: N_14  and  C_23
REMARK    8  A    between atoms: C_15  and  C_16
REMARK                            x       y       z     vdW  Elec       q    Type
REMARK                         _______ _______ _______ _____ _____    ______ ____
ROOT
ATOM      1  N   UNL     1       3.439   4.825  18.619  0.00  0.00    +0.000 NA
ENDROOT
BRANCH   1   2
ATOM      2  C   UNL     1       2.456   4.473  19.750  0.00  0.00    +0.000 C 
ATOM      3  C   UNL     1       3.170   3.766  20.923  0.00  0.00    +0.000 C 
ATOM      4  C   UNL     1       2.207   3.220  21.969  0.00  0.00    +0.000 C 
ATOM      5  O   UNL     1       1.181   2.437  21.367  0.00  0.00    +0.000 OA
ATOM      6  C   UNL     1       0.394   3.194  20.454  0.00  0.00    +0.000 C 
ATOM      7  C   UNL     1       1.246   3.657  19.283  0.00  0.00    +0.000 C 
ENDBRANCH   1   2
BRANCH   1   8
ATOM      8  S   UNL     1       3.699   3.468  17.501  0.00  0.00    +0.000 S 
ATOM      9  O   UNL     1       2.617   3.513  16.542  0.00  0.00    +0.000 OA
ATOM     10  O   UNL     1       3.970   2.262  18.252  0.00  0.00    +0.000 OA
BRANCH   8  16
ATOM     11  C   UNL     1       6.292   4.450  17.389  0.00  0.00    +0.000 A 
ATOM     12  C   UNL     1       7.382   4.904  16.646  0.00  0.00    +0.000 A 
ATOM     13  C   UNL     1       7.412   4.736  15.249  0.00  0.00    +0.000 A 
ATOM     14  C   UNL     1       6.365   4.086  14.579  0.00  0.00    +0.000 A 
ATOM     15  C   UNL     1       5.281   3.627  15.308  0.00  0.00    +0.000 A 
ATOM     16  C   UNL     1       5.243   3.826  16.701  0.00  0.00    +0.000 A 
BRANCH  11  18
ATOM     17  C   UNL     1       6.899   5.534  19.482  0.00  0.00    +0.000 C 
ATOM     18  O   UNL     1       6.140   4.610  18.726  0.00  0.00    +0.000 OA
ENDBRANCH  11  18
BRANCH  14  19
ATOM     19  C   UNL     1       6.394   3.930  13.148  0.00  0.00    +0.000 C 
ATOM     20  N   UNL     1       6.413   3.799  12.000  0.00  0.00    +0.000 NA
ENDBRANCH  14  19
ENDBRANCH   8  16
ENDBRANCH   1   8
BRANCH   1  21
ATOM     21  C   UNL     1       3.086   6.059  17.812  0.00  0.00    +0.000 C 
BRANCH  21  22
ATOM     22  C   UNL     1       2.482   7.331  18.401  0.00  0.00    +0.000 A 
ATOM     23  C   UNL     1       2.019   8.422  17.655  0.00  0.00    +0.000 A 
ATOM     24  C   UNL     1       1.339   9.481  18.290  0.00  0.00    +0.000 A 
ATOM     25  C   UNL     1       1.087   9.439  19.660  0.00  0.00    +0.000 A 
ATOM     26  F   UNL     1       0.418  10.441  20.249  0.00  0.00    +0.000 F 
ATOM     27  C   UNL     1       1.500   8.356  20.413  0.00  0.00    +0.000 A 
ATOM     28  C   UNL     1       2.187   7.312  19.787  0.00  0.00    +0.000 A 
ENDBRANCH  21  22
ENDBRANCH   1  21
TORSDOF 7
ENDMDL
MODEL 4
REMARK VINA RESULT:      -7.2      6.592      9.505
REMARK  Name = 
REMARK  8 active torsions:
REMARK  status: ('A' for Active; 'I' for Inactive)
REMARK    1  A    between atoms: C_1  and  O_2
REMARK    2  A    between atoms: O_2  and  C_3
REMARK    3  A    between atoms: C_6  and  C_7
REMARK    4  A    between atoms: C_10  and  S_11
REMARK    5  A    between atoms: S_11  and  N_14
REMARK    6  A    between atoms: N_14  and  C_15
REMARK    7  A    between atoms: N_14  and  C_23
REMARK    8  A    between atoms: C_15  and  C_16
REMARK                            x       y       z     vdW  Elec       q    Type
REMARK                         _______ _______ _______ _____ _____    ______ ____
ROOT
ATOM      1  N   UNL     1       0.166   9.437  20.330  0.00  0.00    +0.000 NA
ENDROOT
BRANCH   1   2
ATOM      2  C   UNL     1       1.451   8.780  19.794  0.00  0.00    +0.000 C 
ATOM      3  C   UNL     1       1.587   8.964  18.266  0.00  0.00    +0.000 C 
ATOM      4  C   UNL     1       2.732   8.160  17.666  0.00  0.00    +0.000 C 
ATOM      5  O   UNL     1       2.678   6.798  18.077  0.00  0.00    +0.000 OA
ATOM      6  C   UNL     1       2.788   6.658  19.489  0.00  0.00    +0.000 C 
ATOM      7  C   UNL     1       1.594   7.303  20.176  0.00  0.00    +0.000 C 
ENDBRANCH   1   2
BRANCH   1   8
ATOM      8  S   UNL     1       0.269   9.807  22.066  0.00  0.00    +0.000 S 
ATOM      9  O   UNL     1       1.674   9.963  22.370  0.00  0.00    +0.000 OA
ATOM     10  O   UNL     1      -0.548   8.876  22.812  0.00  0.00    +0.000 OA
BRANCH   8  16
ATOM     11  C   UNL     1       0.068  12.573  21.987  0.00  0.00    +0.000 A 
ATOM     12  C   UNL     1      -0.575  13.751  22.369  0.00  0.00    +0.000 A 
ATOM     13  C   UNL     1      -1.832  13.703  23.003  0.00  0.00    +0.000 A 
ATOM     14  C   UNL     1      -2.474  12.477  23.237  0.00  0.00    +0.000 A 
ATOM     15  C   UNL     1      -1.846  11.304  22.856  0.00  0.00    +0.000 A 
ATOM     16  C   UNL     1      -0.576  11.358  22.252  0.00  0.00    +0.000 A 
BRANCH  11  18
ATOM     17  C   UNL     1       1.821  13.528  20.593  0.00  0.00    +0.000 C 
ATOM     18  O   UNL     1       1.298  12.507  21.422  0.00  0.00    +0.000 OA
ENDBRANCH  11  18
BRANCH  14  19
ATOM     19  C   UNL     1      -3.752  12.434  23.898  0.00  0.00    +0.000 C 
ATOM     20  N   UNL     1      -4.776  12.405  24.432  0.00  0.00    +0.000 NA
ENDBRANCH  14  19
ENDBRANCH   8  16
ENDBRANCH   1   8
BRANCH   1  21
ATOM     21  C   UNL     1      -0.282  10.684  19.593  0.00  0.00    +0.000 C 
BRANCH  21  22
ATOM     22  C   UNL     1      -1.567  10.789  18.777  0.00  0.00    +0.000 A 
ATOM     23  C   UNL     1      -1.971   9.882  17.789  0.00  0.00    +0.000 A 
ATOM     24  C   UNL     1      -3.249   9.989  17.205  0.00  0.00    +0.000 A 
ATOM     25  C   UNL     1      -4.141  10.972  17.627  0.00  0.00    +0.000 A 
ATOM     26  F   UNL     1      -5.363  11.048  17.082  0.00  0.00    +0.000 F 
ATOM     27  C   UNL     1      -3.782  11.856  18.628  0.00  0.00    +0.000 A 
ATOM     28  C   UNL     1      -2.509  11.761  19.199  0.00  0.00    +0.000 A 
ENDBRANCH  21  22
ENDBRANCH   1  21
TORSDOF 7
ENDMDL
MODEL 5
REMARK VINA RESULT:      -7.0      3.990      7.029
REMARK  Name = 
REMARK  8 active torsions:
REMARK  status: ('A' for Active; 'I' for Inactive)
REMARK    1  A    between atoms: C_1  and  O_2
REMARK    2  A    between atoms: O_2  and  C_3
REMARK    3  A    between atoms: C_6  and  C_7
REMARK    4  A    between atoms: C_10  and  S_11
REMARK    5  A    between atoms: S_11  and  N_14
REMARK    6  A    between atoms: N_14  and  C_15
REMARK    7  A    between atoms: N_14  and  C_23
REMARK    8  A    between atoms: C_15  and  C_16
REMARK                            x       y       z     vdW  Elec       q    Type
REMARK                         _______ _______ _______ _____ _____    ______ ____
ROOT
ATOM      1  N   UNL     1       3.442   6.393  18.173  0.00  0.00    +0.000 NA
ENDROOT
BRANCH   1   2
ATOM      2  C   UNL     1       2.906   5.076  18.764  0.00  0.00    +0.000 C 
ATOM      3  C   UNL     1       1.732   4.517  17.932  0.00  0.00    +0.000 C 
ATOM      4  C   UNL     1       1.043   3.330  18.592  0.00  0.00    +0.000 C 
ATOM      5  O   UNL     1       0.701   3.617  19.944  0.00  0.00    +0.000 OA
ATOM      6  C   UNL     1       1.848   3.906  20.737  0.00  0.00    +0.000 C 
ATOM      7  C   UNL     1       2.522   5.176  20.244  0.00  0.00    +0.000 C 
ENDBRANCH   1   2
BRANCH   1   8
ATOM      8  S   UNL     1       4.595   6.120  16.848  0.00  0.00    +0.000 S 
ATOM      9  O   UNL     1       4.353   7.159  15.872  0.00  0.00    +0.000 OA
ATOM     10  O   UNL     1       4.574   4.727  16.462  0.00  0.00    +0.000 OA
BRANCH   8  16
ATOM     11  C   UNL     1       6.762   5.338  18.396  0.00  0.00    +0.000 A 
ATOM     12  C   UNL     1       7.908   5.661  19.121  0.00  0.00    +0.000 A 
ATOM     13  C   UNL     1       8.466   6.951  19.036  0.00  0.00    +0.000 A 
ATOM     14  C   UNL     1       7.901   7.926  18.201  0.00  0.00    +0.000 A 
ATOM     15  C   UNL     1       6.766   7.614  17.472  0.00  0.00    +0.000 A 
ATOM     16  C   UNL     1       6.196   6.332  17.587  0.00  0.00    +0.000 A 
BRANCH  11  18
ATOM     17  C   UNL     1       5.589   3.610  19.646  0.00  0.00    +0.000 C 
ATOM     18  O   UNL     1       6.116   4.148  18.448  0.00  0.00    +0.000 OA
ENDBRANCH  11  18
BRANCH  14  19
ATOM     19  C   UNL     1       8.468   9.248  18.129  0.00  0.00    +0.000 C 
ATOM     20  N   UNL     1       8.930  10.305  18.074  0.00  0.00    +0.000 NA
ENDBRANCH  14  19
ENDBRANCH   8  16
ENDBRANCH   1   8
BRANCH   1  21
ATOM     21  C   UNL     1       2.383   7.370  17.701  0.00  0.00    +0.000 C 
BRANCH  21  22
ATOM     22  C   UNL     1       1.964   8.623  18.465  0.00  0.00    +0.000 A 
ATOM     23  C   UNL     1       1.894   9.912  17.922  0.00  0.00    +0.000 A 
ATOM     24  C   UNL     1       1.347  10.972  18.673  0.00  0.00    +0.000 A 
ATOM     25  C   UNL     1       0.837  10.746  19.949  0.00  0.00    +0.000 A 
ATOM     26  F   UNL     1       0.296  11.757  20.644  0.00  0.00    +0.000 F 
ATOM     27  C   UNL     1       0.859   9.475  20.495  0.00  0.00    +0.000 A 
ATOM     28  C   UNL     1       1.414   8.425  19.756  0.00  0.00    +0.000 A 
ENDBRANCH  21  22
ENDBRANCH   1  21
TORSDOF 7
ENDMDL
MODEL 6
REMARK VINA RESULT:      -6.9      6.348      9.723
REMARK  Name = 
REMARK  8 active torsions:
REMARK  status: ('A' for Active; 'I' for Inactive)
REMARK    1  A    between atoms: C_1  and  O_2
REMARK    2  A    between atoms: O_2  and  C_3
REMARK    3  A    between atoms: C_6  and  C_7
REMARK    4  A    between atoms: C_10  and  S_11
REMARK    5  A    between atoms: S_11  and  N_14
REMARK    6  A    between atoms: N_14  and  C_15
REMARK    7  A    between atoms: N_14  and  C_23
REMARK    8  A    between atoms: C_15  and  C_16
REMARK                            x       y       z     vdW  Elec       q    Type
REMARK                         _______ _______ _______ _____ _____    ______ ____
ROOT
ATOM      1  N   UNL     1      -0.605  11.436  19.896  0.00  0.00    +0.000 NA
ENDROOT
BRANCH   1   2
ATOM      2  C   UNL     1      -0.881  12.816  20.518  0.00  0.00    +0.000 C 
ATOM      3  C   UNL     1      -2.202  12.824  21.319  0.00  0.00    +0.000 C 
ATOM      4  C   UNL     1      -2.615  14.216  21.779  0.00  0.00    +0.000 C 
ATOM      5  O   UNL     1      -2.594  15.144  20.699  0.00  0.00    +0.000 OA
ATOM      6  C   UNL     1      -1.296  15.279  20.132  0.00  0.00    +0.000 C 
ATOM      7  C   UNL     1      -0.857  13.966  19.504  0.00  0.00    +0.000 C 
ENDBRANCH   1   2
BRANCH   1   8
ATOM      8  S   UNL     1       0.351  10.389  20.970  0.00  0.00    +0.000 S 
ATOM      9  O   UNL     1      -0.596   9.573  21.698  0.00  0.00    +0.000 OA
ATOM     10  O   UNL     1       1.335  11.181  21.672  0.00  0.00    +0.000 OA
BRANCH   8  16
ATOM     11  C   UNL     1       1.673   9.824  18.597  0.00  0.00    +0.000 A 
ATOM     12  C   UNL     1       2.234   8.900  17.715  0.00  0.00    +0.000 A 
ATOM     13  C   UNL     1       2.428   7.563  18.113  0.00  0.00    +0.000 A 
ATOM     14  C   UNL     1       2.091   7.141  19.407  0.00  0.00    +0.000 A 
ATOM     15  C   UNL     1       1.540   8.052  20.292  0.00  0.00    +0.000 A 
ATOM     16  C   UNL     1       1.319   9.379  19.877  0.00  0.00    +0.000 A 
BRANCH  11  18
ATOM     17  C   UNL     1       2.386  12.125  18.248  0.00  0.00    +0.000 C 
ATOM     18  O   UNL     1       1.395  11.116  18.297  0.00  0.00    +0.000 OA
ENDBRANCH  11  18
BRANCH  14  19
ATOM     19  C   UNL     1       2.279   5.769  19.803  0.00  0.00    +0.000 C 
ATOM     20  N   UNL     1       2.422   4.667  20.121  0.00  0.00    +0.000 NA
ENDBRANCH  14  19
ENDBRANCH   8  16
ENDBRANCH   1   8
BRANCH   1  21
ATOM     21  C   UNL     1      -1.833  10.672  19.440  0.00  0.00    +0.000 C 
BRANCH  21  22
ATOM     22  C   UNL     1      -2.338  10.631  18.001  0.00  0.00    +0.000 A 
ATOM     23  C   UNL     1      -1.806   9.831  16.982  0.00  0.00    +0.000 A 
ATOM     24  C   UNL     1      -2.446   9.755  15.729  0.00  0.00    +0.000 A 
ATOM     25  C   UNL     1      -3.634  10.445  15.498  0.00  0.00    +0.000 A 
ATOM     26  F   UNL     1      -4.247  10.346  14.310  0.00  0.00    +0.000 F 
ATOM     27  C   UNL     1      -4.202  11.212  16.499  0.00  0.00    +0.000 A 
ATOM     28  C   UNL     1      -3.561  11.299  17.738  0.00  0.00    +0.000 A 
ENDBRANCH  21  22
ENDBRANCH   1  21
TORSDOF 7
ENDMDL
MODEL 7
REMARK VINA RESULT:      -6.9      7.131      9.903
REMARK  Name = 
REMARK  8 active torsions:
REMARK  status: ('A' for Active; 'I' for Inactive)
REMARK    1  A    between atoms: C_1  and  O_2
REMARK    2  A    between atoms: O_2  and  C_3
REMARK    3  A    between atoms: C_6  and  C_7
REMARK    4  A    between atoms: C_10  and  S_11
REMARK    5  A    between atoms: S_11  and  N_14
REMARK    6  A    between atoms: N_14  and  C_15
REMARK    7  A    between atoms: N_14  and  C_23
REMARK    8  A    between atoms: C_15  and  C_16
REMARK                            x       y       z     vdW  Elec       q    Type
REMARK                         _______ _______ _______ _____ _____    ______ ____
ROOT
ATOM      1  N   UNL     1       0.132  10.859  19.654  0.00  0.00    +0.000 NA
ENDROOT
BRANCH   1   2
ATOM      2  C   UNL     1       1.282   9.848  19.503  0.00  0.00    +0.000 C 
ATOM      3  C   UNL     1       1.581   9.547  18.018  0.00  0.00    +0.000 C 
ATOM      4  C   UNL     1       2.569   8.405  17.825  0.00  0.00    +0.000 C 
ATOM      5  O   UNL     1       2.186   7.257  18.576  0.00  0.00    +0.000 OA
ATOM      6  C   UNL     1       2.145   7.520  19.975  0.00  0.00    +0.000 C 
ATOM      7  C   UNL     1       1.068   8.548  20.286  0.00  0.00    +0.000 C 
ENDBRANCH   1   2
BRANCH   1   8
ATOM      8  S   UNL     1       0.649  12.357  20.461  0.00  0.00    +0.000 S 
ATOM      9  O   UNL     1       0.737  13.369  19.431  0.00  0.00    +0.000 OA
ATOM     10  O   UNL     1       1.776  12.081  21.323  0.00  0.00    +0.000 OA
BRANCH   8  16
ATOM     11  C   UNL     1      -0.986  11.889  22.654  0.00  0.00    +0.000 A 
ATOM     12  C   UNL     1      -2.164  12.137  23.359  0.00  0.00    +0.000 A 
ATOM     13  C   UNL     1      -2.997  13.213  22.998  0.00  0.00    +0.000 A 
ATOM     14  C   UNL     1      -2.648  14.073  21.946  0.00  0.00    +0.000 A 
ATOM     15  C   UNL     1      -1.478  13.840  21.245  0.00  0.00    +0.000 A 
ATOM     16  C   UNL     1      -0.666  12.743  21.590  0.00  0.00    +0.000 A 
BRANCH  11  18
ATOM     17  C   UNL     1      -0.593   9.568  23.272  0.00  0.00    +0.000 C 
ATOM     18  O   UNL     1      -0.144  10.852  22.884  0.00  0.00    +0.000 OA
ENDBRANCH  11  18
BRANCH  14  19
ATOM     19  C   UNL     1      -3.511  15.164  21.573  0.00  0.00    +0.000 C 
ATOM     20  N   UNL     1      -4.201  16.038  21.267  0.00  0.00    +0.000 NA
ENDBRANCH  14  19
ENDBRANCH   8  16
ENDBRANCH   1   8
BRANCH   1  21
ATOM     21  C   UNL     1      -0.587  11.222  18.370  0.00  0.00    +0.000 C 
BRANCH  21  22
ATOM     22  C   UNL     1      -2.084  11.041  18.138  0.00  0.00    +0.000 A 
ATOM     23  C   UNL     1      -2.675   9.928  17.526  0.00  0.00    +0.000 A 
ATOM     24  C   UNL     1      -4.078   9.791  17.501  0.00  0.00    +0.000 A 
ATOM     25  C   UNL     1      -4.893  10.741  18.114  0.00  0.00    +0.000 A 
ATOM     26  F   UNL     1      -6.224  10.587  18.104  0.00  0.00    +0.000 F 
ATOM     27  C   UNL     1      -4.334  11.830  18.757  0.00  0.00    +0.000 A 
ATOM     28  C   UNL     1      -2.943  11.973  18.772  0.00  0.00    +0.000 A 
ENDBRANCH  21  22
ENDBRANCH   1  21
TORSDOF 7
ENDMDL
MODEL 8
REMARK VINA RESULT:      -6.9      7.041      9.977
REMARK  Name = 
REMARK  8 active torsions:
REMARK  status: ('A' for Active; 'I' for Inactive)
REMARK    1  A    between atoms: C_1  and  O_2
REMARK    2  A    between atoms: O_2  and  C_3
REMARK    3  A    between atoms: C_6  and  C_7
REMARK    4  A    between atoms: C_10  and  S_11
REMARK    5  A    between atoms: S_11  and  N_14
REMARK    6  A    between atoms: N_14  and  C_15
REMARK    7  A    between atoms: N_14  and  C_23
REMARK    8  A    between atoms: C_15  and  C_16
REMARK                            x       y       z     vdW  Elec       q    Type
REMARK                         _______ _______ _______ _____ _____    ______ ____
ROOT
ATOM      1  N   UNL     1       0.163  10.284  20.169  0.00  0.00    +0.000 NA
ENDROOT
BRANCH   1   2
ATOM      2  C   UNL     1       1.328   9.362  19.768  0.00  0.00    +0.000 C 
ATOM      3  C   UNL     1       1.465   9.255  18.233  0.00  0.00    +0.000 C 
ATOM      4  C   UNL     1       2.469   8.199  17.793  0.00  0.00    +0.000 C 
ATOM      5  O   UNL     1       2.222   6.951  18.435  0.00  0.00    +0.000 OA
ATOM      6  C   UNL     1       2.333   7.045  19.851  0.00  0.00    +0.000 C 
ATOM      7  C   UNL     1       1.259   7.969  20.403  0.00  0.00    +0.000 C 
ENDBRANCH   1   2
BRANCH   1   8
ATOM      8  S   UNL     1       0.559  11.305  21.570  0.00  0.00    +0.000 S 
ATOM      9  O   UNL     1       1.731  12.069  21.204  0.00  0.00    +0.000 OA
ATOM     10  O   UNL     1       0.546  10.505  22.774  0.00  0.00    +0.000 OA
BRANCH   8  16
ATOM     11  C   UNL     1      -0.840  13.676  21.225  0.00  0.00    +0.000 A 
ATOM     12  C   UNL     1      -1.869  14.539  21.602  0.00  0.00    +0.000 A 
ATOM     13  C   UNL     1      -2.868  14.109  22.497  0.00  0.00    +0.000 A 
ATOM     14  C   UNL     1      -2.866  12.800  23.002  0.00  0.00    +0.000 A 
ATOM     15  C   UNL     1      -1.853  11.934  22.629  0.00  0.00    +0.000 A 
ATOM     16  C   UNL     1      -0.841  12.381  21.759  0.00  0.00    +0.000 A 
BRANCH  11  18
ATOM     17  C   UNL     1       0.047  14.827  19.272  0.00  0.00    +0.000 C 
ATOM     18  O   UNL     1       0.195  14.006  20.415  0.00  0.00    +0.000 OA
ENDBRANCH  11  18
BRANCH  14  19
ATOM     19  C   UNL     1      -3.882  12.371  23.928  0.00  0.00    +0.000 C 
ATOM     20  N   UNL     1      -4.703  12.025  24.665  0.00  0.00    +0.000 NA
ENDBRANCH  14  19
ENDBRANCH   8  16
ENDBRANCH   1   8
BRANCH   1  21
ATOM     21  C   UNL     1      -0.376  11.168  19.061  0.00  0.00    +0.000 C 
BRANCH  21  22
ATOM     22  C   UNL     1      -1.797  11.089  18.508  0.00  0.00    +0.000 A 
ATOM     23  C   UNL     1      -2.886  11.835  18.976  0.00  0.00    +0.000 A 
ATOM     24  C   UNL     1      -4.118  11.799  18.293  0.00  0.00    +0.000 A 
ATOM     25  C   UNL     1      -4.260  11.052  17.127  0.00  0.00    +0.000 A 
ATOM     26  F   UNL     1      -5.430  11.044  16.472  0.00  0.00    +0.000 F 
ATOM     27  C   UNL     1      -3.189  10.336  16.622  0.00  0.00    +0.000 A 
ATOM     28  C   UNL     1      -1.970  10.360  17.305  0.00  0.00    +0.000 A 
ENDBRANCH  21  22
ENDBRANCH   1  21
TORSDOF 7
ENDMDL
MODEL 9
REMARK VINA RESULT:      -6.9      6.305      8.527
REMARK  Name = 
REMARK  8 active torsions:
REMARK  status: ('A' for Active; 'I' for Inactive)
REMARK    1  A    between atoms: C_1  and  O_2
REMARK    2  A    between atoms: O_2  and  C_3
REMARK    3  A    between atoms: C_6  and  C_7
REMARK    4  A    between atoms: C_10  and  S_11
REMARK    5  A    between atoms: S_11  and  N_14
REMARK    6  A    between atoms: N_14  and  C_15
REMARK    7  A    between atoms: N_14  and  C_23
REMARK    8  A    between atoms: C_15  and  C_16
REMARK                            x       y       z     vdW  Elec       q    Type
REMARK                         _______ _______ _______ _____ _____    ______ ____
ROOT
ATOM      1  N   UNL     1       0.722  11.281  19.334  0.00  0.00    +0.000 NA
ENDROOT
BRANCH   1   2
ATOM      2  C   UNL     1       1.379  12.671  19.258  0.00  0.00    +0.000 C 
ATOM      3  C   UNL     1       2.546  12.692  18.247  0.00  0.00    +0.000 C 
ATOM      4  C   UNL     1       3.351  13.984  18.288  0.00  0.00    +0.000 C 
ATOM      5  O   UNL     1       3.739  14.308  19.620  0.00  0.00    +0.000 OA
ATOM      6  C   UNL     1       2.618  14.508  20.473  0.00  0.00    +0.000 C 
ATOM      7  C   UNL     1       1.831  13.215  20.618  0.00  0.00    +0.000 C 
ENDBRANCH   1   2
BRANCH   1   8
ATOM      8  S   UNL     1      -1.046  11.357  19.157  0.00  0.00    +0.000 S 
ATOM      9  O   UNL     1      -1.502   9.994  19.000  0.00  0.00    +0.000 OA
ATOM     10  O   UNL     1      -1.395  12.368  18.185  0.00  0.00    +0.000 OA
BRANCH   8  16
ATOM     11  C   UNL     1      -1.324  11.414  21.918  0.00  0.00    +0.000 A 
ATOM     12  C   UNL     1      -1.996  11.857  23.057  0.00  0.00    +0.000 A 
ATOM     13  C   UNL     1      -2.952  12.886  22.964  0.00  0.00    +0.000 A 
ATOM     14  C   UNL     1      -3.227  13.506  21.736  0.00  0.00    +0.000 A 
ATOM     15  C   UNL     1      -2.560  13.077  20.600  0.00  0.00    +0.000 A 
ATOM     16  C   UNL     1      -1.629  12.026  20.695  0.00  0.00    +0.000 A 
BRANCH  11  18
ATOM     17  C   UNL     1      -0.100   9.627  23.030  0.00  0.00    +0.000 C 
ATOM     18  O   UNL     1      -0.428  10.397  21.889  0.00  0.00    +0.000 OA
ENDBRANCH  11  18
BRANCH  14  19
ATOM     19  C   UNL     1      -4.216  14.548  21.645  0.00  0.00    +0.000 C 
ATOM     20  N   UNL     1      -5.007  15.388  21.579  0.00  0.00    +0.000 NA
ENDBRANCH  14  19
ENDBRANCH   8  16
ENDBRANCH   1   8
BRANCH   1  21
ATOM     21  C   UNL     1       1.263  10.253  18.360  0.00  0.00    +0.000 C 
BRANCH  21  22
ATOM     22  C   UNL     1       1.875   8.916  18.769  0.00  0.00    +0.000 A 
ATOM     23  C   UNL     1       1.601   8.235  19.962  0.00  0.00    +0.000 A 
ATOM     24  C   UNL     1       2.101   6.934  20.170  0.00  0.00    +0.000 A 
ATOM     25  C   UNL     1       2.844   6.295  19.180  0.00  0.00    +0.000 A 
ATOM     26  F   UNL     1       3.295   5.048  19.380  0.00  0.00    +0.000 F 
ATOM     27  C   UNL     1       3.098   6.930  17.978  0.00  0.00    +0.000 A 
ATOM     28  C   UNL     1       2.614   8.225  17.775  0.00  0.00    +0.000 A 
ENDBRANCH  21  22
ENDBRANCH   1  21
TORSDOF 7
ENDMDL
