MODEL 1
REMARK VINA RESULT:      -6.7      0.000      0.000
REMARK  Name = 
REMARK  11 active torsions:
REMARK  status: ('A' for Active; 'I' for Inactive)
REMARK    1  A    between atoms: C_1  and  C_2
REMARK    2  A    between atoms: C_2  and  C_3
REMARK    3  A    between atoms: C_4  and  C_5
REMARK    4  A    between atoms: C_5  and  C_9
REMARK    5  A    between atoms: C_6  and  O_7
REMARK    6  A    between atoms: O_7  and  C_8
REMARK    7  A    between atoms: C_9  and  O_11
REMARK    8  A    between atoms: O_11  and  C_12
REMARK    9  A    between atoms: C_28  and  C_29
REMARK   10  A    between atoms: C_29  and  C_30
REMARK   11  A    between atoms: C_30  and  C_31
REMARK                            x       y       z     vdW  Elec       q    Type
REMARK                         _______ _______ _______ _____ _____    ______ ____
ROOT
ATOM      1  C   UNL     1      -0.213  10.569  18.948  0.00  0.00    +0.000 C 
ATOM      2  C   UNL     1      -1.057  11.662  18.194  0.00  0.00    +0.000 C 
ATOM      3  C   UNL     1      -0.848  13.051  18.795  0.00  0.00    +0.000 C 
ATOM      4  C   UNL     1       0.646  13.337  19.038  0.00  0.00    +0.000 C 
ATOM      5  N   UNL     1       1.280  12.337  19.892  0.00  0.00    +0.000 NA
ATOM      6  C   UNL     1       2.145  12.963  20.882  0.00  0.00    +0.000 C 
ATOM      7  C   UNL     1       1.807  14.448  20.909  0.00  0.00    +0.000 C 
ATOM      8  C   UNL     1       0.997  14.720  19.645  0.00  0.00    +0.000 C 
ATOM      9  C   UNL     1       1.847  15.532  18.628  0.00  0.00    +0.000 C 
ATOM     10  O   UNL     1       2.952  15.246  18.192  0.00  0.00    +0.000 OA
ATOM     11  N   UNL     1       1.120  16.661  18.279  0.00  0.00    +0.000 N 
ATOM     12  C   UNL     1      -0.076  16.726  18.973  0.00  0.00    +0.000 A 
ATOM     13  C   UNL     1      -1.082  17.657  18.826  0.00  0.00    +0.000 A 
ATOM     14  C   UNL     1      -2.244  17.470  19.580  0.00  0.00    +0.000 A 
ATOM     15  C   UNL     1      -2.348  16.405  20.491  0.00  0.00    +0.000 A 
ATOM     16  C   UNL     1      -1.290  15.511  20.663  0.00  0.00    +0.000 A 
ATOM     17  C   UNL     1      -0.177  15.652  19.852  0.00  0.00    +0.000 A 
ATOM     18  C   UNL     1       0.571  11.099  20.208  0.00  0.00    +0.000 C 
ATOM     19  H   UNL     1       1.455  17.345  17.617  0.00  0.00    +0.000 HD
ENDROOT
BRANCH   1  21
ATOM     20  C   UNL     1       1.746   8.926  18.577  0.00  0.00    +0.000 C 
ATOM     21  C   UNL     1       0.774   9.917  17.933  0.00  0.00    +0.000 C 
ENDBRANCH   1  21
BRANCH   2  22
ATOM     22  C   UNL     1      -2.550  11.361  17.997  0.00  0.00    +0.000 C 
ATOM     23  C   UNL     1      -3.522  11.887  18.766  0.00  0.00    +0.000 C 
BRANCH  23  24
ATOM     24  O   UNL     1      -4.849  11.561  18.697  0.00  0.00    +0.000 OA
ATOM     25  C   UNL     1      -5.607  12.154  19.748  0.00  0.00    +0.000 C 
ENDBRANCH  23  24
BRANCH  22  26
ATOM     26  C   UNL     1      -2.984  10.420  16.910  0.00  0.00    +0.000 C 
ATOM     27  O   UNL     1      -3.306   9.252  17.078  0.00  0.00    +0.000 OA
BRANCH  26  28
ATOM     28  O   UNL     1      -2.978  11.048  15.706  0.00  0.00    +0.000 OA
ATOM     29  C   UNL     1      -3.078  10.196  14.558  0.00  0.00    +0.000 C 
ENDBRANCH  26  28
ENDBRANCH  22  26
ENDBRANCH   2  22
BRANCH  18  30
ATOM     30  C   UNL     1      -0.250  11.216  21.515  0.00  0.00    +0.000 C 
BRANCH  30  31
ATOM     31  C   UNL     1      -0.213  10.022  22.444  0.00  0.00    +0.000 C 
ATOM     32  C   UNL     1      -0.383   8.642  21.869  0.00  0.00    +0.000 C 
ATOM     33  O   UNL     1       0.060  10.166  23.639  0.00  0.00    +0.000 OA
ENDBRANCH  30  31
ENDBRANCH  18  30
TORSDOF 7
ENDMDL
MODEL 2
REMARK VINA RESULT:      -6.5      2.479      4.726
REMARK  Name = 
REMARK  11 active torsions:
REMARK  status: ('A' for Active; 'I' for Inactive)
REMARK    1  A    between atoms: C_1  and  C_2
REMARK    2  A    between atoms: C_2  and  C_3
REMARK    3  A    between atoms: C_4  and  C_5
REMARK    4  A    between atoms: C_5  and  C_9
REMARK    5  A    between atoms: C_6  and  O_7
REMARK    6  A    between atoms: O_7  and  C_8
REMARK    7  A    between atoms: C_9  and  O_11
REMARK    8  A    between atoms: O_11  and  C_12
REMARK    9  A    between atoms: C_28  and  C_29
REMARK   10  A    between atoms: C_29  and  C_30
REMARK   11  A    between atoms: C_30  and  C_31
REMARK                            x       y       z     vdW  Elec       q    Type
REMARK                         _______ _______ _______ _____ _____    ______ ____
ROOT
ATOM      1  C   UNL     1      -0.076  12.351  20.936  0.00  0.00    +0.000 C 
ATOM      2  C   UNL     1      -0.965  12.334  19.638  0.00  0.00    +0.000 C 
ATOM      3  C   UNL     1      -2.436  12.596  19.958  0.00  0.00    +0.000 C 
ATOM      4  C   UNL     1      -2.595  13.787  20.924  0.00  0.00    +0.000 C 
ATOM      5  N   UNL     1      -1.851  13.608  22.168  0.00  0.00    +0.000 NA
ATOM      6  C   UNL     1      -2.647  14.006  23.319  0.00  0.00    +0.000 C 
ATOM      7  C   UNL     1      -4.092  14.128  22.854  0.00  0.00    +0.000 C 
ATOM      8  C   UNL     1      -4.044  14.162  21.329  0.00  0.00    +0.000 C 
ATOM      9  C   UNL     1      -4.373  15.590  20.814  0.00  0.00    +0.000 C 
ATOM     10  O   UNL     1      -3.826  16.636  21.130  0.00  0.00    +0.000 OA
ATOM     11  N   UNL     1      -5.412  15.480  19.901  0.00  0.00    +0.000 N 
ATOM     12  C   UNL     1      -5.846  14.170  19.786  0.00  0.00    +0.000 A 
ATOM     13  C   UNL     1      -6.799  13.674  18.923  0.00  0.00    +0.000 A 
ATOM     14  C   UNL     1      -7.011  12.293  18.927  0.00  0.00    +0.000 A 
ATOM     15  C   UNL     1      -6.317  11.460  19.820  0.00  0.00    +0.000 A 
ATOM     16  C   UNL     1      -5.400  11.996  20.726  0.00  0.00    +0.000 A 
ATOM     17  C   UNL     1      -5.132  13.353  20.658  0.00  0.00    +0.000 A 
ATOM     18  C   UNL     1      -0.879  12.522  22.281  0.00  0.00    +0.000 C 
ATOM     19  H   UNL     1      -5.800  16.274  19.413  0.00  0.00    +0.000 HD
ENDROOT
BRANCH   1  21
ATOM     20  C   UNL     1       2.264  13.038  20.082  0.00  0.00    +0.000 C 
ATOM     21  C   UNL     1       0.986  13.484  20.794  0.00  0.00    +0.000 C 
ENDBRANCH   1  21
BRANCH   2  22
ATOM     22  C   UNL     1      -0.807  11.119  18.714  0.00  0.00    +0.000 C 
ATOM     23  C   UNL     1       0.335  10.413  18.604  0.00  0.00    +0.000 C 
BRANCH  23  24
ATOM     24  O   UNL     1       0.554   9.395  17.715  0.00  0.00    +0.000 OA
ATOM     25  C   UNL     1       1.896   8.917  17.760  0.00  0.00    +0.000 C 
ENDBRANCH  23  24
BRANCH  22  26
ATOM     26  C   UNL     1      -1.959  10.676  17.858  0.00  0.00    +0.000 C 
ATOM     27  O   UNL     1      -2.696   9.731  18.106  0.00  0.00    +0.000 OA
BRANCH  26  28
ATOM     28  O   UNL     1      -2.076  11.475  16.767  0.00  0.00    +0.000 OA
ATOM     29  C   UNL     1      -2.844  10.940  15.682  0.00  0.00    +0.000 C 
ENDBRANCH  26  28
ENDBRANCH  22  26
ENDBRANCH   2  22
BRANCH  18  30
ATOM     30  C   UNL     1      -1.511  11.232  22.858  0.00  0.00    +0.000 C 
BRANCH  30  31
ATOM     31  C   UNL     1      -0.601  10.029  22.974  0.00  0.00    +0.000 C 
ATOM     32  C   UNL     1      -0.631   8.983  21.894  0.00  0.00    +0.000 C 
ATOM     33  O   UNL     1       0.230   9.958  23.883  0.00  0.00    +0.000 OA
ENDBRANCH  30  31
ENDBRANCH  18  30
TORSDOF 7
ENDMDL
MODEL 3
REMARK VINA RESULT:      -6.3      1.181      1.449
REMARK  Name = 
REMARK  11 active torsions:
REMARK  status: ('A' for Active; 'I' for Inactive)
REMARK    1  A    between atoms: C_1  and  C_2
REMARK    2  A    between atoms: C_2  and  C_3
REMARK    3  A    between atoms: C_4  and  C_5
REMARK    4  A    between atoms: C_5  and  C_9
REMARK    5  A    between atoms: C_6  and  O_7
REMARK    6  A    between atoms: O_7  and  C_8
REMARK    7  A    between atoms: C_9  and  O_11
REMARK    8  A    between atoms: O_11  and  C_12
REMARK    9  A    between atoms: C_28  and  C_29
REMARK   10  A    between atoms: C_29  and  C_30
REMARK   11  A    between atoms: C_30  and  C_31
REMARK                            x       y       z     vdW  Elec       q    Type
REMARK                         _______ _______ _______ _____ _____    ______ ____
ROOT
ATOM      1  C   UNL     1       0.025  11.181  20.025  0.00  0.00    +0.000 C 
ATOM      2  C   UNL     1      -0.497  11.986  18.778  0.00  0.00    +0.000 C 
ATOM      3  C   UNL     1      -0.223  13.482  18.917  0.00  0.00    +0.000 C 
ATOM      4  C   UNL     1       1.219  13.746  19.391  0.00  0.00    +0.000 C 
ATOM      5  N   UNL     1       1.530  13.076  20.651  0.00  0.00    +0.000 NA
ATOM      6  C   UNL     1       2.260  13.958  21.549  0.00  0.00    +0.000 C 
ATOM      7  C   UNL     1       2.129  15.374  21.004  0.00  0.00    +0.000 C 
ATOM      8  C   UNL     1       1.629  15.231  19.571  0.00  0.00    +0.000 C 
ATOM      9  C   UNL     1       2.764  15.580  18.569  0.00  0.00    +0.000 C 
ATOM     10  O   UNL     1       3.884  15.093  18.520  0.00  0.00    +0.000 OA
ATOM     11  N   UNL     1       2.282  16.555  17.707  0.00  0.00    +0.000 N 
ATOM     12  C   UNL     1       0.992  16.931  18.043  0.00  0.00    +0.000 A 
ATOM     13  C   UNL     1       0.172  17.809  17.367  0.00  0.00    +0.000 A 
ATOM     14  C   UNL     1      -1.130  17.968  17.849  0.00  0.00    +0.000 A 
ATOM     15  C   UNL     1      -1.556  17.302  19.010  0.00  0.00    +0.000 A 
ATOM     16  C   UNL     1      -0.685  16.465  19.710  0.00  0.00    +0.000 A 
ATOM     17  C   UNL     1       0.575  16.244  19.179  0.00  0.00    +0.000 A 
ATOM     18  C   UNL     1       0.611  12.074  21.185  0.00  0.00    +0.000 C 
ATOM     19  H   UNL     1       2.830  16.940  16.953  0.00  0.00    +0.000 HD
ENDROOT
BRANCH   1  21
ATOM     20  C   UNL     1       1.413  10.261  18.050  0.00  0.00    +0.000 C 
ATOM     21  C   UNL     1       1.095  10.155  19.542  0.00  0.00    +0.000 C 
ENDBRANCH   1  21
BRANCH   2  22
ATOM     22  C   UNL     1      -1.948  11.724  18.351  0.00  0.00    +0.000 C 
ATOM     23  C   UNL     1      -3.013  12.279  18.960  0.00  0.00    +0.000 C 
BRANCH  23  24
ATOM     24  O   UNL     1      -4.322  11.988  18.685  0.00  0.00    +0.000 OA
ATOM     25  C   UNL     1      -5.208  12.479  19.689  0.00  0.00    +0.000 C 
ENDBRANCH  23  24
BRANCH  22  26
ATOM     26  C   UNL     1      -2.234  10.790  17.210  0.00  0.00    +0.000 C 
ATOM     27  O   UNL     1      -2.029   9.584  17.220  0.00  0.00    +0.000 OA
BRANCH  26  28
ATOM     28  O   UNL     1      -2.759  11.471  16.159  0.00  0.00    +0.000 OA
ATOM     29  C   UNL     1      -3.154  10.673  15.035  0.00  0.00    +0.000 C 
ENDBRANCH  26  28
ENDBRANCH  22  26
ENDBRANCH   2  22
BRANCH  18  30
ATOM     30  C   UNL     1      -0.428  12.693  22.151  0.00  0.00    +0.000 C 
BRANCH  30  31
ATOM     31  C   UNL     1      -1.241  11.721  22.979  0.00  0.00    +0.000 C 
ATOM     32  C   UNL     1      -2.698  12.006  23.220  0.00  0.00    +0.000 C 
ATOM     33  O   UNL     1      -0.745  10.658  23.362  0.00  0.00    +0.000 OA
ENDBRANCH  30  31
ENDBRANCH  18  30
TORSDOF 7
ENDMDL
MODEL 4
REMARK VINA RESULT:      -6.3      1.852      5.873
REMARK  Name = 
REMARK  11 active torsions:
REMARK  status: ('A' for Active; 'I' for Inactive)
REMARK    1  A    between atoms: C_1  and  C_2
REMARK    2  A    between atoms: C_2  and  C_3
REMARK    3  A    between atoms: C_4  and  C_5
REMARK    4  A    between atoms: C_5  and  C_9
REMARK    5  A    between atoms: C_6  and  O_7
REMARK    6  A    between atoms: O_7  and  C_8
REMARK    7  A    between atoms: C_9  and  O_11
REMARK    8  A    between atoms: O_11  and  C_12
REMARK    9  A    between atoms: C_28  and  C_29
REMARK   10  A    between atoms: C_29  and  C_30
REMARK   11  A    between atoms: C_30  and  C_31
REMARK                            x       y       z     vdW  Elec       q    Type
REMARK                         _______ _______ _______ _____ _____    ______ ____
ROOT
ATOM      1  C   UNL     1      -2.973  13.187  19.782  0.00  0.00    +0.000 C 
ATOM      2  C   UNL     1      -2.854  11.727  19.208  0.00  0.00    +0.000 C 
ATOM      3  C   UNL     1      -1.433  11.184  19.338  0.00  0.00    +0.000 C 
ATOM      4  C   UNL     1      -0.856  11.454  20.742  0.00  0.00    +0.000 C 
ATOM      5  N   UNL     1      -0.869  12.871  21.094  0.00  0.00    +0.000 NA
ATOM      6  C   UNL     1       0.381  13.268  21.724  0.00  0.00    +0.000 C 
ATOM      7  C   UNL     1       1.393  12.158  21.470  0.00  0.00    +0.000 C 
ATOM      8  C   UNL     1       0.585  10.949  21.008  0.00  0.00    +0.000 C 
ATOM      9  C   UNL     1       0.557   9.866  22.122  0.00  0.00    +0.000 C 
ATOM     10  O   UNL     1       0.203  10.007  23.283  0.00  0.00    +0.000 OA
ATOM     11  N   UNL     1       1.002   8.676  21.565  0.00  0.00    +0.000 N 
ATOM     12  C   UNL     1       1.369   8.845  20.241  0.00  0.00    +0.000 A 
ATOM     13  C   UNL     1       1.779   7.874  19.353  0.00  0.00    +0.000 A 
ATOM     14  C   UNL     1       2.017   8.270  18.034  0.00  0.00    +0.000 A 
ATOM     15  C   UNL     1       1.897   9.617  17.653  0.00  0.00    +0.000 A 
ATOM     16  C   UNL     1       1.538  10.591  18.588  0.00  0.00    +0.000 A 
ATOM     17  C   UNL     1       1.221  10.179  19.871  0.00  0.00    +0.000 A 
ATOM     18  C   UNL     1      -1.611  13.817  20.263  0.00  0.00    +0.000 C 
ATOM     19  H   UNL     1       1.062   7.814  22.087  0.00  0.00    +0.000 HD
ENDROOT
BRANCH   1  21
ATOM     20  C   UNL     1      -5.390  13.689  20.548  0.00  0.00    +0.000 C 
ATOM     21  C   UNL     1      -4.005  13.178  20.951  0.00  0.00    +0.000 C 
ENDBRANCH   1  21
BRANCH   2  22
ATOM     22  C   UNL     1      -3.409  11.499  17.794  0.00  0.00    +0.000 C 
ATOM     23  C   UNL     1      -2.631  11.255  16.722  0.00  0.00    +0.000 C 
BRANCH  23  24
ATOM     24  O   UNL     1      -3.073  11.156  15.431  0.00  0.00    +0.000 OA
ATOM     25  C   UNL     1      -2.978   9.826  14.927  0.00  0.00    +0.000 C 
ENDBRANCH  23  24
BRANCH  22  26
ATOM     26  C   UNL     1      -4.889  11.562  17.554  0.00  0.00    +0.000 C 
ATOM     27  O   UNL     1      -5.461  12.431  16.910  0.00  0.00    +0.000 OA
BRANCH  26  28
ATOM     28  O   UNL     1      -5.513  10.512  18.149  0.00  0.00    +0.000 OA
ATOM     29  C   UNL     1      -6.845  10.762  18.616  0.00  0.00    +0.000 C 
ENDBRANCH  26  28
ENDBRANCH  22  26
ENDBRANCH   2  22
BRANCH  18  30
ATOM     30  C   UNL     1      -0.726  14.439  19.155  0.00  0.00    +0.000 C 
BRANCH  30  31
ATOM     31  C   UNL     1      -0.385  15.905  19.307  0.00  0.00    +0.000 C 
ATOM     32  C   UNL     1      -0.496  16.810  18.111  0.00  0.00    +0.000 C 
ATOM     33  O   UNL     1      -0.125  16.375  20.418  0.00  0.00    +0.000 OA
ENDBRANCH  30  31
ENDBRANCH  18  30
TORSDOF 7
ENDMDL
MODEL 5
REMARK VINA RESULT:      -6.3      1.657      5.906
REMARK  Name = 
REMARK  11 active torsions:
REMARK  status: ('A' for Active; 'I' for Inactive)
REMARK    1  A    between atoms: C_1  and  C_2
REMARK    2  A    between atoms: C_2  and  C_3
REMARK    3  A    between atoms: C_4  and  C_5
REMARK    4  A    between atoms: C_5  and  C_9
REMARK    5  A    between atoms: C_6  and  O_7
REMARK    6  A    between atoms: O_7  and  C_8
REMARK    7  A    between atoms: C_9  and  O_11
REMARK    8  A    between atoms: O_11  and  C_12
REMARK    9  A    between atoms: C_28  and  C_29
REMARK   10  A    between atoms: C_29  and  C_30
REMARK   11  A    between atoms: C_30  and  C_31
REMARK                            x       y       z     vdW  Elec       q    Type
REMARK                         _______ _______ _______ _____ _____    ______ ____
ROOT
ATOM      1  C   UNL     1      -2.888  12.569  19.703  0.00  0.00    +0.000 C 
ATOM      2  C   UNL     1      -2.776  11.048  19.317  0.00  0.00    +0.000 C 
ATOM      3  C   UNL     1      -1.331  10.557  19.370  0.00  0.00    +0.000 C 
ATOM      4  C   UNL     1      -0.627  11.026  20.658  0.00  0.00    +0.000 C 
ATOM      5  N   UNL     1      -0.653  12.477  20.820  0.00  0.00    +0.000 NA
ATOM      6  C   UNL     1       0.639  12.981  21.259  0.00  0.00    +0.000 C 
ATOM      7  C   UNL     1       1.658  11.868  21.050  0.00  0.00    +0.000 C 
ATOM      8  C   UNL     1       0.851  10.591  20.838  0.00  0.00    +0.000 C 
ATOM      9  C   UNL     1       0.972   9.668  22.082  0.00  0.00    +0.000 C 
ATOM     10  O   UNL     1       0.730   9.957  23.245  0.00  0.00    +0.000 OA
ATOM     11  N   UNL     1       1.400   8.423  21.643  0.00  0.00    +0.000 N 
ATOM     12  C   UNL     1       1.627   8.420  20.278  0.00  0.00    +0.000 A 
ATOM     13  C   UNL     1       1.980   7.347  19.488  0.00  0.00    +0.000 A 
ATOM     14  C   UNL     1       2.070   7.567  18.111  0.00  0.00    +0.000 A 
ATOM     15  C   UNL     1       1.866   8.848  17.570  0.00  0.00    +0.000 A 
ATOM     16  C   UNL     1       1.569   9.931  18.400  0.00  0.00    +0.000 A 
ATOM     17  C   UNL     1       1.396   9.689  19.752  0.00  0.00    +0.000 A 
ATOM     18  C   UNL     1      -1.506  13.287  19.953  0.00  0.00    +0.000 C 
ATOM     19  H   UNL     1       1.542   7.641  22.266  0.00  0.00    +0.000 HD
ENDROOT
BRANCH   1  21
ATOM     20  C   UNL     1      -5.232  13.115  20.642  0.00  0.00    +0.000 C 
ATOM     21  C   UNL     1      -3.797  12.696  20.963  0.00  0.00    +0.000 C 
ENDBRANCH   1  21
BRANCH   2  22
ATOM     22  C   UNL     1      -3.460  10.620  18.011  0.00  0.00    +0.000 C 
ATOM     23  C   UNL     1      -2.838   9.925  17.039  0.00  0.00    +0.000 C 
BRANCH  23  24
ATOM     24  O   UNL     1      -3.375   9.620  15.818  0.00  0.00    +0.000 OA
ATOM     25  C   UNL     1      -2.796  10.389  14.766  0.00  0.00    +0.000 C 
ENDBRANCH  23  24
BRANCH  22  26
ATOM     26  C   UNL     1      -4.893  10.994  17.762  0.00  0.00    +0.000 C 
ATOM     27  O   UNL     1      -5.863  10.424  18.243  0.00  0.00    +0.000 OA
BRANCH  26  28
ATOM     28  O   UNL     1      -4.968  12.063  16.927  0.00  0.00    +0.000 OA
ATOM     29  C   UNL     1      -6.153  12.861  17.041  0.00  0.00    +0.000 C 
ENDBRANCH  26  28
ENDBRANCH  22  26
ENDBRANCH   2  22
BRANCH  18  30
ATOM     30  C   UNL     1      -0.759  13.772  18.687  0.00  0.00    +0.000 C 
BRANCH  30  31
ATOM     31  C   UNL     1      -0.083  15.122  18.780  0.00  0.00    +0.000 C 
ATOM     32  C   UNL     1      -0.885  16.313  19.228  0.00  0.00    +0.000 C 
ATOM     33  O   UNL     1       1.133  15.228  18.594  0.00  0.00    +0.000 OA
ENDBRANCH  30  31
ENDBRANCH  18  30
TORSDOF 7
ENDMDL
MODEL 6
REMARK VINA RESULT:      -6.3      3.200      4.554
REMARK  Name = 
REMARK  11 active torsions:
REMARK  status: ('A' for Active; 'I' for Inactive)
REMARK    1  A    between atoms: C_1  and  C_2
REMARK    2  A    between atoms: C_2  and  C_3
REMARK    3  A    between atoms: C_4  and  C_5
REMARK    4  A    between atoms: C_5  and  C_9
REMARK    5  A    between atoms: C_6  and  O_7
REMARK    6  A    between atoms: O_7  and  C_8
REMARK    7  A    between atoms: C_9  and  O_11
REMARK    8  A    between atoms: O_11  and  C_12
REMARK    9  A    between atoms: C_28  and  C_29
REMARK   10  A    between atoms: C_29  and  C_30
REMARK   11  A    between atoms: C_30  and  C_31
REMARK                            x       y       z     vdW  Elec       q    Type
REMARK                         _______ _______ _______ _____ _____    ______ ____
ROOT
ATOM      1  C   UNL     1      -1.499  12.394  19.921  0.00  0.00    +0.000 C 
ATOM      2  C   UNL     1      -3.008  12.768  19.674  0.00  0.00    +0.000 C 
ATOM      3  C   UNL     1      -3.711  13.162  20.972  0.00  0.00    +0.000 C 
ATOM      4  C   UNL     1      -2.854  14.139  21.800  0.00  0.00    +0.000 C 
ATOM      5  N   UNL     1      -1.530  13.606  22.107  0.00  0.00    +0.000 NA
ATOM      6  C   UNL     1      -1.166  13.866  23.492  0.00  0.00    +0.000 C 
ATOM      7  C   UNL     1      -2.435  14.282  24.226  0.00  0.00    +0.000 C 
ATOM      8  C   UNL     1      -3.456  14.621  23.145  0.00  0.00    +0.000 C 
ATOM      9  C   UNL     1      -3.688  16.156  23.088  0.00  0.00    +0.000 C 
ATOM     10  O   UNL     1      -2.843  17.028  22.951  0.00  0.00    +0.000 OA
ATOM     11  N   UNL     1      -5.052  16.382  23.210  0.00  0.00    +0.000 N 
ATOM     12  C   UNL     1      -5.745  15.197  23.392  0.00  0.00    +0.000 A 
ATOM     13  C   UNL     1      -7.110  15.028  23.470  0.00  0.00    +0.000 A 
ATOM     14  C   UNL     1      -7.588  13.718  23.569  0.00  0.00    +0.000 A 
ATOM     15  C   UNL     1      -6.702  12.631  23.646  0.00  0.00    +0.000 A 
ATOM     16  C   UNL     1      -5.321  12.836  23.625  0.00  0.00    +0.000 A 
ATOM     17  C   UNL     1      -4.856  14.127  23.440  0.00  0.00    +0.000 A 
ATOM     18  C   UNL     1      -1.062  12.396  21.436  0.00  0.00    +0.000 C 
ATOM     19  H   UNL     1      -5.459  17.305  23.189  0.00  0.00    +0.000 HD
ENDROOT
BRANCH   1  21
ATOM     20  C   UNL     1       0.857  12.931  19.008  0.00  0.00    +0.000 C 
ATOM     21  C   UNL     1      -0.605  13.372  19.100  0.00  0.00    +0.000 C 
ENDBRANCH   1  21
BRANCH   2  22
ATOM     22  C   UNL     1      -3.843  11.758  18.874  0.00  0.00    +0.000 C 
ATOM     23  C   UNL     1      -5.175  11.620  19.014  0.00  0.00    +0.000 C 
BRANCH  23  24
ATOM     24  O   UNL     1      -5.939  10.661  18.405  0.00  0.00    +0.000 OA
ATOM     25  C   UNL     1      -6.792   9.984  19.325  0.00  0.00    +0.000 C 
ENDBRANCH  23  24
BRANCH  22  26
ATOM     26  C   UNL     1      -3.169  10.848  17.888  0.00  0.00    +0.000 C 
ATOM     27  O   UNL     1      -2.887   9.675  18.093  0.00  0.00    +0.000 OA
BRANCH  26  28
ATOM     28  O   UNL     1      -2.918  11.506  16.727  0.00  0.00    +0.000 OA
ATOM     29  C   UNL     1      -3.104  10.745  15.527  0.00  0.00    +0.000 C 
ENDBRANCH  26  28
ENDBRANCH  22  26
ENDBRANCH   2  22
BRANCH  18  30
ATOM     30  C   UNL     1      -1.401  11.116  22.238  0.00  0.00    +0.000 C 
BRANCH  30  31
ATOM     31  C   UNL     1      -0.289  10.100  22.389  0.00  0.00    +0.000 C 
ATOM     32  C   UNL     1       0.135   9.297  21.190  0.00  0.00    +0.000 C 
ATOM     33  O   UNL     1       0.333  10.006  23.450  0.00  0.00    +0.000 OA
ENDBRANCH  30  31
ENDBRANCH  18  30
TORSDOF 7
ENDMDL
MODEL 7
REMARK VINA RESULT:      -6.3      2.734      7.232
REMARK  Name = 
REMARK  11 active torsions:
REMARK  status: ('A' for Active; 'I' for Inactive)
REMARK    1  A    between atoms: C_1  and  C_2
REMARK    2  A    between atoms: C_2  and  C_3
REMARK    3  A    between atoms: C_4  and  C_5
REMARK    4  A    between atoms: C_5  and  C_9
REMARK    5  A    between atoms: C_6  and  O_7
REMARK    6  A    between atoms: O_7  and  C_8
REMARK    7  A    between atoms: C_9  and  O_11
REMARK    8  A    between atoms: O_11  and  C_12
REMARK    9  A    between atoms: C_28  and  C_29
REMARK   10  A    between atoms: C_29  and  C_30
REMARK   11  A    between atoms: C_30  and  C_31
REMARK                            x       y       z     vdW  Elec       q    Type
REMARK                         _______ _______ _______ _____ _____    ______ ____
ROOT
ATOM      1  C   UNL     1       1.832  15.179  19.255  0.00  0.00    +0.000 C 
ATOM      2  C   UNL     1       2.385  14.265  20.411  0.00  0.00    +0.000 C 
ATOM      3  C   UNL     1       1.490  13.051  20.648  0.00  0.00    +0.000 C 
ATOM      4  C   UNL     1       1.101  12.374  19.319  0.00  0.00    +0.000 C 
ATOM      5  N   UNL     1       0.443  13.290  18.391  0.00  0.00    +0.000 NA
ATOM      6  C   UNL     1      -0.708  12.661  17.759  0.00  0.00    +0.000 C 
ATOM      7  C   UNL     1      -1.031  11.401  18.550  0.00  0.00    +0.000 C 
ATOM      8  C   UNL     1       0.192  11.122  19.418  0.00  0.00    +0.000 C 
ATOM      9  C   UNL     1       0.958   9.881  18.882  0.00  0.00    +0.000 C 
ATOM     10  O   UNL     1       1.378   9.703  17.748  0.00  0.00    +0.000 OA
ATOM     11  N   UNL     1       1.101   8.986  19.933  0.00  0.00    +0.000 N 
ATOM     12  C   UNL     1       0.483   9.454  21.081  0.00  0.00    +0.000 A 
ATOM     13  C   UNL     1       0.488   8.875  22.332  0.00  0.00    +0.000 A 
ATOM     14  C   UNL     1      -0.136   9.578  23.366  0.00  0.00    +0.000 A 
ATOM     15  C   UNL     1      -0.790  10.796  23.117  0.00  0.00    +0.000 A 
ATOM     16  C   UNL     1      -0.832  11.331  21.828  0.00  0.00    +0.000 A 
ATOM     17  C   UNL     1      -0.139  10.673  20.826  0.00  0.00    +0.000 A 
ATOM     18  C   UNL     1       0.443  14.724  18.666  0.00  0.00    +0.000 C 
ATOM     19  H   UNL     1       1.580   8.103  19.840  0.00  0.00    +0.000 HD
ENDROOT
BRANCH   1  21
ATOM     20  C   UNL     1       3.037  16.636  17.494  0.00  0.00    +0.000 C 
ATOM     21  C   UNL     1       2.901  15.248  18.122  0.00  0.00    +0.000 C 
ENDBRANCH   1  21
BRANCH   2  22
ATOM     22  C   UNL     1       2.733  14.965  21.732  0.00  0.00    +0.000 C 
ATOM     23  C   UNL     1       1.857  15.716  22.427  0.00  0.00    +0.000 C 
BRANCH  23  24
ATOM     24  O   UNL     1       2.154  16.445  23.547  0.00  0.00    +0.000 OA
ATOM     25  C   UNL     1       1.019  17.141  24.057  0.00  0.00    +0.000 C 
ENDBRANCH  23  24
BRANCH  22  26
ATOM     26  C   UNL     1       4.117  14.843  22.301  0.00  0.00    +0.000 C 
ATOM     27  O   UNL     1       4.436  14.101  23.220  0.00  0.00    +0.000 OA
BRANCH  26  28
ATOM     28  O   UNL     1       4.974  15.668  21.647  0.00  0.00    +0.000 OA
ATOM     29  C   UNL     1       5.994  15.023  20.874  0.00  0.00    +0.000 C 
ENDBRANCH  26  28
ENDBRANCH  22  26
ENDBRANCH   2  22
BRANCH  18  30
ATOM     30  C   UNL     1      -0.807  15.163  19.469  0.00  0.00    +0.000 C 
BRANCH  30  31
ATOM     31  C   UNL     1      -0.963  16.648  19.714  0.00  0.00    +0.000 C 
ATOM     32  C   UNL     1      -1.066  17.578  18.536  0.00  0.00    +0.000 C 
ATOM     33  O   UNL     1      -1.111  17.081  20.861  0.00  0.00    +0.000 OA
ENDBRANCH  30  31
ENDBRANCH  18  30
TORSDOF 7
ENDMDL
MODEL 8
REMARK VINA RESULT:      -6.2      3.399      6.798
REMARK  Name = 
REMARK  11 active torsions:
REMARK  status: ('A' for Active; 'I' for Inactive)
REMARK    1  A    between atoms: C_1  and  C_2
REMARK    2  A    between atoms: C_2  and  C_3
REMARK    3  A    between atoms: C_4  and  C_5
REMARK    4  A    between atoms: C_5  and  C_9
REMARK    5  A    between atoms: C_6  and  O_7
REMARK    6  A    between atoms: O_7  and  C_8
REMARK    7  A    between atoms: C_9  and  O_11
REMARK    8  A    between atoms: O_11  and  C_12
REMARK    9  A    between atoms: C_28  and  C_29
REMARK   10  A    between atoms: C_29  and  C_30
REMARK   11  A    between atoms: C_30  and  C_31
REMARK                            x       y       z     vdW  Elec       q    Type
REMARK                         _______ _______ _______ _____ _____    ______ ____
ROOT
ATOM      1  C   UNL     1      -6.160  12.143  18.375  0.00  0.00    +0.000 C 
ATOM      2  C   UNL     1      -4.730  11.703  18.861  0.00  0.00    +0.000 C 
ATOM      3  C   UNL     1      -4.235  12.572  20.016  0.00  0.00    +0.000 C 
ATOM      4  C   UNL     1      -5.330  12.764  21.082  0.00  0.00    +0.000 C 
ATOM      5  N   UNL     1      -6.557  13.336  20.534  0.00  0.00    +0.000 NA
ATOM      6  C   UNL     1      -7.089  14.373  21.407  0.00  0.00    +0.000 C 
ATOM      7  C   UNL     1      -5.993  14.743  22.397  0.00  0.00    +0.000 C 
ATOM      8  C   UNL     1      -4.955  13.628  22.314  0.00  0.00    +0.000 C 
ATOM      9  C   UNL     1      -5.005  12.752  23.596  0.00  0.00    +0.000 C 
ATOM     10  O   UNL     1      -5.980  12.186  24.069  0.00  0.00    +0.000 OA
ATOM     11  N   UNL     1      -3.724  12.706  24.127  0.00  0.00    +0.000 N 
ATOM     12  C   UNL     1      -2.845  13.480  23.389  0.00  0.00    +0.000 A 
ATOM     13  C   UNL     1      -1.484  13.609  23.570  0.00  0.00    +0.000 A 
ATOM     14  C   UNL     1      -0.785  14.385  22.642  0.00  0.00    +0.000 A 
ATOM     15  C   UNL     1      -1.459  15.051  21.605  0.00  0.00    +0.000 A 
ATOM     16  C   UNL     1      -2.846  14.952  21.480  0.00  0.00    +0.000 A 
ATOM     17  C   UNL     1      -3.522  14.113  22.350  0.00  0.00    +0.000 A 
ATOM     18  C   UNL     1      -6.730  13.429  19.087  0.00  0.00    +0.000 C 
ATOM     19  H   UNL     1      -3.493  12.184  24.959  0.00  0.00    +0.000 HD
ENDROOT
BRANCH   1  21
ATOM     20  C   UNL     1      -6.530   9.773  19.334  0.00  0.00    +0.000 C 
ATOM     21  C   UNL     1      -7.139  10.944  18.563  0.00  0.00    +0.000 C 
ENDBRANCH   1  21
BRANCH   2  22
ATOM     22  C   UNL     1      -3.653  11.552  17.778  0.00  0.00    +0.000 C 
ATOM     23  C   UNL     1      -3.932  11.382  16.471  0.00  0.00    +0.000 C 
BRANCH  23  24
ATOM     24  O   UNL     1      -3.010  11.134  15.491  0.00  0.00    +0.000 OA
ATOM     25  C   UNL     1      -3.267   9.912  14.804  0.00  0.00    +0.000 C 
ENDBRANCH  23  24
BRANCH  22  26
ATOM     26  C   UNL     1      -2.201  11.572  18.161  0.00  0.00    +0.000 C 
ATOM     27  O   UNL     1      -1.489  12.567  18.167  0.00  0.00    +0.000 OA
BRANCH  26  28
ATOM     28  O   UNL     1      -1.783  10.327  18.507  0.00  0.00    +0.000 OA
ATOM     29  C   UNL     1      -0.422  10.014  18.185  0.00  0.00    +0.000 C 
ENDBRANCH  26  28
ENDBRANCH  22  26
ENDBRANCH   2  22
BRANCH  18  30
ATOM     30  C   UNL     1      -6.237  14.785  18.526  0.00  0.00    +0.000 C 
BRANCH  30  31
ATOM     31  C   UNL     1      -7.208  15.544  17.648  0.00  0.00    +0.000 C 
ATOM     32  C   UNL     1      -7.394  15.112  16.220  0.00  0.00    +0.000 C 
ATOM     33  O   UNL     1      -7.916  16.436  18.123  0.00  0.00    +0.000 OA
ENDBRANCH  30  31
ENDBRANCH  18  30
TORSDOF 7
ENDMDL
MODEL 9
REMARK VINA RESULT:      -6.2      0.955      1.014
REMARK  Name = 
REMARK  11 active torsions:
REMARK  status: ('A' for Active; 'I' for Inactive)
REMARK    1  A    between atoms: C_1  and  C_2
REMARK    2  A    between atoms: C_2  and  C_3
REMARK    3  A    between atoms: C_4  and  C_5
REMARK    4  A    between atoms: C_5  and  C_9
REMARK    5  A    between atoms: C_6  and  O_7
REMARK    6  A    between atoms: O_7  and  C_8
REMARK    7  A    between atoms: C_9  and  O_11
REMARK    8  A    between atoms: O_11  and  C_12
REMARK    9  A    between atoms: C_28  and  C_29
REMARK   10  A    between atoms: C_29  and  C_30
REMARK   11  A    between atoms: C_30  and  C_31
REMARK                            x       y       z     vdW  Elec       q    Type
REMARK                         _______ _______ _______ _____ _____    ______ ____
ROOT
ATOM      1  C   UNL     1       0.252  11.183  19.450  0.00  0.00    +0.000 C 
ATOM      2  C   UNL     1      -0.619  12.100  18.514  0.00  0.00    +0.000 C 
ATOM      3  C   UNL     1      -0.457  13.578  18.863  0.00  0.00    +0.000 C 
ATOM      4  C   UNL     1       1.026  13.950  19.054  0.00  0.00    +0.000 C 
ATOM      5  N   UNL     1       1.685  13.135  20.072  0.00  0.00    +0.000 NA
ATOM      6  C   UNL     1       2.523  13.951  20.937  0.00  0.00    +0.000 C 
ATOM      7  C   UNL     1       2.140  15.407  20.703  0.00  0.00    +0.000 C 
ATOM      8  C   UNL     1       1.331  15.427  19.410  0.00  0.00    +0.000 C 
ATOM      9  C   UNL     1       2.162  16.075  18.268  0.00  0.00    +0.000 C 
ATOM     10  O   UNL     1       3.278  15.752  17.890  0.00  0.00    +0.000 OA
ATOM     11  N   UNL     1       1.404  17.102  17.724  0.00  0.00    +0.000 N 
ATOM     12  C   UNL     1       0.202  17.251  18.394  0.00  0.00    +0.000 A 
ATOM     13  C   UNL     1      -0.831  18.110  18.085  0.00  0.00    +0.000 A 
ATOM     14  C   UNL     1      -1.992  18.021  18.858  0.00  0.00    +0.000 A 
ATOM     15  C   UNL     1      -2.070  17.130  19.941  0.00  0.00    +0.000 A 
ATOM     16  C   UNL     1      -0.987  16.313  20.270  0.00  0.00    +0.000 A 
ATOM     17  C   UNL     1       0.127  16.344  19.448  0.00  0.00    +0.000 A 
ATOM     18  C   UNL     1       1.011  11.951  20.599  0.00  0.00    +0.000 C 
ATOM     19  H   UNL     1       1.723  17.670  16.953  0.00  0.00    +0.000 HD
ENDROOT
BRANCH   1  21
ATOM     20  C   UNL     1       1.546   8.979  19.074  0.00  0.00    +0.000 C 
ATOM     21  C   UNL     1       1.267  10.394  18.567  0.00  0.00    +0.000 C 
ENDBRANCH   1  21
BRANCH   2  22
ATOM     22  C   UNL     1      -2.100  11.723  18.371  0.00  0.00    +0.000 C 
ATOM     23  C   UNL     1      -3.085  12.289  19.094  0.00  0.00    +0.000 C 
BRANCH  23  24
ATOM     24  O   UNL     1      -4.399  11.907  19.078  0.00  0.00    +0.000 OA
ATOM     25  C   UNL     1      -5.221  12.763  19.867  0.00  0.00    +0.000 C 
ENDBRANCH  23  24
BRANCH  22  26
ATOM     26  C   UNL     1      -2.508  10.657  17.395  0.00  0.00    +0.000 C 
ATOM     27  O   UNL     1      -2.913   9.543  17.699  0.00  0.00    +0.000 OA
BRANCH  26  28
ATOM     28  O   UNL     1      -2.369  11.101  16.119  0.00  0.00    +0.000 OA
ATOM     29  C   UNL     1      -3.491  10.876  15.256  0.00  0.00    +0.000 C 
ENDBRANCH  26  28
ENDBRANCH  22  26
ENDBRANCH   2  22
BRANCH  18  30
ATOM     30  C   UNL     1       0.177  12.269  21.864  0.00  0.00    +0.000 C 
BRANCH  30  31
ATOM     31  C   UNL     1      -0.813  11.212  22.302  0.00  0.00    +0.000 C 
ATOM     32  C   UNL     1      -0.299   9.900  22.828  0.00  0.00    +0.000 C 
ATOM     33  O   UNL     1      -2.022  11.459  22.329  0.00  0.00    +0.000 OA
ENDBRANCH  30  31
ENDBRANCH  18  30
TORSDOF 7
ENDMDL
