MODEL 1
REMARK VINA RESULT:     -10.0      0.000      0.000
REMARK  Name = 
REMARK  6 active torsions:
REMARK  status: ('A' for Active; 'I' for Inactive)
REMARK    1  A    between atoms: C_1  and  C_2
REMARK    2  A    between atoms: C_4  and  N_5
REMARK    3  A    between atoms: C_10  and  C_11
REMARK    4  A    between atoms: N_13  and  C_14
REMARK    5  A    between atoms: C_21  and  C_22
REMARK    6  A    between atoms: C_27  and  N_28
REMARK                            x       y       z     vdW  Elec       q    Type
REMARK                         _______ _______ _______ _____ _____    ______ ____
ROOT
ATOM      1  C   UNL     1       0.995   8.905  22.319  0.00  0.00    +0.000 C 
ATOM      2  C   UNL     1       1.035   9.330  20.882  0.00  0.00    +0.000 A 
ATOM      3  C   UNL     1       0.484  10.562  20.487  0.00  0.00    +0.000 A 
ATOM      4  C   UNL     1       0.416  11.008  19.160  0.00  0.00    +0.000 A 
ATOM      5  C   UNL     1       1.036  10.226  18.180  0.00  0.00    +0.000 A 
ATOM      6  C   UNL     1       1.642   9.004  18.531  0.00  0.00    +0.000 A 
ATOM      7  C   UNL     1       2.350   8.023  17.797  0.00  0.00    +0.000 A 
ATOM      8  C   UNL     1       2.641   6.965  18.642  0.00  0.00    +0.000 A 
ATOM      9  N   UNL     1       2.239   7.356  19.898  0.00  0.00    +0.000 N 
ATOM     10  C   UNL     1       1.607   8.576  19.855  0.00  0.00    +0.000 A 
ATOM     11  H   UNL     1       2.382   6.803  20.731  0.00  0.00    +0.000 HD
ENDROOT
BRANCH   4  12
ATOM     12  N   UNL     1      -0.198  12.220  18.784  0.00  0.00    +0.000 N 
ATOM     13  C   UNL     1       0.365  13.501  18.741  0.00  0.00    +0.000 A 
ATOM     14  N   UNL     1      -0.469  14.539  18.884  0.00  0.00    +0.000 NA
ATOM     15  C   UNL     1       0.095  15.759  18.997  0.00  0.00    +0.000 A 
ATOM     16  C   UNL     1       1.451  15.985  18.978  0.00  0.00    +0.000 A 
ATOM     17  C   UNL     1       2.222  14.868  18.790  0.00  0.00    +0.000 A 
ATOM     18  N   UNL     1       1.688  13.645  18.648  0.00  0.00    +0.000 NA
ATOM     19  H   UNL     1      -1.171  12.319  19.040  0.00  0.00    +0.000 HD
BRANCH  17  20
ATOM     20  C   UNL     1       3.675  14.915  18.786  0.00  0.00    +0.000 A 
ATOM     21  C   UNL     1       4.473  14.870  19.912  0.00  0.00    +0.000 A 
ATOM     22  N   UNL     1       5.751  14.995  19.460  0.00  0.00    +0.000 N 
ATOM     23  C   UNL     1       6.940  15.019  20.271  0.00  0.00    +0.000 C 
ATOM     24  C   UNL     1       5.699  15.095  18.100  0.00  0.00    +0.000 A 
ATOM     25  N   UNL     1       4.461  15.050  17.656  0.00  0.00    +0.000 NA
ENDBRANCH  17  20
ENDBRANCH   4  12
BRANCH   8  26
ATOM     26  C   UNL     1       3.292   5.697  18.414  0.00  0.00    +0.000 C 
ATOM     27  O   UNL     1       2.713   4.647  18.695  0.00  0.00    +0.000 OA
ATOM     28  N   UNL     1       4.585   5.699  17.869  0.00  0.00    +0.000 N 
ATOM     29  C   UNL     1       5.198   4.386  17.696  0.00  0.00    +0.000 C 
ATOM     30  C   UNL     1       6.713   4.455  17.504  0.00  0.00    +0.000 C 
ATOM     31  C   UNL     1       7.114   5.460  16.407  0.00  0.00    +0.000 C 
ATOM     32  C   UNL     1       6.503   6.812  16.791  0.00  0.00    +0.000 C 
ATOM     33  C   UNL     1       4.987   6.704  16.876  0.00  0.00    +0.000 C 
BRANCH  31  34
ATOM     34  N   UNL     1       6.773   4.994  15.048  0.00  0.00    +0.000 N 
ATOM     35  C   UNL     1       5.703   4.046  14.817  0.00  0.00    +0.000 C 
ATOM     36  C   UNL     1       6.033   3.411  13.483  0.00  0.00    +0.000 C 
ATOM     37  C   UNL     1       6.819   4.486  12.758  0.00  0.00    +0.000 C 
ATOM     38  C   UNL     1       7.532   5.182  13.888  0.00  0.00    +0.000 C 
ATOM     39  O   UNL     1       8.551   5.838  13.757  0.00  0.00    +0.000 OA
ENDBRANCH  31  34
ENDBRANCH   8  26
TORSDOF 4
ENDMDL
MODEL 2
REMARK VINA RESULT:      -9.4      4.559     11.504
REMARK  Name = 
REMARK  6 active torsions:
REMARK  status: ('A' for Active; 'I' for Inactive)
REMARK    1  A    between atoms: C_1  and  C_2
REMARK    2  A    between atoms: C_4  and  N_5
REMARK    3  A    between atoms: C_10  and  C_11
REMARK    4  A    between atoms: N_13  and  C_14
REMARK    5  A    between atoms: C_21  and  C_22
REMARK    6  A    between atoms: C_27  and  N_28
REMARK                            x       y       z     vdW  Elec       q    Type
REMARK                         _______ _______ _______ _____ _____    ______ ____
ROOT
ATOM      1  C   UNL     1       1.819   9.713  17.651  0.00  0.00    +0.000 C 
ATOM      2  C   UNL     1       1.496   9.280  19.049  0.00  0.00    +0.000 A 
ATOM      3  C   UNL     1       1.865   8.002  19.503  0.00  0.00    +0.000 A 
ATOM      4  C   UNL     1       1.544   7.490  20.769  0.00  0.00    +0.000 A 
ATOM      5  C   UNL     1       0.913   8.349  21.675  0.00  0.00    +0.000 A 
ATOM      6  C   UNL     1       0.562   9.655  21.283  0.00  0.00    +0.000 A 
ATOM      7  C   UNL     1      -0.048  10.742  21.953  0.00  0.00    +0.000 A 
ATOM      8  C   UNL     1      -0.242  11.768  21.044  0.00  0.00    +0.000 A 
ATOM      9  N   UNL     1       0.364  11.365  19.877  0.00  0.00    +0.000 N 
ATOM     10  C   UNL     1       0.836  10.079  19.985  0.00  0.00    +0.000 A 
ATOM     11  H   UNL     1       0.432  11.944  19.051  0.00  0.00    +0.000 HD
ENDROOT
BRANCH   4  12
ATOM     12  N   UNL     1       1.873   6.182  21.178  0.00  0.00    +0.000 N 
ATOM     13  C   UNL     1       2.487   5.169  20.432  0.00  0.00    +0.000 A 
ATOM     14  N   UNL     1       2.229   3.905  20.792  0.00  0.00    +0.000 NA
ATOM     15  C   UNL     1       2.696   2.935  19.979  0.00  0.00    +0.000 A 
ATOM     16  C   UNL     1       3.402   3.173  18.824  0.00  0.00    +0.000 A 
ATOM     17  C   UNL     1       3.650   4.494  18.557  0.00  0.00    +0.000 A 
ATOM     18  N   UNL     1       3.220   5.479  19.362  0.00  0.00    +0.000 NA
ATOM     19  H   UNL     1       1.224   5.744  21.818  0.00  0.00    +0.000 HD
BRANCH  17  20
ATOM     20  C   UNL     1       4.345   4.931  17.358  0.00  0.00    +0.000 A 
ATOM     21  C   UNL     1       4.977   4.094  16.459  0.00  0.00    +0.000 A 
ATOM     22  N   UNL     1       5.536   4.914  15.528  0.00  0.00    +0.000 N 
ATOM     23  C   UNL     1       6.316   4.500  14.390  0.00  0.00    +0.000 C 
ATOM     24  C   UNL     1       5.223   6.198  15.868  0.00  0.00    +0.000 A 
ATOM     25  N   UNL     1       4.503   6.247  16.969  0.00  0.00    +0.000 NA
ENDBRANCH  17  20
ENDBRANCH   4  12
BRANCH   8  26
ATOM     26  C   UNL     1      -0.858  13.068  21.170  0.00  0.00    +0.000 C 
ATOM     27  O   UNL     1      -0.516  13.987  20.425  0.00  0.00    +0.000 OA
ATOM     28  N   UNL     1      -1.845  13.246  22.151  0.00  0.00    +0.000 N 
ATOM     29  C   UNL     1      -2.402  14.592  22.247  0.00  0.00    +0.000 C 
ATOM     30  C   UNL     1      -3.140  14.840  23.563  0.00  0.00    +0.000 C 
ATOM     31  C   UNL     1      -4.169  13.734  23.869  0.00  0.00    +0.000 C 
ATOM     32  C   UNL     1      -3.414  12.400  23.855  0.00  0.00    +0.000 C 
ATOM     33  C   UNL     1      -2.779  12.165  22.491  0.00  0.00    +0.000 C 
BRANCH  31  34
ATOM     34  N   UNL     1      -5.347  13.785  22.980  0.00  0.00    +0.000 N 
ATOM     35  C   UNL     1      -5.575  14.901  22.084  0.00  0.00    +0.000 C 
ATOM     36  C   UNL     1      -7.064  14.874  21.809  0.00  0.00    +0.000 C 
ATOM     37  C   UNL     1      -7.434  13.413  21.974  0.00  0.00    +0.000 C 
ATOM     38  C   UNL     1      -6.471  12.953  23.038  0.00  0.00    +0.000 C 
ATOM     39  O   UNL     1      -6.650  11.983  23.755  0.00  0.00    +0.000 OA
ENDBRANCH  31  34
ENDBRANCH   8  26
TORSDOF 4
ENDMDL
MODEL 3
REMARK VINA RESULT:      -9.4      1.039      1.342
REMARK  Name = 
REMARK  6 active torsions:
REMARK  status: ('A' for Active; 'I' for Inactive)
REMARK    1  A    between atoms: C_1  and  C_2
REMARK    2  A    between atoms: C_4  and  N_5
REMARK    3  A    between atoms: C_10  and  C_11
REMARK    4  A    between atoms: N_13  and  C_14
REMARK    5  A    between atoms: C_21  and  C_22
REMARK    6  A    between atoms: C_27  and  N_28
REMARK                            x       y       z     vdW  Elec       q    Type
REMARK                         _______ _______ _______ _____ _____    ______ ____
ROOT
ATOM      1  C   UNL     1       0.375   8.689  22.028  0.00  0.00    +0.000 C 
ATOM      2  C   UNL     1       0.743   9.248  20.687  0.00  0.00    +0.000 A 
ATOM      3  C   UNL     1       0.358  10.551  20.328  0.00  0.00    +0.000 A 
ATOM      4  C   UNL     1       0.600  11.128  19.073  0.00  0.00    +0.000 A 
ATOM      5  C   UNL     1       1.370  10.400  18.161  0.00  0.00    +0.000 A 
ATOM      6  C   UNL     1       1.818   9.106  18.490  0.00  0.00    +0.000 A 
ATOM      7  C   UNL     1       2.611   8.149  17.814  0.00  0.00    +0.000 A 
ATOM      8  C   UNL     1       2.655   6.995  18.576  0.00  0.00    +0.000 A 
ATOM      9  N   UNL     1       2.018   7.291  19.758  0.00  0.00    +0.000 N 
ATOM     10  C   UNL     1       1.478   8.555  19.722  0.00  0.00    +0.000 A 
ATOM     11  H   UNL     1       1.949   6.649  20.536  0.00  0.00    +0.000 HD
ENDROOT
BRANCH   4  12
ATOM     12  N   UNL     1       0.148  12.416  18.717  0.00  0.00    +0.000 N 
ATOM     13  C   UNL     1       0.570  13.652  19.219  0.00  0.00    +0.000 A 
ATOM     14  N   UNL     1      -0.307  14.663  19.164  0.00  0.00    +0.000 NA
ATOM     15  C   UNL     1       0.046  15.807  19.787  0.00  0.00    +0.000 A 
ATOM     16  C   UNL     1       1.230  15.980  20.464  0.00  0.00    +0.000 A 
ATOM     17  C   UNL     1       2.079  14.905  20.434  0.00  0.00    +0.000 A 
ATOM     18  N   UNL     1       1.765  13.764  19.799  0.00  0.00    +0.000 NA
ATOM     19  H   UNL     1      -0.835  12.491  18.493  0.00  0.00    +0.000 HD
BRANCH  17  20
ATOM     20  C   UNL     1       3.353  14.898  21.131  0.00  0.00    +0.000 A 
ATOM     21  C   UNL     1       4.571  15.216  20.562  0.00  0.00    +0.000 A 
ATOM     22  N   UNL     1       5.494  15.029  21.544  0.00  0.00    +0.000 N 
ATOM     23  C   UNL     1       6.916  15.220  21.421  0.00  0.00    +0.000 C 
ATOM     24  C   UNL     1       4.828  14.625  22.664  0.00  0.00    +0.000 A 
ATOM     25  N   UNL     1       3.532  14.536  22.453  0.00  0.00    +0.000 NA
ENDBRANCH  17  20
ENDBRANCH   4  12
BRANCH   8  26
ATOM     26  C   UNL     1       3.269   5.707  18.348  0.00  0.00    +0.000 C 
ATOM     27  O   UNL     1       2.650   4.674  18.607  0.00  0.00    +0.000 OA
ATOM     28  N   UNL     1       4.571   5.672  17.826  0.00  0.00    +0.000 N 
ATOM     29  C   UNL     1       5.143   4.341  17.651  0.00  0.00    +0.000 C 
ATOM     30  C   UNL     1       6.663   4.361  17.487  0.00  0.00    +0.000 C 
ATOM     31  C   UNL     1       7.117   5.364  16.408  0.00  0.00    +0.000 C 
ATOM     32  C   UNL     1       6.544   6.732  16.795  0.00  0.00    +0.000 C 
ATOM     33  C   UNL     1       5.024   6.672  16.851  0.00  0.00    +0.000 C 
BRANCH  31  34
ATOM     34  N   UNL     1       6.786   4.922  15.038  0.00  0.00    +0.000 N 
ATOM     35  C   UNL     1       5.739   3.954  14.785  0.00  0.00    +0.000 C 
ATOM     36  C   UNL     1       6.083   3.360  13.435  0.00  0.00    +0.000 C 
ATOM     37  C   UNL     1       6.842   4.471  12.736  0.00  0.00    +0.000 C 
ATOM     38  C   UNL     1       7.539   5.157  13.883  0.00  0.00    +0.000 C 
ATOM     39  O   UNL     1       8.542   5.841  13.766  0.00  0.00    +0.000 OA
ENDBRANCH  31  34
ENDBRANCH   8  26
TORSDOF 4
ENDMDL
MODEL 4
REMARK VINA RESULT:      -9.3      4.258     11.382
REMARK  Name = 
REMARK  6 active torsions:
REMARK  status: ('A' for Active; 'I' for Inactive)
REMARK    1  A    between atoms: C_1  and  C_2
REMARK    2  A    between atoms: C_4  and  N_5
REMARK    3  A    between atoms: C_10  and  C_11
REMARK    4  A    between atoms: N_13  and  C_14
REMARK    5  A    between atoms: C_21  and  C_22
REMARK    6  A    between atoms: C_27  and  N_28
REMARK                            x       y       z     vdW  Elec       q    Type
REMARK                         _______ _______ _______ _____ _____    ______ ____
ROOT
ATOM      1  C   UNL     1       2.552   8.831  17.450  0.00  0.00    +0.000 C 
ATOM      2  C   UNL     1       1.933   8.501  18.775  0.00  0.00    +0.000 A 
ATOM      3  C   UNL     1       2.213   7.276  19.407  0.00  0.00    +0.000 A 
ATOM      4  C   UNL     1       1.628   6.857  20.610  0.00  0.00    +0.000 A 
ATOM      5  C   UNL     1       0.798   7.763  21.279  0.00  0.00    +0.000 A 
ATOM      6  C   UNL     1       0.523   9.021  20.709  0.00  0.00    +0.000 A 
ATOM      7  C   UNL     1      -0.237  10.137  21.134  0.00  0.00    +0.000 A 
ATOM      8  C   UNL     1      -0.241  11.080  20.120  0.00  0.00    +0.000 A 
ATOM      9  N   UNL     1       0.614  10.606  19.153  0.00  0.00    +0.000 N 
ATOM     10  C   UNL     1       1.070   9.349  19.472  0.00  0.00    +0.000 A 
ATOM     11  H   UNL     1       0.854  11.118  18.316  0.00  0.00    +0.000 HD
ENDROOT
BRANCH   4  12
ATOM     12  N   UNL     1       1.878   5.597  21.192  0.00  0.00    +0.000 N 
ATOM     13  C   UNL     1       2.716   4.578  20.724  0.00  0.00    +0.000 A 
ATOM     14  N   UNL     1       2.415   3.326  21.093  0.00  0.00    +0.000 NA
ATOM     15  C   UNL     1       3.130   2.336  20.517  0.00  0.00    +0.000 A 
ATOM     16  C   UNL     1       4.123   2.544  19.590  0.00  0.00    +0.000 A 
ATOM     17  C   UNL     1       4.384   3.858  19.304  0.00  0.00    +0.000 A 
ATOM     18  N   UNL     1       3.708   4.864  19.881  0.00  0.00    +0.000 NA
ATOM     19  H   UNL     1       1.092   5.163  21.657  0.00  0.00    +0.000 HD
BRANCH  17  20
ATOM     20  C   UNL     1       5.371   4.260  18.316  0.00  0.00    +0.000 A 
ATOM     21  C   UNL     1       5.180   4.237  16.948  0.00  0.00    +0.000 A 
ATOM     22  N   UNL     1       6.363   4.636  16.407  0.00  0.00    +0.000 N 
ATOM     23  C   UNL     1       6.656   4.756  15.002  0.00  0.00    +0.000 C 
ATOM     24  C   UNL     1       7.219   4.901  17.435  0.00  0.00    +0.000 A 
ATOM     25  N   UNL     1       6.654   4.686  18.605  0.00  0.00    +0.000 NA
ENDBRANCH  17  20
ENDBRANCH   4  12
BRANCH   8  26
ATOM     26  C   UNL     1      -0.890  12.364  19.996  0.00  0.00    +0.000 C 
ATOM     27  O   UNL     1      -0.934  12.930  18.903  0.00  0.00    +0.000 OA
ATOM     28  N   UNL     1      -1.463  12.935  21.142  0.00  0.00    +0.000 N 
ATOM     29  C   UNL     1      -2.072  14.248  20.955  0.00  0.00    +0.000 C 
ATOM     30  C   UNL     1      -2.299  14.995  22.270  0.00  0.00    +0.000 C 
ATOM     31  C   UNL     1      -3.034  14.128  23.310  0.00  0.00    +0.000 C 
ATOM     32  C   UNL     1      -2.213  12.846  23.490  0.00  0.00    +0.000 C 
ATOM     33  C   UNL     1      -2.100  12.099  22.168  0.00  0.00    +0.000 C 
BRANCH  31  34
ATOM     34  N   UNL     1      -4.455  13.906  22.972  0.00  0.00    +0.000 N 
ATOM     35  C   UNL     1      -5.161  14.774  22.052  0.00  0.00    +0.000 C 
ATOM     36  C   UNL     1      -6.623  14.599  22.403  0.00  0.00    +0.000 C 
ATOM     37  C   UNL     1      -6.691  13.195  22.970  0.00  0.00    +0.000 C 
ATOM     38  C   UNL     1      -5.343  13.046  23.627  0.00  0.00    +0.000 C 
ATOM     39  O   UNL     1      -5.098  12.256  24.523  0.00  0.00    +0.000 OA
ENDBRANCH  31  34
ENDBRANCH   8  26
TORSDOF 4
ENDMDL
MODEL 5
REMARK VINA RESULT:      -9.2      4.575     11.296
REMARK  Name = 
REMARK  6 active torsions:
REMARK  status: ('A' for Active; 'I' for Inactive)
REMARK    1  A    between atoms: C_1  and  C_2
REMARK    2  A    between atoms: C_4  and  N_5
REMARK    3  A    between atoms: C_10  and  C_11
REMARK    4  A    between atoms: N_13  and  C_14
REMARK    5  A    between atoms: C_21  and  C_22
REMARK    6  A    between atoms: C_27  and  N_28
REMARK                            x       y       z     vdW  Elec       q    Type
REMARK                         _______ _______ _______ _____ _____    ______ ____
ROOT
ATOM      1  C   UNL     1       1.967   9.914  17.924  0.00  0.00    +0.000 C 
ATOM      2  C   UNL     1       1.531   9.276  19.208  0.00  0.00    +0.000 A 
ATOM      3  C   UNL     1       1.686   7.892  19.405  0.00  0.00    +0.000 A 
ATOM      4  C   UNL     1       1.246   7.203  20.544  0.00  0.00    +0.000 A 
ATOM      5  C   UNL     1       0.718   7.957  21.596  0.00  0.00    +0.000 A 
ATOM      6  C   UNL     1       0.582   9.353  21.465  0.00  0.00    +0.000 A 
ATOM      7  C   UNL     1       0.118  10.372  22.331  0.00  0.00    +0.000 A 
ATOM      8  C   UNL     1       0.115  11.571  21.640  0.00  0.00    +0.000 A 
ATOM      9  N   UNL     1       0.696  11.312  20.421  0.00  0.00    +0.000 N 
ATOM     10  C   UNL     1       0.964   9.972  20.278  0.00  0.00    +0.000 A 
ATOM     11  H   UNL     1       0.880  12.021  19.724  0.00  0.00    +0.000 HD
ENDROOT
BRANCH   4  12
ATOM     12  N   UNL     1       1.358   5.805  20.690  0.00  0.00    +0.000 N 
ATOM     13  C   UNL     1       2.389   4.967  20.250  0.00  0.00    +0.000 A 
ATOM     14  N   UNL     1       2.074   3.688  20.008  0.00  0.00    +0.000 NA
ATOM     15  C   UNL     1       3.031   2.925  19.438  0.00  0.00    +0.000 A 
ATOM     16  C   UNL     1       4.280   3.385  19.099  0.00  0.00    +0.000 A 
ATOM     17  C   UNL     1       4.524   4.695  19.419  0.00  0.00    +0.000 A 
ATOM     18  N   UNL     1       3.600   5.471  20.009  0.00  0.00    +0.000 NA
ATOM     19  H   UNL     1       0.492   5.285  20.635  0.00  0.00    +0.000 HD
BRANCH  17  20
ATOM     20  C   UNL     1       5.775   5.358  19.094  0.00  0.00    +0.000 A 
ATOM     21  C   UNL     1       5.934   6.315  18.111  0.00  0.00    +0.000 A 
ATOM     22  N   UNL     1       7.260   6.622  18.110  0.00  0.00    +0.000 N 
ATOM     23  C   UNL     1       7.913   7.566  17.240  0.00  0.00    +0.000 C 
ATOM     24  C   UNL     1       7.858   5.871  19.080  0.00  0.00    +0.000 A 
ATOM     25  N   UNL     1       6.991   5.096  19.697  0.00  0.00    +0.000 NA
ENDBRANCH  17  20
ENDBRANCH   4  12
BRANCH   8  26
ATOM     26  C   UNL     1      -0.303  12.902  22.014  0.00  0.00    +0.000 C 
ATOM     27  O   UNL     1       0.325  13.882  21.611  0.00  0.00    +0.000 OA
ATOM     28  N   UNL     1      -1.432  13.041  22.836  0.00  0.00    +0.000 N 
ATOM     29  C   UNL     1      -1.779  14.410  23.203  0.00  0.00    +0.000 C 
ATOM     30  C   UNL     1      -2.726  14.484  24.402  0.00  0.00    +0.000 C 
ATOM     31  C   UNL     1      -3.956  13.572  24.227  0.00  0.00    +0.000 C 
ATOM     32  C   UNL     1      -3.433  12.155  23.972  0.00  0.00    +0.000 C 
ATOM     33  C   UNL     1      -2.574  12.125  22.716  0.00  0.00    +0.000 C 
BRANCH  31  34
ATOM     34  N   UNL     1      -4.901  14.072  23.209  0.00  0.00    +0.000 N 
ATOM     35  C   UNL     1      -4.906  15.460  22.793  0.00  0.00    +0.000 C 
ATOM     36  C   UNL     1      -6.293  15.689  22.232  0.00  0.00    +0.000 C 
ATOM     37  C   UNL     1      -6.711  14.319  21.736  0.00  0.00    +0.000 C 
ATOM     38  C   UNL     1      -6.021  13.398  22.709  0.00  0.00    +0.000 C 
ATOM     39  O   UNL     1      -6.371  12.253  22.938  0.00  0.00    +0.000 OA
ENDBRANCH  31  34
ENDBRANCH   8  26
TORSDOF 4
ENDMDL
MODEL 6
REMARK VINA RESULT:      -9.0      3.313     10.308
REMARK  Name = 
REMARK  6 active torsions:
REMARK  status: ('A' for Active; 'I' for Inactive)
REMARK    1  A    between atoms: C_1  and  C_2
REMARK    2  A    between atoms: C_4  and  N_5
REMARK    3  A    between atoms: C_10  and  C_11
REMARK    4  A    between atoms: N_13  and  C_14
REMARK    5  A    between atoms: C_21  and  C_22
REMARK    6  A    between atoms: C_27  and  N_28
REMARK                            x       y       z     vdW  Elec       q    Type
REMARK                         _______ _______ _______ _____ _____    ______ ____
ROOT
ATOM      1  C   UNL     1       2.418   8.887  17.397  0.00  0.00    +0.000 C 
ATOM      2  C   UNL     1       1.913   8.574  18.774  0.00  0.00    +0.000 A 
ATOM      3  C   UNL     1       2.181   7.326  19.365  0.00  0.00    +0.000 A 
ATOM      4  C   UNL     1       1.692   6.924  20.616  0.00  0.00    +0.000 A 
ATOM      5  C   UNL     1       0.986   7.866  21.371  0.00  0.00    +0.000 A 
ATOM      6  C   UNL     1       0.730   9.146  20.841  0.00  0.00    +0.000 A 
ATOM      7  C   UNL     1       0.080  10.297  21.348  0.00  0.00    +0.000 A 
ATOM      8  C   UNL     1       0.033  11.253  20.347  0.00  0.00    +0.000 A 
ATOM      9  N   UNL     1       0.761  10.745  19.297  0.00  0.00    +0.000 N 
ATOM     10  C   UNL     1       1.172   9.460  19.559  0.00  0.00    +0.000 A 
ATOM     11  H   UNL     1       0.947  11.254  18.445  0.00  0.00    +0.000 HD
ENDROOT
BRANCH   4  12
ATOM     12  N   UNL     1       1.924   5.644  21.159  0.00  0.00    +0.000 N 
ATOM     13  C   UNL     1       2.766   4.636  20.674  0.00  0.00    +0.000 A 
ATOM     14  N   UNL     1       2.452   3.374  20.995  0.00  0.00    +0.000 NA
ATOM     15  C   UNL     1       3.172   2.400  20.399  0.00  0.00    +0.000 A 
ATOM     16  C   UNL     1       4.184   2.633  19.499  0.00  0.00    +0.000 A 
ATOM     17  C   UNL     1       4.458   3.954  19.263  0.00  0.00    +0.000 A 
ATOM     18  N   UNL     1       3.776   4.945  19.861  0.00  0.00    +0.000 NA
ATOM     19  H   UNL     1       1.127   5.199  21.594  0.00  0.00    +0.000 HD
BRANCH  17  20
ATOM     20  C   UNL     1       5.467   4.383  18.309  0.00  0.00    +0.000 A 
ATOM     21  C   UNL     1       5.317   4.368  16.936  0.00  0.00    +0.000 A 
ATOM     22  N   UNL     1       6.508   4.795  16.433  0.00  0.00    +0.000 N 
ATOM     23  C   UNL     1       6.841   4.932  15.040  0.00  0.00    +0.000 C 
ATOM     24  C   UNL     1       7.327   5.067  17.490  0.00  0.00    +0.000 A 
ATOM     25  N   UNL     1       6.732   4.831  18.640  0.00  0.00    +0.000 NA
ENDBRANCH  17  20
ENDBRANCH   4  12
BRANCH   8  26
ATOM     26  C   UNL     1      -0.550  12.573  20.299  0.00  0.00    +0.000 C 
ATOM     27  O   UNL     1      -1.648  12.783  20.815  0.00  0.00    +0.000 OA
ATOM     28  N   UNL     1       0.167  13.595  19.657  0.00  0.00    +0.000 N 
ATOM     29  C   UNL     1      -0.493  14.896  19.614  0.00  0.00    +0.000 C 
ATOM     30  C   UNL     1       0.111  15.838  18.572  0.00  0.00    +0.000 C 
ATOM     31  C   UNL     1       1.644  15.939  18.700  0.00  0.00    +0.000 C 
ATOM     32  C   UNL     1       2.198  14.513  18.603  0.00  0.00    +0.000 C 
ATOM     33  C   UNL     1       1.633  13.648  19.720  0.00  0.00    +0.000 C 
BRANCH  31  34
ATOM     34  N   UNL     1       2.072  16.686  19.899  0.00  0.00    +0.000 N 
ATOM     35  C   UNL     1       1.130  17.068  20.932  0.00  0.00    +0.000 C 
ATOM     36  C   UNL     1       1.784  18.240  21.634  0.00  0.00    +0.000 C 
ATOM     37  C   UNL     1       3.267  17.994  21.437  0.00  0.00    +0.000 C 
ATOM     38  C   UNL     1       3.307  17.314  20.093  0.00  0.00    +0.000 C 
ATOM     39  O   UNL     1       4.286  17.284  19.366  0.00  0.00    +0.000 OA
ENDBRANCH  31  34
ENDBRANCH   8  26
TORSDOF 4
ENDMDL
MODEL 7
REMARK VINA RESULT:      -8.9      4.918     11.437
REMARK  Name = 
REMARK  6 active torsions:
REMARK  status: ('A' for Active; 'I' for Inactive)
REMARK    1  A    between atoms: C_1  and  C_2
REMARK    2  A    between atoms: C_4  and  N_5
REMARK    3  A    between atoms: C_10  and  C_11
REMARK    4  A    between atoms: N_13  and  C_14
REMARK    5  A    between atoms: C_21  and  C_22
REMARK    6  A    between atoms: C_27  and  N_28
REMARK                            x       y       z     vdW  Elec       q    Type
REMARK                         _______ _______ _______ _____ _____    ______ ____
ROOT
ATOM      1  C   UNL     1       0.753   8.799  22.319  0.00  0.00    +0.000 C 
ATOM      2  C   UNL     1       0.753   9.350  20.925  0.00  0.00    +0.000 A 
ATOM      3  C   UNL     1       1.574   8.783  19.934  0.00  0.00    +0.000 A 
ATOM      4  C   UNL     1       1.687   9.276  18.626  0.00  0.00    +0.000 A 
ATOM      5  C   UNL     1       0.847  10.330  18.254  0.00  0.00    +0.000 A 
ATOM      6  C   UNL     1      -0.026  10.903  19.198  0.00  0.00    +0.000 A 
ATOM      7  C   UNL     1      -0.990  11.938  19.131  0.00  0.00    +0.000 A 
ATOM      8  C   UNL     1      -1.494  12.154  20.402  0.00  0.00    +0.000 A 
ATOM      9  N   UNL     1      -0.949  11.178  21.202  0.00  0.00    +0.000 N 
ATOM     10  C   UNL     1      -0.037  10.423  20.505  0.00  0.00    +0.000 A 
ATOM     11  H   UNL     1      -1.186  11.053  22.177  0.00  0.00    +0.000 HD
ENDROOT
BRANCH   4  12
ATOM     12  N   UNL     1       2.564   8.727  17.668  0.00  0.00    +0.000 N 
ATOM     13  C   UNL     1       3.057   7.419  17.593  0.00  0.00    +0.000 A 
ATOM     14  N   UNL     1       4.234   7.245  16.978  0.00  0.00    +0.000 NA
ATOM     15  C   UNL     1       4.777   6.011  17.044  0.00  0.00    +0.000 A 
ATOM     16  C   UNL     1       4.198   4.951  17.699  0.00  0.00    +0.000 A 
ATOM     17  C   UNL     1       2.978   5.213  18.265  0.00  0.00    +0.000 A 
ATOM     18  N   UNL     1       2.402   6.424  18.193  0.00  0.00    +0.000 NA
ATOM     19  H   UNL     1       3.283   9.348  17.322  0.00  0.00    +0.000 HD
BRANCH  17  20
ATOM     20  C   UNL     1       2.245   4.221  19.032  0.00  0.00    +0.000 A 
ATOM     21  C   UNL     1       2.375   4.013  20.392  0.00  0.00    +0.000 A 
ATOM     22  N   UNL     1       1.555   2.967  20.682  0.00  0.00    +0.000 N 
ATOM     23  C   UNL     1       1.364   2.373  21.980  0.00  0.00    +0.000 C 
ATOM     24  C   UNL     1       0.949   2.583  19.522  0.00  0.00    +0.000 A 
ATOM     25  N   UNL     1       1.340   3.320  18.503  0.00  0.00    +0.000 NA
ENDBRANCH  17  20
ENDBRANCH   4  12
BRANCH   8  26
ATOM     26  C   UNL     1      -2.450  13.108  20.914  0.00  0.00    +0.000 C 
ATOM     27  O   UNL     1      -2.069  14.057  21.600  0.00  0.00    +0.000 OA
ATOM     28  N   UNL     1      -3.807  12.924  20.605  0.00  0.00    +0.000 N 
ATOM     29  C   UNL     1      -4.722  13.904  21.181  0.00  0.00    +0.000 C 
ATOM     30  C   UNL     1      -6.179  13.438  21.172  0.00  0.00    +0.000 C 
ATOM     31  C   UNL     1      -6.620  12.939  19.782  0.00  0.00    +0.000 C 
ATOM     32  C   UNL     1      -5.641  11.834  19.369  0.00  0.00    +0.000 C 
ATOM     33  C   UNL     1      -4.222  12.380  19.306  0.00  0.00    +0.000 C 
BRANCH  31  34
ATOM     34  N   UNL     1      -6.766  14.031  18.800  0.00  0.00    +0.000 N 
ATOM     35  C   UNL     1      -6.959  15.406  19.215  0.00  0.00    +0.000 C 
ATOM     36  C   UNL     1      -7.615  16.078  18.028  0.00  0.00    +0.000 C 
ATOM     37  C   UNL     1      -7.120  15.274  16.841  0.00  0.00    +0.000 C 
ATOM     38  C   UNL     1      -6.978  13.892  17.424  0.00  0.00    +0.000 C 
ATOM     39  O   UNL     1      -6.985  12.865  16.766  0.00  0.00    +0.000 OA
ENDBRANCH  31  34
ENDBRANCH   8  26
TORSDOF 4
ENDMDL
MODEL 8
REMARK VINA RESULT:      -8.9      4.227     11.204
REMARK  Name = 
REMARK  6 active torsions:
REMARK  status: ('A' for Active; 'I' for Inactive)
REMARK    1  A    between atoms: C_1  and  C_2
REMARK    2  A    between atoms: C_4  and  N_5
REMARK    3  A    between atoms: C_10  and  C_11
REMARK    4  A    between atoms: N_13  and  C_14
REMARK    5  A    between atoms: C_21  and  C_22
REMARK    6  A    between atoms: C_27  and  N_28
REMARK                            x       y       z     vdW  Elec       q    Type
REMARK                         _______ _______ _______ _____ _____    ______ ____
ROOT
ATOM      1  C   UNL     1       2.316   8.885  17.462  0.00  0.00    +0.000 C 
ATOM      2  C   UNL     1       1.923   8.508  18.858  0.00  0.00    +0.000 A 
ATOM      3  C   UNL     1       2.085   7.188  19.314  0.00  0.00    +0.000 A 
ATOM      4  C   UNL     1       1.684   6.734  20.578  0.00  0.00    +0.000 A 
ATOM      5  C   UNL     1       1.192   7.681  21.482  0.00  0.00    +0.000 A 
ATOM      6  C   UNL     1       1.053   9.026  21.089  0.00  0.00    +0.000 A 
ATOM      7  C   UNL     1       0.619  10.196  21.758  0.00  0.00    +0.000 A 
ATOM      8  C   UNL     1       0.592  11.239  20.848  0.00  0.00    +0.000 A 
ATOM      9  N   UNL     1       1.131  10.746  19.683  0.00  0.00    +0.000 N 
ATOM     10  C   UNL     1       1.394   9.402  19.793  0.00  0.00    +0.000 A 
ATOM     11  H   UNL     1       1.292  11.306  18.858  0.00  0.00    +0.000 HD
ENDROOT
BRANCH   4  12
ATOM     12  N   UNL     1       1.801   5.390  20.987  0.00  0.00    +0.000 N 
ATOM     13  C   UNL     1       2.600   4.382  20.436  0.00  0.00    +0.000 A 
ATOM     14  N   UNL     1       2.187   3.118  20.599  0.00  0.00    +0.000 NA
ATOM     15  C   UNL     1       2.874   2.165  19.936  0.00  0.00    +0.000 A 
ATOM     16  C   UNL     1       3.948   2.420  19.118  0.00  0.00    +0.000 A 
ATOM     17  C   UNL     1       4.321   3.736  19.042  0.00  0.00    +0.000 A 
ATOM     18  N   UNL     1       3.672   4.703  19.711  0.00  0.00    +0.000 NA
ATOM     19  H   UNL     1       0.953   4.959  21.331  0.00  0.00    +0.000 HD
BRANCH  17  20
ATOM     20  C   UNL     1       5.407   4.191  18.191  0.00  0.00    +0.000 A 
ATOM     21  C   UNL     1       5.335   4.332  16.819  0.00  0.00    +0.000 A 
ATOM     22  N   UNL     1       6.577   4.725  16.425  0.00  0.00    +0.000 N 
ATOM     23  C   UNL     1       6.996   4.985  15.073  0.00  0.00    +0.000 C 
ATOM     24  C   UNL     1       7.351   4.825  17.544  0.00  0.00    +0.000 A 
ATOM     25  N   UNL     1       6.678   4.512  18.631  0.00  0.00    +0.000 NA
ENDBRANCH  17  20
ENDBRANCH   4  12
BRANCH   8  26
ATOM     26  C   UNL     1       0.188  12.620  20.973  0.00  0.00    +0.000 C 
ATOM     27  O   UNL     1       0.748  13.489  20.303  0.00  0.00    +0.000 OA
ATOM     28  N   UNL     1      -0.849  12.934  21.864  0.00  0.00    +0.000 N 
ATOM     29  C   UNL     1      -1.185  14.351  21.967  0.00  0.00    +0.000 C 
ATOM     30  C   UNL     1      -1.999  14.682  23.217  0.00  0.00    +0.000 C 
ATOM     31  C   UNL     1      -3.221  13.756  23.378  0.00  0.00    +0.000 C 
ATOM     32  C   UNL     1      -2.697  12.316  23.376  0.00  0.00    +0.000 C 
ATOM     33  C   UNL     1      -1.977  12.015  22.069  0.00  0.00    +0.000 C 
BRANCH  31  34
ATOM     34  N   UNL     1      -4.280  14.027  22.386  0.00  0.00    +0.000 N 
ATOM     35  C   UNL     1      -4.749  13.002  21.476  0.00  0.00    +0.000 C 
ATOM     36  C   UNL     1      -5.352  13.765  20.315  0.00  0.00    +0.000 C 
ATOM     37  C   UNL     1      -5.805  15.070  20.939  0.00  0.00    +0.000 C 
ATOM     38  C   UNL     1      -4.781  15.283  22.024  0.00  0.00    +0.000 C 
ATOM     39  O   UNL     1      -4.517  16.366  22.516  0.00  0.00    +0.000 OA
ENDBRANCH  31  34
ENDBRANCH   8  26
TORSDOF 4
ENDMDL
MODEL 9
REMARK VINA RESULT:      -8.8      4.016     11.205
REMARK  Name = 
REMARK  6 active torsions:
REMARK  status: ('A' for Active; 'I' for Inactive)
REMARK    1  A    between atoms: C_1  and  C_2
REMARK    2  A    between atoms: C_4  and  N_5
REMARK    3  A    between atoms: C_10  and  C_11
REMARK    4  A    between atoms: N_13  and  C_14
REMARK    5  A    between atoms: C_21  and  C_22
REMARK    6  A    between atoms: C_27  and  N_28
REMARK                            x       y       z     vdW  Elec       q    Type
REMARK                         _______ _______ _______ _____ _____    ______ ____
ROOT
ATOM      1  C   UNL     1       2.575   8.879  17.450  0.00  0.00    +0.000 C 
ATOM      2  C   UNL     1       1.906   8.521  18.743  0.00  0.00    +0.000 A 
ATOM      3  C   UNL     1       2.238   7.331  19.412  0.00  0.00    +0.000 A 
ATOM      4  C   UNL     1       1.616   6.886  20.587  0.00  0.00    +0.000 A 
ATOM      5  C   UNL     1       0.683   7.736  21.190  0.00  0.00    +0.000 A 
ATOM      6  C   UNL     1       0.348   8.961  20.582  0.00  0.00    +0.000 A 
ATOM      7  C   UNL     1      -0.517  10.022  20.941  0.00  0.00    +0.000 A 
ATOM      8  C   UNL     1      -0.531  10.947  19.911  0.00  0.00    +0.000 A 
ATOM      9  N   UNL     1       0.413  10.526  19.004  0.00  0.00    +0.000 N 
ATOM     10  C   UNL     1       0.942   9.312  19.372  0.00  0.00    +0.000 A 
ATOM     11  H   UNL     1       0.663  11.043  18.173  0.00  0.00    +0.000 HD
ENDROOT
BRANCH   4  12
ATOM     12  N   UNL     1       1.925   5.657  21.206  0.00  0.00    +0.000 N 
ATOM     13  C   UNL     1       2.739   4.625  20.725  0.00  0.00    +0.000 A 
ATOM     14  N   UNL     1       2.483   3.389  21.172  0.00  0.00    +0.000 NA
ATOM     15  C   UNL     1       3.166   2.380  20.590  0.00  0.00    +0.000 A 
ATOM     16  C   UNL     1       4.086   2.554  19.584  0.00  0.00    +0.000 A 
ATOM     17  C   UNL     1       4.308   3.856  19.220  0.00  0.00    +0.000 A 
ATOM     18  N   UNL     1       3.663   4.881  19.798  0.00  0.00    +0.000 NA
ATOM     19  H   UNL     1       1.181   5.237  21.747  0.00  0.00    +0.000 HD
BRANCH  17  20
ATOM     20  C   UNL     1       5.215   4.221  18.144  0.00  0.00    +0.000 A 
ATOM     21  C   UNL     1       4.882   4.259  16.804  0.00  0.00    +0.000 A 
ATOM     22  N   UNL     1       6.028   4.593  16.151  0.00  0.00    +0.000 N 
ATOM     23  C   UNL     1       6.183   4.741  14.728  0.00  0.00    +0.000 C 
ATOM     24  C   UNL     1       7.004   4.760  17.091  0.00  0.00    +0.000 A 
ATOM     25  N   UNL     1       6.549   4.545  18.307  0.00  0.00    +0.000 NA
ENDBRANCH  17  20
ENDBRANCH   4  12
BRANCH   8  26
ATOM     26  C   UNL     1      -1.266  12.176  19.726  0.00  0.00    +0.000 C 
ATOM     27  O   UNL     1      -2.191  12.226  18.914  0.00  0.00    +0.000 OA
ATOM     28  N   UNL     1      -0.900  13.294  20.491  0.00  0.00    +0.000 N 
ATOM     29  C   UNL     1      -1.660  14.513  20.230  0.00  0.00    +0.000 C 
ATOM     30  C   UNL     1      -0.971  15.771  20.760  0.00  0.00    +0.000 C 
ATOM     31  C   UNL     1      -0.548  15.624  22.234  0.00  0.00    +0.000 C 
ATOM     32  C   UNL     1       0.341  14.378  22.325  0.00  0.00    +0.000 C 
ATOM     33  C   UNL     1      -0.427  13.145  21.873  0.00  0.00    +0.000 C 
BRANCH  31  34
ATOM     34  N   UNL     1      -1.695  15.631  23.165  0.00  0.00    +0.000 N 
ATOM     35  C   UNL     1      -3.017  16.041  22.737  0.00  0.00    +0.000 C 
ATOM     36  C   UNL     1      -3.722  16.454  24.011  0.00  0.00    +0.000 C 
ATOM     37  C   UNL     1      -3.046  15.622  25.083  0.00  0.00    +0.000 C 
ATOM     38  C   UNL     1      -1.639  15.498  24.556  0.00  0.00    +0.000 C 
ATOM     39  O   UNL     1      -0.665  15.256  25.249  0.00  0.00    +0.000 OA
ENDBRANCH  31  34
ENDBRANCH   8  26
TORSDOF 4
ENDMDL
