MODEL 1
REMARK VINA RESULT:      -4.0      0.000      0.000
REMARK  Name = 
REMARK  7 active torsions:
REMARK  status: ('A' for Active; 'I' for Inactive)
REMARK    1  A    between atoms: C_1  and  S_2
REMARK    2  A    between atoms: S_2  and  C_3
REMARK    3  A    between atoms: C_3  and  C_4
REMARK    4  A    between atoms: C_4  and  C_5
REMARK    5  A    between atoms: C_5  and  N_6
REMARK    6  A    between atoms: C_5  and  P_7
REMARK    7  A    between atoms: P_7  and  O_9
REMARK                            x       y       z     vdW  Elec       q    Type
REMARK                         _______ _______ _______ _____ _____    ______ ____
ROOT
ATOM      1  C   UNL     1       6.415   5.707  17.028  0.00  0.00    +0.000 C 
ENDROOT
BRANCH   1   2
ATOM      2  N   UNL     1       7.435   6.361  16.185  0.00  0.00    +0.000 NA
ATOM      3  H   UNL     1       7.286   6.035  15.226  0.00  0.00    +0.000 HD
ATOM      4  H   UNL     1       8.369   6.057  16.457  0.00  0.00    +0.000 HD
ENDBRANCH   1   2
BRANCH   1   5
ATOM      5  P   UNL     1       7.186   5.629  18.686  0.00  0.00    +0.000 P 
ATOM      6  O   UNL     1       8.001   4.373  18.323  0.00  0.00    +0.000 OA
ATOM      7  H   UNL     1       7.796   6.891  18.529  0.00  0.00    +0.000 HD
BRANCH   5   8
ATOM      8  O   UNL     1       7.914   5.555  20.254  0.00  0.00    +0.000 OA
ATOM      9  H   UNL     1       7.397   4.869  20.730  0.00  0.00    +0.000 HD
ENDBRANCH   5   8
ENDBRANCH   1   5
BRANCH   1  10
ATOM     10  C   UNL     1       5.061   6.430  17.041  0.00  0.00    +0.000 C 
BRANCH  10  11
ATOM     11  C   UNL     1       3.941   5.705  17.788  0.00  0.00    +0.000 C 
BRANCH  11  13
ATOM     12  C   UNL     1       4.195   3.155  18.803  0.00  0.00    +0.000 C 
ATOM     13  S   UNL     1       3.830   3.969  17.242  0.00  0.00    +0.000 S 
ENDBRANCH  11  13
ENDBRANCH  10  11
ENDBRANCH   1  10
TORSDOF 6
ENDMDL
MODEL 2
REMARK VINA RESULT:      -4.0      2.469      2.925
REMARK  Name = 
REMARK  7 active torsions:
REMARK  status: ('A' for Active; 'I' for Inactive)
REMARK    1  A    between atoms: C_1  and  S_2
REMARK    2  A    between atoms: S_2  and  C_3
REMARK    3  A    between atoms: C_3  and  C_4
REMARK    4  A    between atoms: C_4  and  C_5
REMARK    5  A    between atoms: C_5  and  N_6
REMARK    6  A    between atoms: C_5  and  P_7
REMARK    7  A    between atoms: P_7  and  O_9
REMARK                            x       y       z     vdW  Elec       q    Type
REMARK                         _______ _______ _______ _____ _____    ______ ____
ROOT
ATOM      1  C   UNL     1       5.516   4.574  17.391  0.00  0.00    +0.000 C 
ENDROOT
BRANCH   1   2
ATOM      2  N   UNL     1       6.394   4.101  18.480  0.00  0.00    +0.000 NA
ATOM      3  H   UNL     1       6.399   3.077  18.437  0.00  0.00    +0.000 HD
ATOM      4  H   UNL     1       6.005   4.355  19.386  0.00  0.00    +0.000 HD
ENDBRANCH   1   2
BRANCH   1   5
ATOM      5  P   UNL     1       6.669   4.989  16.032  0.00  0.00    +0.000 P 
ATOM      6  O   UNL     1       7.880   4.417  16.794  0.00  0.00    +0.000 OA
ATOM      7  H   UNL     1       5.993   4.150  15.121  0.00  0.00    +0.000 HD
BRANCH   5   8
ATOM      8  O   UNL     1       7.758   5.382  14.747  0.00  0.00    +0.000 OA
ATOM      9  H   UNL     1       7.637   4.657  14.096  0.00  0.00    +0.000 HD
ENDBRANCH   5   8
ENDBRANCH   1   5
BRANCH   1  10
ATOM     10  C   UNL     1       4.447   3.557  16.967  0.00  0.00    +0.000 C 
BRANCH  10  11
ATOM     11  C   UNL     1       3.025   3.871  17.436  0.00  0.00    +0.000 C 
BRANCH  11  13
ATOM     12  C   UNL     1       2.882   4.056  20.182  0.00  0.00    +0.000 C 
ATOM     13  S   UNL     1       2.591   2.849  18.882  0.00  0.00    +0.000 S 
ENDBRANCH  11  13
ENDBRANCH  10  11
ENDBRANCH   1  10
TORSDOF 6
ENDMDL
MODEL 3
REMARK VINA RESULT:      -4.0      4.971      5.409
REMARK  Name = 
REMARK  7 active torsions:
REMARK  status: ('A' for Active; 'I' for Inactive)
REMARK    1  A    between atoms: C_1  and  S_2
REMARK    2  A    between atoms: S_2  and  C_3
REMARK    3  A    between atoms: C_3  and  C_4
REMARK    4  A    between atoms: C_4  and  C_5
REMARK    5  A    between atoms: C_5  and  N_6
REMARK    6  A    between atoms: C_5  and  P_7
REMARK    7  A    between atoms: P_7  and  O_9
REMARK                            x       y       z     vdW  Elec       q    Type
REMARK                         _______ _______ _______ _____ _____    ______ ____
ROOT
ATOM      1  C   UNL     1       1.348   2.646  18.757  0.00  0.00    +0.000 C 
ENDROOT
BRANCH   1   2
ATOM      2  N   UNL     1       2.243   1.550  18.337  0.00  0.00    +0.000 NA
ATOM      3  H   UNL     1       2.892   1.941  17.647  0.00  0.00    +0.000 HD
ATOM      4  H   UNL     1       1.714   0.821  17.863  0.00  0.00    +0.000 HD
ENDBRANCH   1   2
BRANCH   1   5
ATOM      5  P   UNL     1       1.668   2.827  20.549  0.00  0.00    +0.000 P 
ATOM      6  O   UNL     1       0.963   4.196  20.606  0.00  0.00    +0.000 OA
ATOM      7  H   UNL     1       0.917   1.674  20.861  0.00  0.00    +0.000 HD
BRANCH   5   8
ATOM      8  O   UNL     1       1.970   2.997  22.244  0.00  0.00    +0.000 OA
ATOM      9  H   UNL     1       1.847   3.956  22.418  0.00  0.00    +0.000 HD
ENDBRANCH   5   8
ENDBRANCH   1   5
BRANCH   1  10
ATOM     10  C   UNL     1       1.562   3.956  17.984  0.00  0.00    +0.000 C 
BRANCH  10  11
ATOM     11  C   UNL     1       2.961   4.148  17.399  0.00  0.00    +0.000 C 
BRANCH  11  13
ATOM     12  C   UNL     1       5.089   4.253  19.147  0.00  0.00    +0.000 C 
ATOM     13  S   UNL     1       3.902   5.363  18.380  0.00  0.00    +0.000 S 
ENDBRANCH  11  13
ENDBRANCH  10  11
ENDBRANCH   1  10
TORSDOF 6
ENDMDL
MODEL 4
REMARK VINA RESULT:      -3.9      1.102      1.168
REMARK  Name = 
REMARK  7 active torsions:
REMARK  status: ('A' for Active; 'I' for Inactive)
REMARK    1  A    between atoms: C_1  and  S_2
REMARK    2  A    between atoms: S_2  and  C_3
REMARK    3  A    between atoms: C_3  and  C_4
REMARK    4  A    between atoms: C_4  and  C_5
REMARK    5  A    between atoms: C_5  and  N_6
REMARK    6  A    between atoms: C_5  and  P_7
REMARK    7  A    between atoms: P_7  and  O_9
REMARK                            x       y       z     vdW  Elec       q    Type
REMARK                         _______ _______ _______ _____ _____    ______ ____
ROOT
ATOM      1  C   UNL     1       6.566   6.060  17.376  0.00  0.00    +0.000 C 
ENDROOT
BRANCH   1   2
ATOM      2  N   UNL     1       7.194   7.324  16.945  0.00  0.00    +0.000 NA
ATOM      3  H   UNL     1       6.931   7.471  15.966  0.00  0.00    +0.000 HD
ATOM      4  H   UNL     1       8.209   7.243  16.968  0.00  0.00    +0.000 HD
ENDBRANCH   1   2
BRANCH   1   5
ATOM      5  P   UNL     1       7.356   5.692  18.985  0.00  0.00    +0.000 P 
ATOM      6  O   UNL     1       8.095   4.464  18.418  0.00  0.00    +0.000 OA
ATOM      7  H   UNL     1       8.031   6.930  19.006  0.00  0.00    +0.000 HD
BRANCH   5   8
ATOM      8  O   UNL     1       8.103   5.344  20.507  0.00  0.00    +0.000 OA
ATOM      9  H   UNL     1       7.592   4.582  20.859  0.00  0.00    +0.000 HD
ENDBRANCH   5   8
ENDBRANCH   1   5
BRANCH   1  10
ATOM     10  C   UNL     1       5.035   6.125  17.472  0.00  0.00    +0.000 C 
BRANCH  10  11
ATOM     11  C   UNL     1       4.437   5.559  18.760  0.00  0.00    +0.000 C 
BRANCH  11  13
ATOM     12  C   UNL     1       2.073   4.480  17.840  0.00  0.00    +0.000 C 
ATOM     13  S   UNL     1       3.675   3.932  18.447  0.00  0.00    +0.000 S 
ENDBRANCH  11  13
ENDBRANCH  10  11
ENDBRANCH   1  10
TORSDOF 6
ENDMDL
MODEL 5
REMARK VINA RESULT:      -3.9      2.824      3.170
REMARK  Name = 
REMARK  7 active torsions:
REMARK  status: ('A' for Active; 'I' for Inactive)
REMARK    1  A    between atoms: C_1  and  S_2
REMARK    2  A    between atoms: S_2  and  C_3
REMARK    3  A    between atoms: C_3  and  C_4
REMARK    4  A    between atoms: C_4  and  C_5
REMARK    5  A    between atoms: C_5  and  N_6
REMARK    6  A    between atoms: C_5  and  P_7
REMARK    7  A    between atoms: P_7  and  O_9
REMARK                            x       y       z     vdW  Elec       q    Type
REMARK                         _______ _______ _______ _____ _____    ______ ____
ROOT
ATOM      1  C   UNL     1       6.418   5.573  16.758  0.00  0.00    +0.000 C 
ENDROOT
BRANCH   1   2
ATOM      2  N   UNL     1       7.509   6.531  16.494  0.00  0.00    +0.000 NA
ATOM      3  H   UNL     1       7.355   7.337  17.107  0.00  0.00    +0.000 HD
ATOM      4  H   UNL     1       7.455   6.876  15.536  0.00  0.00    +0.000 HD
ENDBRANCH   1   2
BRANCH   1   5
ATOM      5  P   UNL     1       6.402   4.491  15.282  0.00  0.00    +0.000 P 
ATOM      6  O   UNL     1       7.560   5.263  14.620  0.00  0.00    +0.000 OA
ATOM      7  H   UNL     1       6.711   3.345  16.044  0.00  0.00    +0.000 HD
BRANCH   5   8
ATOM      8  O   UNL     1       6.388   3.468  13.886  0.00  0.00    +0.000 OA
ATOM      9  H   UNL     1       5.847   2.694  14.159  0.00  0.00    +0.000 HD
ENDBRANCH   5   8
ENDBRANCH   1   5
BRANCH   1  10
ATOM     10  C   UNL     1       6.583   4.785  18.065  0.00  0.00    +0.000 C 
BRANCH  10  11
ATOM     11  C   UNL     1       5.579   5.127  19.166  0.00  0.00    +0.000 C 
BRANCH  11  13
ATOM     12  C   UNL     1       4.370   2.709  19.704  0.00  0.00    +0.000 C 
ATOM     13  S   UNL     1       3.999   4.264  18.879  0.00  0.00    +0.000 S 
ENDBRANCH  11  13
ENDBRANCH  10  11
ENDBRANCH   1  10
TORSDOF 6
ENDMDL
MODEL 6
REMARK VINA RESULT:      -3.9      2.139      2.745
REMARK  Name = 
REMARK  7 active torsions:
REMARK  status: ('A' for Active; 'I' for Inactive)
REMARK    1  A    between atoms: C_1  and  S_2
REMARK    2  A    between atoms: S_2  and  C_3
REMARK    3  A    between atoms: C_3  and  C_4
REMARK    4  A    between atoms: C_4  and  C_5
REMARK    5  A    between atoms: C_5  and  N_6
REMARK    6  A    between atoms: C_5  and  P_7
REMARK    7  A    between atoms: P_7  and  O_9
REMARK                            x       y       z     vdW  Elec       q    Type
REMARK                         _______ _______ _______ _____ _____    ______ ____
ROOT
ATOM      1  C   UNL     1       5.657   5.380  18.535  0.00  0.00    +0.000 C 
ENDROOT
BRANCH   1   2
ATOM      2  N   UNL     1       6.483   5.149  19.737  0.00  0.00    +0.000 NA
ATOM      3  H   UNL     1       6.570   4.135  19.851  0.00  0.00    +0.000 HD
ATOM      4  H   UNL     1       6.007   5.498  20.567  0.00  0.00    +0.000 HD
ENDBRANCH   1   2
BRANCH   1   5
ATOM      5  P   UNL     1       6.770   4.976  17.140  0.00  0.00    +0.000 P 
ATOM      6  O   UNL     1       7.844   4.391  18.078  0.00  0.00    +0.000 OA
ATOM      7  H   UNL     1       5.830   4.095  16.566  0.00  0.00    +0.000 HD
BRANCH   5   8
ATOM      8  O   UNL     1       7.823   4.594  15.821  0.00  0.00    +0.000 OA
ATOM      9  H   UNL     1       8.130   3.681  16.012  0.00  0.00    +0.000 HD
ENDBRANCH   5   8
ENDBRANCH   1   5
BRANCH   1  10
ATOM     10  C   UNL     1       4.357   4.563  18.507  0.00  0.00    +0.000 C 
BRANCH  10  11
ATOM     11  C   UNL     1       4.407   3.229  19.252  0.00  0.00    +0.000 C 
BRANCH  11  13
ATOM     12  C   UNL     1       1.816   2.420  18.773  0.00  0.00    +0.000 C 
ATOM     13  S   UNL     1       3.493   1.949  18.330  0.00  0.00    +0.000 S 
ENDBRANCH  11  13
ENDBRANCH  10  11
ENDBRANCH   1  10
TORSDOF 6
ENDMDL
MODEL 7
REMARK VINA RESULT:      -3.9      5.034      5.431
REMARK  Name = 
REMARK  7 active torsions:
REMARK  status: ('A' for Active; 'I' for Inactive)
REMARK    1  A    between atoms: C_1  and  S_2
REMARK    2  A    between atoms: S_2  and  C_3
REMARK    3  A    between atoms: C_3  and  C_4
REMARK    4  A    between atoms: C_4  and  C_5
REMARK    5  A    between atoms: C_5  and  N_6
REMARK    6  A    between atoms: C_5  and  P_7
REMARK    7  A    between atoms: P_7  and  O_9
REMARK                            x       y       z     vdW  Elec       q    Type
REMARK                         _______ _______ _______ _____ _____    ______ ____
ROOT
ATOM      1  C   UNL     1       2.698   2.461  17.797  0.00  0.00    +0.000 C 
ENDROOT
BRANCH   1   2
ATOM      2  N   UNL     1       3.716   1.513  18.290  0.00  0.00    +0.000 NA
ATOM      3  H   UNL     1       4.124   1.056  17.469  0.00  0.00    +0.000 HD
ATOM      4  H   UNL     1       3.278   0.779  18.846  0.00  0.00    +0.000 HD
ENDBRANCH   1   2
BRANCH   1   5
ATOM      5  P   UNL     1       1.593   2.722  19.232  0.00  0.00    +0.000 P 
ATOM      6  O   UNL     1       0.370   2.168  18.477  0.00  0.00    +0.000 OA
ATOM      7  H   UNL     1       2.337   1.839  20.042  0.00  0.00    +0.000 HD
BRANCH   5   8
ATOM      8  O   UNL     1       0.549   2.969  20.589  0.00  0.00    +0.000 OA
ATOM      9  H   UNL     1      -0.249   3.396  20.207  0.00  0.00    +0.000 HD
ENDBRANCH   5   8
ENDBRANCH   1   5
BRANCH   1  10
ATOM     10  C   UNL     1       3.281   3.774  17.255  0.00  0.00    +0.000 C 
BRANCH  10  11
ATOM     11  C   UNL     1       4.772   3.737  16.919  0.00  0.00    +0.000 C 
BRANCH  11  13
ATOM     12  C   UNL     1       7.359   4.572  17.381  0.00  0.00    +0.000 C 
ATOM     13  S   UNL     1       5.704   4.840  18.033  0.00  0.00    +0.000 S 
ENDBRANCH  11  13
ENDBRANCH  10  11
ENDBRANCH   1  10
TORSDOF 6
ENDMDL
MODEL 8
REMARK VINA RESULT:      -3.9      1.951      2.317
REMARK  Name = 
REMARK  7 active torsions:
REMARK  status: ('A' for Active; 'I' for Inactive)
REMARK    1  A    between atoms: C_1  and  S_2
REMARK    2  A    between atoms: S_2  and  C_3
REMARK    3  A    between atoms: C_3  and  C_4
REMARK    4  A    between atoms: C_4  and  C_5
REMARK    5  A    between atoms: C_5  and  N_6
REMARK    6  A    between atoms: C_5  and  P_7
REMARK    7  A    between atoms: P_7  and  O_9
REMARK                            x       y       z     vdW  Elec       q    Type
REMARK                         _______ _______ _______ _____ _____    ______ ____
ROOT
ATOM      1  C   UNL     1       5.106   5.341  16.155  0.00  0.00    +0.000 C 
ENDROOT
BRANCH   1   2
ATOM      2  N   UNL     1       5.404   6.711  15.693  0.00  0.00    +0.000 NA
ATOM      3  H   UNL     1       6.422   6.824  15.727  0.00  0.00    +0.000 HD
ATOM      4  H   UNL     1       5.012   7.397  16.337  0.00  0.00    +0.000 HD
ENDBRANCH   1   2
BRANCH   1   5
ATOM      5  P   UNL     1       6.717   4.707  16.749  0.00  0.00    +0.000 P 
ATOM      6  O   UNL     1       7.502   5.787  15.982  0.00  0.00    +0.000 OA
ATOM      7  H   UNL     1       6.384   4.951  18.098  0.00  0.00    +0.000 HD
BRANCH   5   8
ATOM      8  O   UNL     1       8.239   4.106  17.310  0.00  0.00    +0.000 OA
ATOM      9  H   UNL     1       8.016   3.598  18.120  0.00  0.00    +0.000 HD
ENDBRANCH   5   8
ENDBRANCH   1   5
BRANCH   1  10
ATOM     10  C   UNL     1       4.012   5.271  17.230  0.00  0.00    +0.000 C 
BRANCH  10  11
ATOM     11  C   UNL     1       3.849   3.910  17.908  0.00  0.00    +0.000 C 
BRANCH  11  13
ATOM     12  C   UNL     1       1.863   2.980  19.578  0.00  0.00    +0.000 C 
ATOM     13  S   UNL     1       3.256   4.117  19.619  0.00  0.00    +0.000 S 
ENDBRANCH  11  13
ENDBRANCH  10  11
ENDBRANCH   1  10
TORSDOF 6
ENDMDL
MODEL 9
REMARK VINA RESULT:      -3.8      2.748      3.121
REMARK  Name = 
REMARK  7 active torsions:
REMARK  status: ('A' for Active; 'I' for Inactive)
REMARK    1  A    between atoms: C_1  and  S_2
REMARK    2  A    between atoms: S_2  and  C_3
REMARK    3  A    between atoms: C_3  and  C_4
REMARK    4  A    between atoms: C_4  and  C_5
REMARK    5  A    between atoms: C_5  and  N_6
REMARK    6  A    between atoms: C_5  and  P_7
REMARK    7  A    between atoms: P_7  and  O_9
REMARK                            x       y       z     vdW  Elec       q    Type
REMARK                         _______ _______ _______ _____ _____    ______ ____
ROOT
ATOM      1  C   UNL     1       4.579   4.051  18.766  0.00  0.00    +0.000 C 
ENDROOT
BRANCH   1   2
ATOM      2  N   UNL     1       5.084   2.853  19.465  0.00  0.00    +0.000 NA
ATOM      3  H   UNL     1       5.728   3.179  20.193  0.00  0.00    +0.000 HD
ATOM      4  H   UNL     1       5.629   2.274  18.829  0.00  0.00    +0.000 HD
ENDBRANCH   1   2
BRANCH   1   5
ATOM      5  P   UNL     1       6.092   4.953  18.270  0.00  0.00    +0.000 P 
ATOM      6  O   UNL     1       6.540   5.144  19.732  0.00  0.00    +0.000 OA
ATOM      7  H   UNL     1       6.592   3.843  17.556  0.00  0.00    +0.000 HD
BRANCH   5   8
ATOM      8  O   UNL     1       7.523   5.805  17.801  0.00  0.00    +0.000 OA
ATOM      9  H   UNL     1       8.000   5.175  17.216  0.00  0.00    +0.000 HD
ENDBRANCH   5   8
ENDBRANCH   1   5
BRANCH   1  10
ATOM     10  C   UNL     1       3.662   3.738  17.576  0.00  0.00    +0.000 C 
BRANCH  10  11
ATOM     11  C   UNL     1       2.202   4.159  17.747  0.00  0.00    +0.000 C 
BRANCH  11  13
ATOM     12  C   UNL     1       1.010   3.810  20.208  0.00  0.00    +0.000 C 
ATOM     13  S   UNL     1       1.280   2.895  18.684  0.00  0.00    +0.000 S 
ENDBRANCH  11  13
ENDBRANCH  10  11
ENDBRANCH   1  10
TORSDOF 6
ENDMDL
