MODEL 1
REMARK VINA RESULT:      -5.5      0.000      0.000
REMARK  Name = 
REMARK  9 active torsions:
REMARK  status: ('A' for Active; 'I' for Inactive)
REMARK    1  A    between atoms: C_1  and  C_2
REMARK    2  A    between atoms: C_2  and  S_3
REMARK    3  A    between atoms: S_3  and  C_4
REMARK    4  A    between atoms: C_4  and  N_6
REMARK    5  A    between atoms: N_6  and  C_7
REMARK    6  A    between atoms: C_7  and  C_8
REMARK    7  A    between atoms: C_8  and  C_10
REMARK    8  A    between atoms: C_13  and  O_14
REMARK    9  A    between atoms: O_14  and  C_15
REMARK                            x       y       z     vdW  Elec       q    Type
REMARK                         _______ _______ _______ _____ _____    ______ ____
ROOT
ATOM      1  C   UNL     1       3.535   2.686  18.044  0.00  0.00    +0.000 C 
ATOM      2  O   UNL     1       3.877   1.650  18.606  0.00  0.00    +0.000 OA
ENDROOT
BRANCH   1   3
ATOM      3  C   UNL     1       4.567   3.696  17.683  0.00  0.00    +0.000 A 
ATOM      4  C   UNL     1       4.598   4.263  16.407  0.00  0.00    +0.000 A 
ATOM      5  C   UNL     1       5.565   5.221  16.098  0.00  0.00    +0.000 A 
ATOM      6  C   UNL     1       6.490   5.638  17.057  0.00  0.00    +0.000 A 
ATOM      7  C   UNL     1       6.460   5.072  18.334  0.00  0.00    +0.000 A 
ATOM      8  C   UNL     1       5.490   4.109  18.649  0.00  0.00    +0.000 A 
BRANCH   6   9
ATOM      9  O   UNL     1       7.393   6.562  16.619  0.00  0.00    +0.000 OA
ATOM     10  C   UNL     1       7.678   7.629  17.515  0.00  0.00    +0.000 C 
ENDBRANCH   6   9
ENDBRANCH   1   3
BRANCH   1  11
ATOM     11  C   UNL     1       2.076   3.021  17.766  0.00  0.00    +0.000 C 
BRANCH  11  12
ATOM     12  N   UNL     1       1.620   4.172  18.537  0.00  0.00    +0.000 N 
ATOM     13  H   UNL     1       1.262   4.978  18.036  0.00  0.00    +0.000 HD
BRANCH  12  14
ATOM     14  C   UNL     1       1.641   4.277  19.902  0.00  0.00    +0.000 C 
ATOM     15  S   UNL     1       1.403   3.036  20.990  0.00  0.00    +0.000 S 
BRANCH  14  16
ATOM     16  S   UNL     1       1.863   5.958  20.341  0.00  0.00    +0.000 S 
BRANCH  16  18
ATOM     17  C   UNL     1       2.272   7.652  18.221  0.00  0.00    +0.000 C 
ATOM     18  C   UNL     1       2.940   6.523  18.988  0.00  0.00    +0.000 C 
ENDBRANCH  16  18
ENDBRANCH  14  16
ENDBRANCH  12  14
ENDBRANCH  11  12
ENDBRANCH   1  11
TORSDOF 7
ENDMDL
MODEL 2
REMARK VINA RESULT:      -5.5      3.168      5.760
REMARK  Name = 
REMARK  9 active torsions:
REMARK  status: ('A' for Active; 'I' for Inactive)
REMARK    1  A    between atoms: C_1  and  C_2
REMARK    2  A    between atoms: C_2  and  S_3
REMARK    3  A    between atoms: S_3  and  C_4
REMARK    4  A    between atoms: C_4  and  N_6
REMARK    5  A    between atoms: N_6  and  C_7
REMARK    6  A    between atoms: C_7  and  C_8
REMARK    7  A    between atoms: C_8  and  C_10
REMARK    8  A    between atoms: C_13  and  O_14
REMARK    9  A    between atoms: O_14  and  C_15
REMARK                            x       y       z     vdW  Elec       q    Type
REMARK                         _______ _______ _______ _____ _____    ______ ____
ROOT
ATOM      1  C   UNL     1       3.340   7.224  17.709  0.00  0.00    +0.000 C 
ATOM      2  O   UNL     1       2.964   8.367  17.954  0.00  0.00    +0.000 OA
ENDROOT
BRANCH   1   3
ATOM      3  C   UNL     1       2.733   6.082  18.446  0.00  0.00    +0.000 A 
ATOM      4  C   UNL     1       2.058   5.067  17.764  0.00  0.00    +0.000 A 
ATOM      5  C   UNL     1       1.513   3.998  18.476  0.00  0.00    +0.000 A 
ATOM      6  C   UNL     1       1.653   3.918  19.863  0.00  0.00    +0.000 A 
ATOM      7  C   UNL     1       2.327   4.931  20.547  0.00  0.00    +0.000 A 
ATOM      8  C   UNL     1       2.876   6.008  19.836  0.00  0.00    +0.000 A 
BRANCH   6   9
ATOM      9  O   UNL     1       1.055   2.833  20.437  0.00  0.00    +0.000 OA
ATOM     10  C   UNL     1       1.445   2.541  21.773  0.00  0.00    +0.000 C 
ENDBRANCH   6   9
ENDBRANCH   1   3
BRANCH   1  11
ATOM     11  C   UNL     1       4.466   6.928  16.729  0.00  0.00    +0.000 C 
BRANCH  11  12
ATOM     12  N   UNL     1       5.772   6.926  17.378  0.00  0.00    +0.000 N 
ATOM     13  H   UNL     1       6.244   7.813  17.516  0.00  0.00    +0.000 HD
BRANCH  12  14
ATOM     14  C   UNL     1       6.444   5.816  17.817  0.00  0.00    +0.000 C 
ATOM     15  S   UNL     1       7.656   5.787  18.960  0.00  0.00    +0.000 S 
BRANCH  14  16
ATOM     16  S   UNL     1       5.895   4.421  16.909  0.00  0.00    +0.000 S 
BRANCH  16  18
ATOM     17  C   UNL     1       6.111   4.101  14.193  0.00  0.00    +0.000 C 
ATOM     18  C   UNL     1       6.898   4.581  15.401  0.00  0.00    +0.000 C 
ENDBRANCH  16  18
ENDBRANCH  14  16
ENDBRANCH  12  14
ENDBRANCH  11  12
ENDBRANCH   1  11
TORSDOF 7
ENDMDL
MODEL 3
REMARK VINA RESULT:      -5.4      2.448      3.517
REMARK  Name = 
REMARK  9 active torsions:
REMARK  status: ('A' for Active; 'I' for Inactive)
REMARK    1  A    between atoms: C_1  and  C_2
REMARK    2  A    between atoms: C_2  and  S_3
REMARK    3  A    between atoms: S_3  and  C_4
REMARK    4  A    between atoms: C_4  and  N_6
REMARK    5  A    between atoms: N_6  and  C_7
REMARK    6  A    between atoms: C_7  and  C_8
REMARK    7  A    between atoms: C_8  and  C_10
REMARK    8  A    between atoms: C_13  and  O_14
REMARK    9  A    between atoms: O_14  and  C_15
REMARK                            x       y       z     vdW  Elec       q    Type
REMARK                         _______ _______ _______ _____ _____    ______ ____
ROOT
ATOM      1  C   UNL     1       4.979   5.346  18.270  0.00  0.00    +0.000 C 
ATOM      2  O   UNL     1       4.164   6.252  18.421  0.00  0.00    +0.000 OA
ENDROOT
BRANCH   1   3
ATOM      3  C   UNL     1       5.531   5.078  16.914  0.00  0.00    +0.000 A 
ATOM      4  C   UNL     1       4.690   4.736  15.853  0.00  0.00    +0.000 A 
ATOM      5  C   UNL     1       5.229   4.507  14.587  0.00  0.00    +0.000 A 
ATOM      6  C   UNL     1       6.601   4.637  14.360  0.00  0.00    +0.000 A 
ATOM      7  C   UNL     1       7.444   4.980  15.420  0.00  0.00    +0.000 A 
ATOM      8  C   UNL     1       6.906   5.211  16.694  0.00  0.00    +0.000 A 
BRANCH   6   9
ATOM      9  O   UNL     1       6.999   4.364  13.084  0.00  0.00    +0.000 OA
ATOM     10  C   UNL     1       6.251   3.369  12.397  0.00  0.00    +0.000 C 
ENDBRANCH   6   9
ENDBRANCH   1   3
BRANCH   1  11
ATOM     11  C   UNL     1       5.398   4.426  19.409  0.00  0.00    +0.000 C 
BRANCH  11  12
ATOM     12  N   UNL     1       4.940   3.058  19.204  0.00  0.00    +0.000 N 
ATOM     13  H   UNL     1       5.633   2.338  19.025  0.00  0.00    +0.000 HD
BRANCH  12  14
ATOM     14  C   UNL     1       3.636   2.641  19.217  0.00  0.00    +0.000 C 
ATOM     15  S   UNL     1       2.741   2.164  17.895  0.00  0.00    +0.000 S 
BRANCH  14  16
ATOM     16  S   UNL     1       3.010   2.780  20.848  0.00  0.00    +0.000 S 
BRANCH  16  18
ATOM     17  C   UNL     1       1.663   5.148  20.524  0.00  0.00    +0.000 C 
ATOM     18  C   UNL     1       1.441   3.645  20.536  0.00  0.00    +0.000 C 
ENDBRANCH  16  18
ENDBRANCH  14  16
ENDBRANCH  12  14
ENDBRANCH  11  12
ENDBRANCH   1  11
TORSDOF 7
ENDMDL
MODEL 4
REMARK VINA RESULT:      -5.4      3.171      5.002
REMARK  Name = 
REMARK  9 active torsions:
REMARK  status: ('A' for Active; 'I' for Inactive)
REMARK    1  A    between atoms: C_1  and  C_2
REMARK    2  A    between atoms: C_2  and  S_3
REMARK    3  A    between atoms: S_3  and  C_4
REMARK    4  A    between atoms: C_4  and  N_6
REMARK    5  A    between atoms: N_6  and  C_7
REMARK    6  A    between atoms: C_7  and  C_8
REMARK    7  A    between atoms: C_8  and  C_10
REMARK    8  A    between atoms: C_13  and  O_14
REMARK    9  A    between atoms: O_14  and  C_15
REMARK                            x       y       z     vdW  Elec       q    Type
REMARK                         _______ _______ _______ _____ _____    ______ ____
ROOT
ATOM      1  C   UNL     1       2.630   3.695  18.155  0.00  0.00    +0.000 C 
ATOM      2  O   UNL     1       1.795   3.250  17.374  0.00  0.00    +0.000 OA
ENDROOT
BRANCH   1   3
ATOM      3  C   UNL     1       2.356   4.972  18.869  0.00  0.00    +0.000 A 
ATOM      4  C   UNL     1       1.919   4.972  20.196  0.00  0.00    +0.000 A 
ATOM      5  C   UNL     1       1.686   6.183  20.848  0.00  0.00    +0.000 A 
ATOM      6  C   UNL     1       1.904   7.399  20.197  0.00  0.00    +0.000 A 
ATOM      7  C   UNL     1       2.340   7.401  18.871  0.00  0.00    +0.000 A 
ATOM      8  C   UNL     1       2.577   6.187  18.211  0.00  0.00    +0.000 A 
BRANCH   6   9
ATOM      9  O   UNL     1       1.616   8.507  20.942  0.00  0.00    +0.000 OA
ATOM     10  C   UNL     1       0.429   9.205  20.585  0.00  0.00    +0.000 C 
ENDBRANCH   6   9
ENDBRANCH   1   3
BRANCH   1  11
ATOM     11  C   UNL     1       3.983   3.030  18.371  0.00  0.00    +0.000 C 
BRANCH  11  12
ATOM     12  N   UNL     1       4.988   3.514  17.434  0.00  0.00    +0.000 N 
ATOM     13  H   UNL     1       4.973   3.160  16.483  0.00  0.00    +0.000 HD
BRANCH  12  14
ATOM     14  C   UNL     1       5.983   4.410  17.722  0.00  0.00    +0.000 C 
ATOM     15  S   UNL     1       6.160   5.262  19.145  0.00  0.00    +0.000 S 
BRANCH  14  16
ATOM     16  S   UNL     1       7.003   4.603  16.312  0.00  0.00    +0.000 S 
BRANCH  16  18
ATOM     17  C   UNL     1       5.185   6.568  15.711  0.00  0.00    +0.000 C 
ATOM     18  C   UNL     1       5.817   5.314  15.130  0.00  0.00    +0.000 C 
ENDBRANCH  16  18
ENDBRANCH  14  16
ENDBRANCH  12  14
ENDBRANCH  11  12
ENDBRANCH   1  11
TORSDOF 7
ENDMDL
MODEL 5
REMARK VINA RESULT:      -5.4      3.261      5.746
REMARK  Name = 
REMARK  9 active torsions:
REMARK  status: ('A' for Active; 'I' for Inactive)
REMARK    1  A    between atoms: C_1  and  C_2
REMARK    2  A    between atoms: C_2  and  S_3
REMARK    3  A    between atoms: S_3  and  C_4
REMARK    4  A    between atoms: C_4  and  N_6
REMARK    5  A    between atoms: N_6  and  C_7
REMARK    6  A    between atoms: C_7  and  C_8
REMARK    7  A    between atoms: C_8  and  C_10
REMARK    8  A    between atoms: C_13  and  O_14
REMARK    9  A    between atoms: O_14  and  C_15
REMARK                            x       y       z     vdW  Elec       q    Type
REMARK                         _______ _______ _______ _____ _____    ______ ____
ROOT
ATOM      1  C   UNL     1       6.804   5.001  19.070  0.00  0.00    +0.000 C 
ATOM      2  O   UNL     1       7.340   5.530  20.040  0.00  0.00    +0.000 OA
ENDROOT
BRANCH   1   3
ATOM      3  C   UNL     1       5.355   4.667  19.128  0.00  0.00    +0.000 A 
ATOM      4  C   UNL     1       4.395   5.667  19.294  0.00  0.00    +0.000 A 
ATOM      5  C   UNL     1       3.041   5.330  19.328  0.00  0.00    +0.000 A 
ATOM      6  C   UNL     1       2.631   4.004  19.176  0.00  0.00    +0.000 A 
ATOM      7  C   UNL     1       3.589   3.002  19.010  0.00  0.00    +0.000 A 
ATOM      8  C   UNL     1       4.951   3.336  18.975  0.00  0.00    +0.000 A 
BRANCH   6   9
ATOM      9  O   UNL     1       1.282   3.809  19.250  0.00  0.00    +0.000 OA
ATOM     10  C   UNL     1       0.806   2.557  18.773  0.00  0.00    +0.000 C 
ENDBRANCH   6   9
ENDBRANCH   1   3
BRANCH   1  11
ATOM     11  C   UNL     1       7.583   4.598  17.826  0.00  0.00    +0.000 C 
BRANCH  11  12
ATOM     12  N   UNL     1       7.300   5.473  16.694  0.00  0.00    +0.000 N 
ATOM     13  H   UNL     1       7.988   6.175  16.443  0.00  0.00    +0.000 HD
BRANCH  12  14
ATOM     14  C   UNL     1       6.165   5.447  15.929  0.00  0.00    +0.000 C 
ATOM     15  S   UNL     1       5.055   6.681  15.771  0.00  0.00    +0.000 S 
BRANCH  14  16
ATOM     16  S   UNL     1       6.000   3.859  15.207  0.00  0.00    +0.000 S 
BRANCH  16  18
ATOM     17  C   UNL     1       5.837   3.440  12.500  0.00  0.00    +0.000 C 
ATOM     18  C   UNL     1       6.665   4.173  13.543  0.00  0.00    +0.000 C 
ENDBRANCH  16  18
ENDBRANCH  14  16
ENDBRANCH  12  14
ENDBRANCH  11  12
ENDBRANCH   1  11
TORSDOF 7
ENDMDL
MODEL 6
REMARK VINA RESULT:      -5.3      3.503      6.006
REMARK  Name = 
REMARK  9 active torsions:
REMARK  status: ('A' for Active; 'I' for Inactive)
REMARK    1  A    between atoms: C_1  and  C_2
REMARK    2  A    between atoms: C_2  and  S_3
REMARK    3  A    between atoms: S_3  and  C_4
REMARK    4  A    between atoms: C_4  and  N_6
REMARK    5  A    between atoms: N_6  and  C_7
REMARK    6  A    between atoms: C_7  and  C_8
REMARK    7  A    between atoms: C_8  and  C_10
REMARK    8  A    between atoms: C_13  and  O_14
REMARK    9  A    between atoms: O_14  and  C_15
REMARK                            x       y       z     vdW  Elec       q    Type
REMARK                         _______ _______ _______ _____ _____    ______ ____
ROOT
ATOM      1  C   UNL     1       3.867   7.011  17.586  0.00  0.00    +0.000 C 
ATOM      2  O   UNL     1       3.108   7.944  17.340  0.00  0.00    +0.000 OA
ENDROOT
BRANCH   1   3
ATOM      3  C   UNL     1       3.333   5.791  18.251  0.00  0.00    +0.000 A 
ATOM      4  C   UNL     1       4.029   5.183  19.298  0.00  0.00    +0.000 A 
ATOM      5  C   UNL     1       3.499   4.050  19.917  0.00  0.00    +0.000 A 
ATOM      6  C   UNL     1       2.267   3.528  19.517  0.00  0.00    +0.000 A 
ATOM      7  C   UNL     1       1.570   4.134  18.470  0.00  0.00    +0.000 A 
ATOM      8  C   UNL     1       2.099   5.273  17.845  0.00  0.00    +0.000 A 
BRANCH   6   9
ATOM      9  O   UNL     1       1.875   2.406  20.189  0.00  0.00    +0.000 OA
ATOM     10  C   UNL     1       1.619   2.570  21.578  0.00  0.00    +0.000 C 
ENDBRANCH   6   9
ENDBRANCH   1   3
BRANCH   1  11
ATOM     11  C   UNL     1       5.362   7.079  17.307  0.00  0.00    +0.000 C 
BRANCH  11  12
ATOM     12  N   UNL     1       5.740   6.287  16.144  0.00  0.00    +0.000 N 
ATOM     13  H   UNL     1       5.262   6.460  15.266  0.00  0.00    +0.000 HD
BRANCH  12  14
ATOM     14  C   UNL     1       6.689   5.299  16.125  0.00  0.00    +0.000 C 
ATOM     15  S   UNL     1       7.426   4.615  17.454  0.00  0.00    +0.000 S 
BRANCH  14  16
ATOM     16  S   UNL     1       7.089   4.926  14.460  0.00  0.00    +0.000 S 
BRANCH  16  18
ATOM     17  C   UNL     1       5.790   3.428  12.564  0.00  0.00    +0.000 C 
ATOM     18  C   UNL     1       5.591   4.034  13.944  0.00  0.00    +0.000 C 
ENDBRANCH  16  18
ENDBRANCH  14  16
ENDBRANCH  12  14
ENDBRANCH  11  12
ENDBRANCH   1  11
TORSDOF 7
ENDMDL
MODEL 7
REMARK VINA RESULT:      -5.3      3.111      5.038
REMARK  Name = 
REMARK  9 active torsions:
REMARK  status: ('A' for Active; 'I' for Inactive)
REMARK    1  A    between atoms: C_1  and  C_2
REMARK    2  A    between atoms: C_2  and  S_3
REMARK    3  A    between atoms: S_3  and  C_4
REMARK    4  A    between atoms: C_4  and  N_6
REMARK    5  A    between atoms: N_6  and  C_7
REMARK    6  A    between atoms: C_7  and  C_8
REMARK    7  A    between atoms: C_8  and  C_10
REMARK    8  A    between atoms: C_13  and  O_14
REMARK    9  A    between atoms: O_14  and  C_15
REMARK                            x       y       z     vdW  Elec       q    Type
REMARK                         _______ _______ _______ _____ _____    ______ ____
ROOT
ATOM      1  C   UNL     1       2.466   3.821  18.008  0.00  0.00    +0.000 C 
ATOM      2  O   UNL     1       1.730   3.543  17.066  0.00  0.00    +0.000 OA
ENDROOT
BRANCH   1   3
ATOM      3  C   UNL     1       2.250   5.091  18.754  0.00  0.00    +0.000 A 
ATOM      4  C   UNL     1       1.862   5.078  20.095  0.00  0.00    +0.000 A 
ATOM      5  C   UNL     1       1.683   6.282  20.777  0.00  0.00    +0.000 A 
ATOM      6  C   UNL     1       1.908   7.504  20.140  0.00  0.00    +0.000 A 
ATOM      7  C   UNL     1       2.296   7.520  18.799  0.00  0.00    +0.000 A 
ATOM      8  C   UNL     1       2.477   6.312  18.110  0.00  0.00    +0.000 A 
BRANCH   6   9
ATOM      9  O   UNL     1       1.675   8.605  20.914  0.00  0.00    +0.000 OA
ATOM     10  C   UNL     1       0.487   9.330  20.623  0.00  0.00    +0.000 C 
ENDBRANCH   6   9
ENDBRANCH   1   3
BRANCH   1  11
ATOM     11  C   UNL     1       3.652   2.951  18.403  0.00  0.00    +0.000 C 
BRANCH  11  12
ATOM     12  N   UNL     1       4.784   3.126  17.502  0.00  0.00    +0.000 N 
ATOM     13  H   UNL     1       5.196   2.301  17.078  0.00  0.00    +0.000 HD
BRANCH  12  14
ATOM     14  C   UNL     1       5.368   4.321  17.175  0.00  0.00    +0.000 C 
ATOM     15  S   UNL     1       5.487   4.973  15.646  0.00  0.00    +0.000 S 
BRANCH  14  16
ATOM     16  S   UNL     1       6.069   5.026  18.618  0.00  0.00    +0.000 S 
BRANCH  16  18
ATOM     17  C   UNL     1       7.539   7.197  17.812  0.00  0.00    +0.000 C 
ATOM     18  C   UNL     1       7.627   5.686  17.951  0.00  0.00    +0.000 C 
ENDBRANCH  16  18
ENDBRANCH  14  16
ENDBRANCH  12  14
ENDBRANCH  11  12
ENDBRANCH   1  11
TORSDOF 7
ENDMDL
MODEL 8
REMARK VINA RESULT:      -5.3      1.868      3.086
REMARK  Name = 
REMARK  9 active torsions:
REMARK  status: ('A' for Active; 'I' for Inactive)
REMARK    1  A    between atoms: C_1  and  C_2
REMARK    2  A    between atoms: C_2  and  S_3
REMARK    3  A    between atoms: S_3  and  C_4
REMARK    4  A    between atoms: C_4  and  N_6
REMARK    5  A    between atoms: N_6  and  C_7
REMARK    6  A    between atoms: C_7  and  C_8
REMARK    7  A    between atoms: C_8  and  C_10
REMARK    8  A    between atoms: C_13  and  O_14
REMARK    9  A    between atoms: O_14  and  C_15
REMARK                            x       y       z     vdW  Elec       q    Type
REMARK                         _______ _______ _______ _____ _____    ______ ____
ROOT
ATOM      1  C   UNL     1       3.840   5.641  18.588  0.00  0.00    +0.000 C 
ATOM      2  O   UNL     1       4.150   5.681  19.775  0.00  0.00    +0.000 OA
ENDROOT
BRANCH   1   3
ATOM      3  C   UNL     1       4.909   5.543  17.557  0.00  0.00    +0.000 A 
ATOM      4  C   UNL     1       4.695   4.844  16.367  0.00  0.00    +0.000 A 
ATOM      5  C   UNL     1       5.708   4.782  15.408  0.00  0.00    +0.000 A 
ATOM      6  C   UNL     1       6.927   5.430  15.614  0.00  0.00    +0.000 A 
ATOM      7  C   UNL     1       7.143   6.129  16.803  0.00  0.00    +0.000 A 
ATOM      8  C   UNL     1       6.129   6.194  17.769  0.00  0.00    +0.000 A 
BRANCH   6   9
ATOM      9  O   UNL     1       7.837   5.271  14.609  0.00  0.00    +0.000 OA
ATOM     10  C   UNL     1       7.314   4.845  13.357  0.00  0.00    +0.000 C 
ENDBRANCH   6   9
ENDBRANCH   1   3
BRANCH   1  11
ATOM     11  C   UNL     1       2.398   5.765  18.115  0.00  0.00    +0.000 C 
BRANCH  11  12
ATOM     12  N   UNL     1       1.738   4.468  18.020  0.00  0.00    +0.000 N 
ATOM     13  H   UNL     1       1.429   4.150  17.107  0.00  0.00    +0.000 HD
BRANCH  12  14
ATOM     14  C   UNL     1       1.478   3.626  19.067  0.00  0.00    +0.000 C 
ATOM     15  S   UNL     1       1.092   4.080  20.624  0.00  0.00    +0.000 S 
BRANCH  14  16
ATOM     16  S   UNL     1       1.710   1.972  18.540  0.00  0.00    +0.000 S 
BRANCH  16  18
ATOM     17  C   UNL     1       4.200   2.157  19.677  0.00  0.00    +0.000 C 
ATOM     18  C   UNL     1       3.517   1.930  18.338  0.00  0.00    +0.000 C 
ENDBRANCH  16  18
ENDBRANCH  14  16
ENDBRANCH  12  14
ENDBRANCH  11  12
ENDBRANCH   1  11
TORSDOF 7
ENDMDL
MODEL 9
REMARK VINA RESULT:      -5.3      2.155      3.469
REMARK  Name = 
REMARK  9 active torsions:
REMARK  status: ('A' for Active; 'I' for Inactive)
REMARK    1  A    between atoms: C_1  and  C_2
REMARK    2  A    between atoms: C_2  and  S_3
REMARK    3  A    between atoms: S_3  and  C_4
REMARK    4  A    between atoms: C_4  and  N_6
REMARK    5  A    between atoms: N_6  and  C_7
REMARK    6  A    between atoms: C_7  and  C_8
REMARK    7  A    between atoms: C_8  and  C_10
REMARK    8  A    between atoms: C_13  and  O_14
REMARK    9  A    between atoms: O_14  and  C_15
REMARK                            x       y       z     vdW  Elec       q    Type
REMARK                         _______ _______ _______ _____ _____    ______ ____
ROOT
ATOM      1  C   UNL     1       5.362   4.318  18.759  0.00  0.00    +0.000 C 
ATOM      2  O   UNL     1       5.403   3.245  19.354  0.00  0.00    +0.000 OA
ENDROOT
BRANCH   1   3
ATOM      3  C   UNL     1       5.776   4.379  17.331  0.00  0.00    +0.000 A 
ATOM      4  C   UNL     1       4.869   4.092  16.309  0.00  0.00    +0.000 A 
ATOM      5  C   UNL     1       5.277   4.172  14.977  0.00  0.00    +0.000 A 
ATOM      6  C   UNL     1       6.578   4.558  14.651  0.00  0.00    +0.000 A 
ATOM      7  C   UNL     1       7.487   4.846  15.671  0.00  0.00    +0.000 A 
ATOM      8  C   UNL     1       7.082   4.766  17.011  0.00  0.00    +0.000 A 
BRANCH   6   9
ATOM      9  O   UNL     1       6.853   4.575  13.314  0.00  0.00    +0.000 OA
ATOM     10  C   UNL     1       6.305   3.506  12.552  0.00  0.00    +0.000 C 
ENDBRANCH   6   9
ENDBRANCH   1   3
BRANCH   1  11
ATOM     11  C   UNL     1       4.974   5.619  19.449  0.00  0.00    +0.000 C 
BRANCH  11  12
ATOM     12  N   UNL     1       3.530   5.756  19.591  0.00  0.00    +0.000 N 
ATOM     13  H   UNL     1       3.101   5.469  20.465  0.00  0.00    +0.000 HD
BRANCH  12  14
ATOM     14  C   UNL     1       2.674   6.231  18.633  0.00  0.00    +0.000 C 
ATOM     15  S   UNL     1       2.469   7.829  18.201  0.00  0.00    +0.000 S 
BRANCH  14  16
ATOM     16  S   UNL     1       1.743   4.896  17.987  0.00  0.00    +0.000 S 
BRANCH  16  18
ATOM     17  C   UNL     1       0.966   2.500  19.075  0.00  0.00    +0.000 C 
ATOM     18  C   UNL     1       1.713   3.778  19.421  0.00  0.00    +0.000 C 
ENDBRANCH  16  18
ENDBRANCH  14  16
ENDBRANCH  12  14
ENDBRANCH  11  12
ENDBRANCH   1  11
TORSDOF 7
ENDMDL
