MODEL 1
REMARK VINA RESULT:      -8.3      0.000      0.000
REMARK  Name = 
REMARK  3 active torsions:
REMARK  status: ('A' for Active; 'I' for Inactive)
REMARK    1  A    between atoms: C_1  and  C_2
REMARK    2  A    between atoms: N_14  and  C_15
REMARK    3  A    between atoms: C_15  and  C_16
REMARK                            x       y       z     vdW  Elec       q    Type
REMARK                         _______ _______ _______ _____ _____    ______ ____
ROOT
ATOM      1  C   UNL     1       0.942   8.788  21.585  0.00  0.00    +0.000 C 
ATOM      2  C   UNL     1       1.430   8.600  20.172  0.00  0.00    +0.000 A 
ATOM      3  C   UNL     1       2.046   7.408  19.755  0.00  0.00    +0.000 A 
ATOM      4  N   UNL     1       2.166   6.200  20.404  0.00  0.00    +0.000 N 
ATOM      5  C   UNL     1       2.906   5.307  19.667  0.00  0.00    +0.000 A 
ATOM      6  C   UNL     1       3.298   4.000  19.973  0.00  0.00    +0.000 A 
ATOM      7  C   UNL     1       4.044   3.311  19.015  0.00  0.00    +0.000 A 
ATOM      8  C   UNL     1       4.366   3.902  17.795  0.00  0.00    +0.000 A 
ATOM      9  C   UNL     1       3.947   5.206  17.499  0.00  0.00    +0.000 A 
ATOM     10  C   UNL     1       3.207   5.929  18.458  0.00  0.00    +0.000 A 
ATOM     11  C   UNL     1       2.628   7.240  18.501  0.00  0.00    +0.000 A 
ATOM     12  C   UNL     1       2.548   8.300  17.597  0.00  0.00    +0.000 A 
ATOM     13  C   UNL     1       1.871   9.443  17.998  0.00  0.00    +0.000 A 
ATOM     14  N   UNL     1       1.350   9.588  19.236  0.00  0.00    +0.000 N 
ATOM     15  H   UNL     1       1.734   5.973  21.289  0.00  0.00    +0.000 HD
ENDROOT
BRANCH  14  16
ATOM     16  C   UNL     1       0.563  10.828  19.489  0.00  0.00    +0.000 C 
BRANCH  16  17
ATOM     17  C   UNL     1      -0.840  10.808  18.902  0.00  0.00    +0.000 A 
ATOM     18  C   UNL     1      -1.222  10.011  17.811  0.00  0.00    +0.000 A 
ATOM     19  C   UNL     1      -2.481  10.169  17.221  0.00  0.00    +0.000 A 
ATOM     20  C   UNL     1      -3.379  11.104  17.729  0.00  0.00    +0.000 A 
ATOM     21 CL   UNL     1      -4.878  11.375  16.931  0.00  0.00    +0.000 Cl
ATOM     22  C   UNL     1      -3.054  11.841  18.863  0.00  0.00    +0.000 A 
ATOM     23  C   UNL     1      -1.794  11.688  19.450  0.00  0.00    +0.000 A 
ENDBRANCH  16  17
ENDBRANCH  14  16
TORSDOF 2
ENDMDL
MODEL 2
REMARK VINA RESULT:      -8.0      3.671      7.771
REMARK  Name = 
REMARK  3 active torsions:
REMARK  status: ('A' for Active; 'I' for Inactive)
REMARK    1  A    between atoms: C_1  and  C_2
REMARK    2  A    between atoms: N_14  and  C_15
REMARK    3  A    between atoms: C_15  and  C_16
REMARK                            x       y       z     vdW  Elec       q    Type
REMARK                         _______ _______ _______ _____ _____    ______ ____
ROOT
ATOM      1  C   UNL     1       2.940   4.095  20.441  0.00  0.00    +0.000 C 
ATOM      2  C   UNL     1       3.094   5.283  19.528  0.00  0.00    +0.000 A 
ATOM      3  C   UNL     1       2.435   6.498  19.779  0.00  0.00    +0.000 A 
ATOM      4  N   UNL     1       1.728   6.910  20.885  0.00  0.00    +0.000 N 
ATOM      5  C   UNL     1       1.183   8.157  20.696  0.00  0.00    +0.000 A 
ATOM      6  C   UNL     1       0.367   8.916  21.541  0.00  0.00    +0.000 A 
ATOM      7  C   UNL     1      -0.032  10.175  21.090  0.00  0.00    +0.000 A 
ATOM      8  C   UNL     1       0.385  10.659  19.852  0.00  0.00    +0.000 A 
ATOM      9  C   UNL     1       1.219   9.891  19.027  0.00  0.00    +0.000 A 
ATOM     10  C   UNL     1       1.621   8.608  19.454  0.00  0.00    +0.000 A 
ATOM     11  C   UNL     1       2.444   7.576  18.896  0.00  0.00    +0.000 A 
ATOM     12  C   UNL     1       3.191   7.452  17.723  0.00  0.00    +0.000 A 
ATOM     13  C   UNL     1       3.896   6.273  17.526  0.00  0.00    +0.000 A 
ATOM     14  N   UNL     1       3.835   5.232  18.385  0.00  0.00    +0.000 N 
ATOM     15  H   UNL     1       1.649   6.390  21.748  0.00  0.00    +0.000 HD
ENDROOT
BRANCH  14  16
ATOM     16  C   UNL     1       4.726   4.073  18.094  0.00  0.00    +0.000 C 
BRANCH  16  17
ATOM     17  C   UNL     1       5.573   4.235  16.841  0.00  0.00    +0.000 A 
ATOM     18  C   UNL     1       6.909   4.667  16.850  0.00  0.00    +0.000 A 
ATOM     19  C   UNL     1       7.571   4.953  15.650  0.00  0.00    +0.000 A 
ATOM     20  C   UNL     1       6.915   4.788  14.432  0.00  0.00    +0.000 A 
ATOM     21 CL   UNL     1       7.693   5.250  12.970  0.00  0.00    +0.000 Cl
ATOM     22  C   UNL     1       5.622   4.278  14.399  0.00  0.00    +0.000 A 
ATOM     23  C   UNL     1       4.958   3.997  15.596  0.00  0.00    +0.000 A 
ENDBRANCH  16  17
ENDBRANCH  14  16
TORSDOF 2
ENDMDL
MODEL 3
REMARK VINA RESULT:      -7.9      0.341      1.072
REMARK  Name = 
REMARK  3 active torsions:
REMARK  status: ('A' for Active; 'I' for Inactive)
REMARK    1  A    between atoms: C_1  and  C_2
REMARK    2  A    between atoms: N_14  and  C_15
REMARK    3  A    between atoms: C_15  and  C_16
REMARK                            x       y       z     vdW  Elec       q    Type
REMARK                         _______ _______ _______ _____ _____    ______ ____
ROOT
ATOM      1  C   UNL     1       1.004   8.880  21.781  0.00  0.00    +0.000 C 
ATOM      2  C   UNL     1       1.407   8.733  20.337  0.00  0.00    +0.000 A 
ATOM      3  C   UNL     1       1.975   7.547  19.845  0.00  0.00    +0.000 A 
ATOM      4  N   UNL     1       2.110   6.315  20.443  0.00  0.00    +0.000 N 
ATOM      5  C   UNL     1       2.789   5.436  19.634  0.00  0.00    +0.000 A 
ATOM      6  C   UNL     1       3.173   4.112  19.872  0.00  0.00    +0.000 A 
ATOM      7  C   UNL     1       3.850   3.445  18.850  0.00  0.00    +0.000 A 
ATOM      8  C   UNL     1       4.113   4.073  17.634  0.00  0.00    +0.000 A 
ATOM      9  C   UNL     1       3.703   5.394  17.408  0.00  0.00    +0.000 A 
ATOM     10  C   UNL     1       3.033   6.095  18.432  0.00  0.00    +0.000 A 
ATOM     11  C   UNL     1       2.482   7.413  18.554  0.00  0.00    +0.000 A 
ATOM     12  C   UNL     1       2.371   8.506  17.692  0.00  0.00    +0.000 A 
ATOM     13  C   UNL     1       1.739   9.645  18.171  0.00  0.00    +0.000 A 
ATOM     14  N   UNL     1       1.293   9.756  19.442  0.00  0.00    +0.000 N 
ATOM     15  H   UNL     1       1.724   6.064  21.343  0.00  0.00    +0.000 HD
ENDROOT
BRANCH  14  16
ATOM     16  C   UNL     1       0.545  10.999  19.781  0.00  0.00    +0.000 C 
BRANCH  16  17
ATOM     17  C   UNL     1      -0.824  11.102  19.129  0.00  0.00    +0.000 A 
ATOM     18  C   UNL     1      -1.764  12.100  19.434  0.00  0.00    +0.000 A 
ATOM     19  C   UNL     1      -3.064  12.033  18.919  0.00  0.00    +0.000 A 
ATOM     20  C   UNL     1      -3.430  10.987  18.076  0.00  0.00    +0.000 A 
ATOM     21 CL   UNL     1      -5.058  10.848  17.539  0.00  0.00    +0.000 Cl
ATOM     22  C   UNL     1      -2.490  10.038  17.691  0.00  0.00    +0.000 A 
ATOM     23  C   UNL     1      -1.192  10.100  18.210  0.00  0.00    +0.000 A 
ENDBRANCH  16  17
ENDBRANCH  14  16
TORSDOF 2
ENDMDL
MODEL 4
REMARK VINA RESULT:      -7.8      1.083      2.447
REMARK  Name = 
REMARK  3 active torsions:
REMARK  status: ('A' for Active; 'I' for Inactive)
REMARK    1  A    between atoms: C_1  and  C_2
REMARK    2  A    between atoms: N_14  and  C_15
REMARK    3  A    between atoms: C_15  and  C_16
REMARK                            x       y       z     vdW  Elec       q    Type
REMARK                         _______ _______ _______ _____ _____    ______ ____
ROOT
ATOM      1  C   UNL     1       2.575   8.722  17.547  0.00  0.00    +0.000 C 
ATOM      2  C   UNL     1       2.084   8.218  18.879  0.00  0.00    +0.000 A 
ATOM      3  C   UNL     1       2.369   6.918  19.328  0.00  0.00    +0.000 A 
ATOM      4  N   UNL     1       3.221   5.969  18.811  0.00  0.00    +0.000 N 
ATOM      5  C   UNL     1       3.155   4.796  19.522  0.00  0.00    +0.000 A 
ATOM      6  C   UNL     1       3.815   3.581  19.309  0.00  0.00    +0.000 A 
ATOM      7  C   UNL     1       3.565   2.546  20.212  0.00  0.00    +0.000 A 
ATOM      8  C   UNL     1       2.704   2.729  21.292  0.00  0.00    +0.000 A 
ATOM      9  C   UNL     1       2.066   3.960  21.499  0.00  0.00    +0.000 A 
ATOM     10  C   UNL     1       2.290   5.015  20.590  0.00  0.00    +0.000 A 
ATOM     11  C   UNL     1       1.827   6.368  20.488  0.00  0.00    +0.000 A 
ATOM     12  C   UNL     1       0.997   7.175  21.267  0.00  0.00    +0.000 A 
ATOM     13  C   UNL     1       0.786   8.482  20.849  0.00  0.00    +0.000 A 
ATOM     14  N   UNL     1       1.296   8.973  19.697  0.00  0.00    +0.000 N 
ATOM     15  H   UNL     1       3.852   6.120  18.036  0.00  0.00    +0.000 HD
ENDROOT
BRANCH  14  16
ATOM     16  C   UNL     1       1.070  10.421  19.430  0.00  0.00    +0.000 C 
BRANCH  16  17
ATOM     17  C   UNL     1      -0.327  10.753  18.927  0.00  0.00    +0.000 A 
ATOM     18  C   UNL     1      -1.166  11.709  19.520  0.00  0.00    +0.000 A 
ATOM     19  C   UNL     1      -2.497  11.840  19.107  0.00  0.00    +0.000 A 
ATOM     20  C   UNL     1      -2.995  11.038  18.084  0.00  0.00    +0.000 A 
ATOM     21 CL   UNL     1      -4.659  11.122  17.660  0.00  0.00    +0.000 Cl
ATOM     22  C   UNL     1      -2.156  10.146  17.425  0.00  0.00    +0.000 A 
ATOM     23  C   UNL     1      -0.828  10.010  17.840  0.00  0.00    +0.000 A 
ENDBRANCH  16  17
ENDBRANCH  14  16
TORSDOF 2
ENDMDL
MODEL 5
REMARK VINA RESULT:      -7.7      3.881      7.796
REMARK  Name = 
REMARK  3 active torsions:
REMARK  status: ('A' for Active; 'I' for Inactive)
REMARK    1  A    between atoms: C_1  and  C_2
REMARK    2  A    between atoms: N_14  and  C_15
REMARK    3  A    between atoms: C_15  and  C_16
REMARK                            x       y       z     vdW  Elec       q    Type
REMARK                         _______ _______ _______ _____ _____    ______ ____
ROOT
ATOM      1  C   UNL     1       3.664   4.138  20.029  0.00  0.00    +0.000 C 
ATOM      2  C   UNL     1       3.628   5.419  19.238  0.00  0.00    +0.000 A 
ATOM      3  C   UNL     1       2.781   6.483  19.591  0.00  0.00    +0.000 A 
ATOM      4  N   UNL     1       2.011   6.665  20.717  0.00  0.00    +0.000 N 
ATOM      5  C   UNL     1       1.273   7.821  20.637  0.00  0.00    +0.000 A 
ATOM      6  C   UNL     1       0.341   8.353  21.534  0.00  0.00    +0.000 A 
ATOM      7  C   UNL     1      -0.255   9.570  21.197  0.00  0.00    +0.000 A 
ATOM      8  C   UNL     1       0.084  10.233  20.020  0.00  0.00    +0.000 A 
ATOM      9  C   UNL     1       1.035   9.693  19.143  0.00  0.00    +0.000 A 
ATOM     10  C   UNL     1       1.637   8.456  19.453  0.00  0.00    +0.000 A 
ATOM     11  C   UNL     1       2.619   7.629  18.815  0.00  0.00    +0.000 A 
ATOM     12  C   UNL     1       3.381   7.742  17.652  0.00  0.00    +0.000 A 
ATOM     13  C   UNL     1       4.269   6.717  17.357  0.00  0.00    +0.000 A 
ATOM     14  N   UNL     1       4.374   5.600  18.110  0.00  0.00    +0.000 N 
ATOM     15  H   UNL     1       2.013   6.057  21.524  0.00  0.00    +0.000 HD
ENDROOT
BRANCH  14  16
ATOM     16  C   UNL     1       5.441   4.633  17.728  0.00  0.00    +0.000 C 
BRANCH  16  17
ATOM     17  C   UNL     1       5.747   4.598  16.239  0.00  0.00    +0.000 A 
ATOM     18  C   UNL     1       4.889   4.044  15.276  0.00  0.00    +0.000 A 
ATOM     19  C   UNL     1       5.310   3.895  13.949  0.00  0.00    +0.000 A 
ATOM     20  C   UNL     1       6.580   4.320  13.567  0.00  0.00    +0.000 A 
ATOM     21 CL   UNL     1       7.135   4.030  11.965  0.00  0.00    +0.000 Cl
ATOM     22  C   UNL     1       7.412   4.951  14.485  0.00  0.00    +0.000 A 
ATOM     23  C   UNL     1       6.994   5.095  15.812  0.00  0.00    +0.000 A 
ENDBRANCH  16  17
ENDBRANCH  14  16
TORSDOF 2
ENDMDL
MODEL 6
REMARK VINA RESULT:      -7.7      1.111      2.242
REMARK  Name = 
REMARK  3 active torsions:
REMARK  status: ('A' for Active; 'I' for Inactive)
REMARK    1  A    between atoms: C_1  and  C_2
REMARK    2  A    between atoms: N_14  and  C_15
REMARK    3  A    between atoms: C_15  and  C_16
REMARK                            x       y       z     vdW  Elec       q    Type
REMARK                         _______ _______ _______ _____ _____    ______ ____
ROOT
ATOM      1  C   UNL     1       2.569   8.612  17.594  0.00  0.00    +0.000 C 
ATOM      2  C   UNL     1       2.078   8.080  18.915  0.00  0.00    +0.000 A 
ATOM      3  C   UNL     1       2.420   6.795  19.368  0.00  0.00    +0.000 A 
ATOM      4  N   UNL     1       3.329   5.892  18.866  0.00  0.00    +0.000 N 
ATOM      5  C   UNL     1       3.309   4.715  19.573  0.00  0.00    +0.000 A 
ATOM      6  C   UNL     1       4.034   3.536  19.371  0.00  0.00    +0.000 A 
ATOM      7  C   UNL     1       3.819   2.487  20.267  0.00  0.00    +0.000 A 
ATOM      8  C   UNL     1       2.929   2.623  21.331  0.00  0.00    +0.000 A 
ATOM      9  C   UNL     1       2.226   3.819  21.527  0.00  0.00    +0.000 A 
ATOM     10  C   UNL     1       2.413   4.887  20.625  0.00  0.00    +0.000 A 
ATOM     11  C   UNL     1       1.885   6.215  20.516  0.00  0.00    +0.000 A 
ATOM     12  C   UNL     1       0.999   6.977  21.280  0.00  0.00    +0.000 A 
ATOM     13  C   UNL     1       0.730   8.272  20.860  0.00  0.00    +0.000 A 
ATOM     14  N   UNL     1       1.237   8.791  19.719  0.00  0.00    +0.000 N 
ATOM     15  H   UNL     1       3.966   6.076  18.103  0.00  0.00    +0.000 HD
ENDROOT
BRANCH  14  16
ATOM     16  C   UNL     1       0.942  10.227  19.450  0.00  0.00    +0.000 C 
BRANCH  16  17
ATOM     17  C   UNL     1      -0.456  10.488  18.912  0.00  0.00    +0.000 A 
ATOM     18  C   UNL     1      -0.963   9.912  17.737  0.00  0.00    +0.000 A 
ATOM     19  C   UNL     1      -2.193  10.328  17.215  0.00  0.00    +0.000 A 
ATOM     20  C   UNL     1      -2.939  11.302  17.873  0.00  0.00    +0.000 A 
ATOM     21 CL   UNL     1      -4.393  11.891  17.168  0.00  0.00    +0.000 Cl
ATOM     22  C   UNL     1      -2.497  11.821  19.084  0.00  0.00    +0.000 A 
ATOM     23  C   UNL     1      -1.265  11.411  19.604  0.00  0.00    +0.000 A 
ENDBRANCH  16  17
ENDBRANCH  14  16
TORSDOF 2
ENDMDL
MODEL 7
REMARK VINA RESULT:      -7.6      2.327      2.931
REMARK  Name = 
REMARK  3 active torsions:
REMARK  status: ('A' for Active; 'I' for Inactive)
REMARK    1  A    between atoms: C_1  and  C_2
REMARK    2  A    between atoms: N_14  and  C_15
REMARK    3  A    between atoms: C_15  and  C_16
REMARK                            x       y       z     vdW  Elec       q    Type
REMARK                         _______ _______ _______ _____ _____    ______ ____
ROOT
ATOM      1  C   UNL     1       0.998   8.556  21.790  0.00  0.00    +0.000 C 
ATOM      2  C   UNL     1       1.343   8.542  20.323  0.00  0.00    +0.000 A 
ATOM      3  C   UNL     1       2.138   7.529  19.761  0.00  0.00    +0.000 A 
ATOM      4  N   UNL     1       2.583   6.346  20.306  0.00  0.00    +0.000 N 
ATOM      5  C   UNL     1       3.398   5.667  19.434  0.00  0.00    +0.000 A 
ATOM      6  C   UNL     1       4.086   4.462  19.604  0.00  0.00    +0.000 A 
ATOM      7  C   UNL     1       4.839   3.993  18.526  0.00  0.00    +0.000 A 
ATOM      8  C   UNL     1       4.884   4.694  17.323  0.00  0.00    +0.000 A 
ATOM      9  C   UNL     1       4.172   5.891  17.166  0.00  0.00    +0.000 A 
ATOM     10  C   UNL     1       3.418   6.394  18.246  0.00  0.00    +0.000 A 
ATOM     11  C   UNL     1       2.590   7.547  18.443  0.00  0.00    +0.000 A 
ATOM     12  C   UNL     1       2.185   8.607  17.629  0.00  0.00    +0.000 A 
ATOM     13  C   UNL     1       1.338   9.559  18.179  0.00  0.00    +0.000 A 
ATOM     14  N   UNL     1       0.950   9.532  19.473  0.00  0.00    +0.000 N 
ATOM     15  H   UNL     1       2.315   5.992  21.214  0.00  0.00    +0.000 HD
ENDROOT
BRANCH  14  16
ATOM     16  C   UNL     1      -0.041  10.562  19.894  0.00  0.00    +0.000 C 
BRANCH  16  17
ATOM     17  C   UNL     1       0.397  11.995  19.631  0.00  0.00    +0.000 A 
ATOM     18  C   UNL     1       1.510  12.598  20.237  0.00  0.00    +0.000 A 
ATOM     19  C   UNL     1       1.753  13.967  20.077  0.00  0.00    +0.000 A 
ATOM     20  C   UNL     1       0.903  14.741  19.290  0.00  0.00    +0.000 A 
ATOM     21 CL   UNL     1       1.139  16.441  19.190  0.00  0.00    +0.000 Cl
ATOM     22  C   UNL     1      -0.154  14.146  18.611  0.00  0.00    +0.000 A 
ATOM     23  C   UNL     1      -0.402  12.780  18.775  0.00  0.00    +0.000 A 
ENDBRANCH  16  17
ENDBRANCH  14  16
TORSDOF 2
ENDMDL
MODEL 8
REMARK VINA RESULT:      -7.6      2.357      2.932
REMARK  Name = 
REMARK  3 active torsions:
REMARK  status: ('A' for Active; 'I' for Inactive)
REMARK    1  A    between atoms: C_1  and  C_2
REMARK    2  A    between atoms: N_14  and  C_15
REMARK    3  A    between atoms: C_15  and  C_16
REMARK                            x       y       z     vdW  Elec       q    Type
REMARK                         _______ _______ _______ _____ _____    ______ ____
ROOT
ATOM      1  C   UNL     1       0.980   8.375  21.789  0.00  0.00    +0.000 C 
ATOM      2  C   UNL     1       1.317   8.442  20.323  0.00  0.00    +0.000 A 
ATOM      3  C   UNL     1       2.176   7.509  19.718  0.00  0.00    +0.000 A 
ATOM      4  N   UNL     1       2.704   6.339  20.215  0.00  0.00    +0.000 N 
ATOM      5  C   UNL     1       3.558   5.752  19.314  0.00  0.00    +0.000 A 
ATOM      6  C   UNL     1       4.329   4.591  19.434  0.00  0.00    +0.000 A 
ATOM      7  C   UNL     1       5.106   4.218  18.336  0.00  0.00    +0.000 A 
ATOM      8  C   UNL     1       5.096   4.967  17.162  0.00  0.00    +0.000 A 
ATOM      9  C   UNL     1       4.303   6.117  17.054  0.00  0.00    +0.000 A 
ATOM     10  C   UNL     1       3.522   6.525  18.156  0.00  0.00    +0.000 A 
ATOM     11  C   UNL     1       2.618   7.610  18.400  0.00  0.00    +0.000 A 
ATOM     12  C   UNL     1       2.136   8.669  17.630  0.00  0.00    +0.000 A 
ATOM     13  C   UNL     1       1.229   9.539  18.220  0.00  0.00    +0.000 A 
ATOM     14  N   UNL     1       0.851   9.435  19.513  0.00  0.00    +0.000 N 
ATOM     15  H   UNL     1       2.467   5.932  21.109  0.00  0.00    +0.000 HD
ENDROOT
BRANCH  14  16
ATOM     16  C   UNL     1      -0.205  10.377  19.978  0.00  0.00    +0.000 C 
BRANCH  16  17
ATOM     17  C   UNL     1       0.148  11.847  19.804  0.00  0.00    +0.000 A 
ATOM     18  C   UNL     1      -0.531  12.718  18.938  0.00  0.00    +0.000 A 
ATOM     19  C   UNL     1      -0.046  14.010  18.705  0.00  0.00    +0.000 A 
ATOM     20  C   UNL     1       1.105  14.452  19.353  0.00  0.00    +0.000 A 
ATOM     21 CL   UNL     1       1.761  15.996  18.976  0.00  0.00    +0.000 Cl
ATOM     22  C   UNL     1       1.742  13.636  20.281  0.00  0.00    +0.000 A 
ATOM     23  C   UNL     1       1.261  12.343  20.510  0.00  0.00    +0.000 A 
ENDBRANCH  16  17
ENDBRANCH  14  16
TORSDOF 2
ENDMDL
MODEL 9
REMARK VINA RESULT:      -7.5      3.611      5.798
REMARK  Name = 
REMARK  3 active torsions:
REMARK  status: ('A' for Active; 'I' for Inactive)
REMARK    1  A    between atoms: C_1  and  C_2
REMARK    2  A    between atoms: N_14  and  C_15
REMARK    3  A    between atoms: C_15  and  C_16
REMARK                            x       y       z     vdW  Elec       q    Type
REMARK                         _______ _______ _______ _____ _____    ______ ____
ROOT
ATOM      1  C   UNL     1       3.103   3.451  17.474  0.00  0.00    +0.000 C 
ATOM      2  C   UNL     1       4.160   4.490  17.205  0.00  0.00    +0.000 A 
ATOM      3  C   UNL     1       4.911   4.490  16.018  0.00  0.00    +0.000 A 
ATOM      4  N   UNL     1       4.754   3.747  14.870  0.00  0.00    +0.000 N 
ATOM      5  C   UNL     1       5.752   4.007  13.964  0.00  0.00    +0.000 A 
ATOM      6  C   UNL     1       5.990   3.444  12.705  0.00  0.00    +0.000 A 
ATOM      7  C   UNL     1       7.087   3.918  11.985  0.00  0.00    +0.000 A 
ATOM      8  C   UNL     1       7.900   4.927  12.497  0.00  0.00    +0.000 A 
ATOM      9  C   UNL     1       7.635   5.492  13.752  0.00  0.00    +0.000 A 
ATOM     10  C   UNL     1       6.542   5.017  14.506  0.00  0.00    +0.000 A 
ATOM     11  C   UNL     1       5.984   5.348  15.785  0.00  0.00    +0.000 A 
ATOM     12  C   UNL     1       6.291   6.290  16.768  0.00  0.00    +0.000 A 
ATOM     13  C   UNL     1       5.492   6.326  17.902  0.00  0.00    +0.000 A 
ATOM     14  N   UNL     1       4.482   5.454  18.114  0.00  0.00    +0.000 N 
ATOM     15  H   UNL     1       3.983   3.119  14.689  0.00  0.00    +0.000 HD
ENDROOT
BRANCH  14  16
ATOM     16  C   UNL     1       3.647   5.680  19.327  0.00  0.00    +0.000 C 
BRANCH  16  17
ATOM     17  C   UNL     1       2.703   6.868  19.223  0.00  0.00    +0.000 A 
ATOM     18  C   UNL     1       2.496   7.603  18.046  0.00  0.00    +0.000 A 
ATOM     19  C   UNL     1       1.744   8.783  18.067  0.00  0.00    +0.000 A 
ATOM     20  C   UNL     1       1.170   9.225  19.257  0.00  0.00    +0.000 A 
ATOM     21 CL   UNL     1       0.344  10.733  19.302  0.00  0.00    +0.000 Cl
ATOM     22  C   UNL     1       1.289   8.465  20.415  0.00  0.00    +0.000 A 
ATOM     23  C   UNL     1       2.045   7.289  20.396  0.00  0.00    +0.000 A 
ENDBRANCH  16  17
ENDBRANCH  14  16
TORSDOF 2
ENDMDL
