MODEL 1
REMARK VINA RESULT:      -6.7      0.000      0.000
REMARK  Name = 
REMARK  5 active torsions:
REMARK  status: ('A' for Active; 'I' for Inactive)
REMARK    1  A    between atoms: C_1  and  C_2
REMARK    2  A    between atoms: C_2  and  O_3
REMARK    3  A    between atoms: O_3  and  C_4
REMARK    4  A    between atoms: C_5  and  S_6
REMARK    5  A    between atoms: N_9  and  C_10
REMARK                            x       y       z     vdW  Elec       q    Type
REMARK                         _______ _______ _______ _____ _____    ______ ____
ROOT
ATOM      1  C   UNL     1       6.615   5.251  17.300  0.00  0.00    +0.000 A 
ATOM      2  C   UNL     1       6.267   4.641  16.162  0.00  0.00    +0.000 A 
ATOM      3  C   UNL     1       5.095   3.753  16.215  0.00  0.00    +0.000 A 
ATOM      4  N   UNL     1       4.289   3.639  17.219  0.00  0.00    +0.000 NA
ATOM      5  N   UNL     1       4.612   4.324  18.370  0.00  0.00    +0.000 N 
ATOM      6  C   UNL     1       5.875   4.871  18.557  0.00  0.00    +0.000 A 
ATOM      7  O   UNL     1       6.364   5.084  19.668  0.00  0.00    +0.000 OA
ENDROOT
BRANCH   5   8
ATOM      8  C   UNL     1       3.704   4.196  19.525  0.00  0.00    +0.000 C 
ATOM      9  C   UNL     1       2.363   4.913  19.328  0.00  0.00    +0.000 C 
ATOM     10  C   UNL     1       1.446   4.206  18.340  0.00  0.00    +0.000 C 
ATOM     11  C   UNL     1       1.273   2.722  18.667  0.00  0.00    +0.000 C 
ATOM     12  C   UNL     1       2.564   1.978  19.017  0.00  0.00    +0.000 C 
ATOM     13  C   UNL     1       3.483   2.747  19.961  0.00  0.00    +0.000 C 
ENDBRANCH   5   8
BRANCH   2  14
ATOM     14  S   UNL     1       7.014   4.851  14.625  0.00  0.00    +0.000 S 
ATOM     15  H   UNL     1       8.077   4.057  14.824  0.00  0.00    +0.000 HD
ENDBRANCH   2  14
BRANCH   1  16
ATOM     16  O   UNL     1       7.644   6.194  17.330  0.00  0.00    +0.000 OA
BRANCH  16  18
ATOM     17  C   UNL     1       8.154   8.444  18.003  0.00  0.00    +0.000 C 
ATOM     18  C   UNL     1       7.164   7.544  17.292  0.00  0.00    +0.000 C 
ENDBRANCH  16  18
ENDBRANCH   1  16
TORSDOF 4
ENDMDL
MODEL 2
REMARK VINA RESULT:      -6.2      2.146      2.811
REMARK  Name = 
REMARK  5 active torsions:
REMARK  status: ('A' for Active; 'I' for Inactive)
REMARK    1  A    between atoms: C_1  and  C_2
REMARK    2  A    between atoms: C_2  and  O_3
REMARK    3  A    between atoms: O_3  and  C_4
REMARK    4  A    between atoms: C_5  and  S_6
REMARK    5  A    between atoms: N_9  and  C_10
REMARK                            x       y       z     vdW  Elec       q    Type
REMARK                         _______ _______ _______ _____ _____    ______ ____
ROOT
ATOM      1  C   UNL     1       5.523   5.850  17.297  0.00  0.00    +0.000 A 
ATOM      2  C   UNL     1       6.261   5.132  18.150  0.00  0.00    +0.000 A 
ATOM      3  C   UNL     1       5.583   4.636  19.359  0.00  0.00    +0.000 A 
ATOM      4  N   UNL     1       4.312   4.700  19.583  0.00  0.00    +0.000 NA
ATOM      5  N   UNL     1       3.543   5.383  18.665  0.00  0.00    +0.000 N 
ATOM      6  C   UNL     1       4.118   6.208  17.708  0.00  0.00    +0.000 A 
ATOM      7  O   UNL     1       3.525   7.151  17.180  0.00  0.00    +0.000 OA
ENDROOT
BRANCH   5   8
ATOM      8  C   UNL     1       2.092   5.470  18.913  0.00  0.00    +0.000 C 
ATOM      9  C   UNL     1       1.265   4.518  18.040  0.00  0.00    +0.000 C 
ATOM     10  C   UNL     1       1.399   3.059  18.454  0.00  0.00    +0.000 C 
ATOM     11  C   UNL     1       1.143   2.853  19.947  0.00  0.00    +0.000 C 
ATOM     12  C   UNL     1       1.825   3.865  20.871  0.00  0.00    +0.000 C 
ATOM     13  C   UNL     1       1.721   5.308  20.388  0.00  0.00    +0.000 C 
ENDBRANCH   5   8
BRANCH   2  14
ATOM     14  S   UNL     1       7.906   4.670  17.937  0.00  0.00    +0.000 S 
ATOM     15  H   UNL     1       8.351   4.996  19.160  0.00  0.00    +0.000 HD
ENDBRANCH   2  14
BRANCH   1  16
ATOM     16  O   UNL     1       6.043   6.274  16.072  0.00  0.00    +0.000 OA
BRANCH  16  18
ATOM     17  C   UNL     1       6.836   4.804  14.343  0.00  0.00    +0.000 C 
ATOM     18  C   UNL     1       5.622   5.453  14.974  0.00  0.00    +0.000 C 
ENDBRANCH  16  18
ENDBRANCH   1  16
TORSDOF 4
ENDMDL
MODEL 3
REMARK VINA RESULT:      -6.2      1.011      1.012
REMARK  Name = 
REMARK  5 active torsions:
REMARK  status: ('A' for Active; 'I' for Inactive)
REMARK    1  A    between atoms: C_1  and  C_2
REMARK    2  A    between atoms: C_2  and  O_3
REMARK    3  A    between atoms: O_3  and  C_4
REMARK    4  A    between atoms: C_5  and  S_6
REMARK    5  A    between atoms: N_9  and  C_10
REMARK                            x       y       z     vdW  Elec       q    Type
REMARK                         _______ _______ _______ _____ _____    ______ ____
ROOT
ATOM      1  C   UNL     1       5.521   5.602  17.381  0.00  0.00    +0.000 A 
ATOM      2  C   UNL     1       5.270   4.799  16.342  0.00  0.00    +0.000 A 
ATOM      3  C   UNL     1       4.563   3.541  16.631  0.00  0.00    +0.000 A 
ATOM      4  N   UNL     1       4.032   3.226  17.766  0.00  0.00    +0.000 NA
ATOM      5  N   UNL     1       4.234   4.090  18.820  0.00  0.00    +0.000 N 
ATOM      6  C   UNL     1       5.193   5.093  18.760  0.00  0.00    +0.000 A 
ATOM      7  O   UNL     1       5.724   5.583  19.759  0.00  0.00    +0.000 OA
ENDROOT
BRANCH   5   8
ATOM      8  C   UNL     1       3.639   3.739  20.122  0.00  0.00    +0.000 C 
ATOM      9  C   UNL     1       2.522   4.694  20.560  0.00  0.00    +0.000 C 
ATOM     10  C   UNL     1       1.239   4.519  19.759  0.00  0.00    +0.000 C 
ATOM     11  C   UNL     1       0.777   3.063  19.711  0.00  0.00    +0.000 C 
ATOM     12  C   UNL     1       1.878   2.040  19.421  0.00  0.00    +0.000 C 
ATOM     13  C   UNL     1       3.168   2.286  20.197  0.00  0.00    +0.000 C 
ENDBRANCH   5   8
BRANCH   2  14
ATOM     14  S   UNL     1       5.627   5.128  14.690  0.00  0.00    +0.000 S 
ATOM     15  H   UNL     1       4.464   5.710  14.360  0.00  0.00    +0.000 HD
ENDBRANCH   2  14
BRANCH   1  16
ATOM     16  O   UNL     1       6.089   6.864  17.197  0.00  0.00    +0.000 OA
BRANCH  16  18
ATOM     17  C   UNL     1       7.962   8.262  17.762  0.00  0.00    +0.000 C 
ATOM     18  C   UNL     1       7.511   6.868  17.379  0.00  0.00    +0.000 C 
ENDBRANCH  16  18
ENDBRANCH   1  16
TORSDOF 4
ENDMDL
MODEL 4
REMARK VINA RESULT:      -6.2      2.313      3.345
REMARK  Name = 
REMARK  5 active torsions:
REMARK  status: ('A' for Active; 'I' for Inactive)
REMARK    1  A    between atoms: C_1  and  C_2
REMARK    2  A    between atoms: C_2  and  O_3
REMARK    3  A    between atoms: O_3  and  C_4
REMARK    4  A    between atoms: C_5  and  S_6
REMARK    5  A    between atoms: N_9  and  C_10
REMARK                            x       y       z     vdW  Elec       q    Type
REMARK                         _______ _______ _______ _____ _____    ______ ____
ROOT
ATOM      1  C   UNL     1       5.019   4.217  17.139  0.00  0.00    +0.000 A 
ATOM      2  C   UNL     1       5.888   4.758  17.999  0.00  0.00    +0.000 A 
ATOM      3  C   UNL     1       5.332   5.318  19.241  0.00  0.00    +0.000 A 
ATOM      4  N   UNL     1       4.109   5.190  19.636  0.00  0.00    +0.000 NA
ATOM      5  N   UNL     1       3.228   4.571  18.776  0.00  0.00    +0.000 N 
ATOM      6  C   UNL     1       3.550   4.354  17.443  0.00  0.00    +0.000 A 
ATOM      7  O   UNL     1       2.705   4.233  16.553  0.00  0.00    +0.000 OA
ENDROOT
BRANCH   5   8
ATOM      8  C   UNL     1       1.828   4.425  19.213  0.00  0.00    +0.000 C 
ATOM      9  C   UNL     1       1.257   3.022  18.973  0.00  0.00    +0.000 C 
ATOM     10  C   UNL     1       1.818   1.977  19.927  0.00  0.00    +0.000 C 
ATOM     11  C   UNL     1       1.713   2.409  21.390  0.00  0.00    +0.000 C 
ATOM     12  C   UNL     1       2.132   3.853  21.674  0.00  0.00    +0.000 C 
ATOM     13  C   UNL     1       1.599   4.861  20.661  0.00  0.00    +0.000 C 
ENDBRANCH   5   8
BRANCH   2  14
ATOM     14  S   UNL     1       7.601   4.796  17.828  0.00  0.00    +0.000 S 
ATOM     15  H   UNL     1       7.773   6.119  17.969  0.00  0.00    +0.000 HD
ENDBRANCH   2  14
BRANCH   1  16
ATOM     16  O   UNL     1       5.456   3.565  15.984  0.00  0.00    +0.000 OA
BRANCH  16  18
ATOM     17  C   UNL     1       6.206   3.693  13.704  0.00  0.00    +0.000 C 
ATOM     18  C   UNL     1       5.573   4.443  14.857  0.00  0.00    +0.000 C 
ENDBRANCH  16  18
ENDBRANCH   1  16
TORSDOF 4
ENDMDL
MODEL 5
REMARK VINA RESULT:      -6.2      2.877      5.386
REMARK  Name = 
REMARK  5 active torsions:
REMARK  status: ('A' for Active; 'I' for Inactive)
REMARK    1  A    between atoms: C_1  and  C_2
REMARK    2  A    between atoms: C_2  and  O_3
REMARK    3  A    between atoms: O_3  and  C_4
REMARK    4  A    between atoms: C_5  and  S_6
REMARK    5  A    between atoms: N_9  and  C_10
REMARK                            x       y       z     vdW  Elec       q    Type
REMARK                         _______ _______ _______ _____ _____    ______ ____
ROOT
ATOM      1  C   UNL     1       2.016   4.601  18.923  0.00  0.00    +0.000 A 
ATOM      2  C   UNL     1       1.878   3.436  18.284  0.00  0.00    +0.000 A 
ATOM      3  C   UNL     1       2.709   3.231  17.087  0.00  0.00    +0.000 A 
ATOM      4  N   UNL     1       3.665   4.010  16.700  0.00  0.00    +0.000 NA
ATOM      5  N   UNL     1       3.852   5.180  17.403  0.00  0.00    +0.000 N 
ATOM      6  C   UNL     1       2.895   5.651  18.292  0.00  0.00    +0.000 A 
ATOM      7  O   UNL     1       2.779   6.840  18.597  0.00  0.00    +0.000 OA
ENDROOT
BRANCH   5   8
ATOM      8  C   UNL     1       4.935   6.080  16.967  0.00  0.00    +0.000 C 
ATOM      9  C   UNL     1       6.107   6.148  17.954  0.00  0.00    +0.000 C 
ATOM     10  C   UNL     1       6.957   4.886  17.959  0.00  0.00    +0.000 C 
ATOM     11  C   UNL     1       7.399   4.476  16.554  0.00  0.00    +0.000 C 
ATOM     12  C   UNL     1       6.304   4.528  15.486  0.00  0.00    +0.000 C 
ATOM     13  C   UNL     1       5.436   5.780  15.553  0.00  0.00    +0.000 C 
ENDBRANCH   5   8
BRANCH   2  14
ATOM     14  S   UNL     1       0.874   2.122  18.766  0.00  0.00    +0.000 S 
ATOM     15  H   UNL     1      -0.297   2.614  18.334  0.00  0.00    +0.000 HD
ENDBRANCH   2  14
BRANCH   1  16
ATOM     16  O   UNL     1       1.353   4.849  20.127  0.00  0.00    +0.000 OA
BRANCH  16  18
ATOM     17  C   UNL     1       2.127   3.331  21.823  0.00  0.00    +0.000 C 
ATOM     18  C   UNL     1       2.212   4.738  21.270  0.00  0.00    +0.000 C 
ENDBRANCH  16  18
ENDBRANCH   1  16
TORSDOF 4
ENDMDL
MODEL 6
REMARK VINA RESULT:      -6.2      2.053      3.182
REMARK  Name = 
REMARK  5 active torsions:
REMARK  status: ('A' for Active; 'I' for Inactive)
REMARK    1  A    between atoms: C_1  and  C_2
REMARK    2  A    between atoms: C_2  and  O_3
REMARK    3  A    between atoms: O_3  and  C_4
REMARK    4  A    between atoms: C_5  and  S_6
REMARK    5  A    between atoms: N_9  and  C_10
REMARK                            x       y       z     vdW  Elec       q    Type
REMARK                         _______ _______ _______ _____ _____    ______ ____
ROOT
ATOM      1  C   UNL     1       5.866   4.543  17.384  0.00  0.00    +0.000 A 
ATOM      2  C   UNL     1       6.185   5.388  18.369  0.00  0.00    +0.000 A 
ATOM      3  C   UNL     1       5.153   5.642  19.387  0.00  0.00    +0.000 A 
ATOM      4  N   UNL     1       4.036   5.001  19.494  0.00  0.00    +0.000 NA
ATOM      5  N   UNL     1       3.739   4.080  18.513  0.00  0.00    +0.000 N 
ATOM      6  C   UNL     1       4.447   4.040  17.319  0.00  0.00    +0.000 A 
ATOM      7  O   UNL     1       3.984   3.586  16.271  0.00  0.00    +0.000 OA
ENDROOT
BRANCH   5   8
ATOM      8  C   UNL     1       2.464   3.348  18.619  0.00  0.00    +0.000 C 
ATOM      9  C   UNL     1       2.556   2.084  19.483  0.00  0.00    +0.000 C 
ATOM     10  C   UNL     1       2.678   2.384  20.970  0.00  0.00    +0.000 C 
ATOM     11  C   UNL     1       1.598   3.349  21.460  0.00  0.00    +0.000 C 
ATOM     12  C   UNL     1       1.354   4.564  20.561  0.00  0.00    +0.000 C 
ATOM     13  C   UNL     1       1.299   4.229  19.073  0.00  0.00    +0.000 C 
ENDBRANCH   5   8
BRANCH   2  14
ATOM     14  S   UNL     1       7.711   6.151  18.603  0.00  0.00    +0.000 S 
ATOM     15  H   UNL     1       8.406   5.066  18.980  0.00  0.00    +0.000 HD
ENDBRANCH   2  14
BRANCH   1  16
ATOM     16  O   UNL     1       6.810   4.154  16.431  0.00  0.00    +0.000 OA
BRANCH  16  18
ATOM     17  C   UNL     1       6.473   4.184  14.051  0.00  0.00    +0.000 C 
ATOM     18  C   UNL     1       6.820   5.004  15.276  0.00  0.00    +0.000 C 
ENDBRANCH  16  18
ENDBRANCH   1  16
TORSDOF 4
ENDMDL
MODEL 7
REMARK VINA RESULT:      -6.1      2.123      3.219
REMARK  Name = 
REMARK  5 active torsions:
REMARK  status: ('A' for Active; 'I' for Inactive)
REMARK    1  A    between atoms: C_1  and  C_2
REMARK    2  A    between atoms: C_2  and  O_3
REMARK    3  A    between atoms: O_3  and  C_4
REMARK    4  A    between atoms: C_5  and  S_6
REMARK    5  A    between atoms: N_9  and  C_10
REMARK                            x       y       z     vdW  Elec       q    Type
REMARK                         _______ _______ _______ _____ _____    ______ ____
ROOT
ATOM      1  C   UNL     1       5.175   4.924  16.823  0.00  0.00    +0.000 A 
ATOM      2  C   UNL     1       5.828   5.644  17.741  0.00  0.00    +0.000 A 
ATOM      3  C   UNL     1       5.517   5.363  19.151  0.00  0.00    +0.000 A 
ATOM      4  N   UNL     1       4.792   4.381  19.574  0.00  0.00    +0.000 NA
ATOM      5  N   UNL     1       4.173   3.596  18.625  0.00  0.00    +0.000 N 
ATOM      6  C   UNL     1       4.086   3.999  17.299  0.00  0.00    +0.000 A 
ATOM      7  O   UNL     1       3.208   3.604  16.527  0.00  0.00    +0.000 OA
ENDROOT
BRANCH   5   8
ATOM      8  C   UNL     1       3.337   2.477  19.095  0.00  0.00    +0.000 C 
ATOM      9  C   UNL     1       3.337   2.314  20.620  0.00  0.00    +0.000 C 
ATOM     10  C   UNL     1       2.546   3.400  21.337  0.00  0.00    +0.000 C 
ATOM     11  C   UNL     1       1.138   3.566  20.766  0.00  0.00    +0.000 C 
ATOM     12  C   UNL     1       1.052   3.589  19.238  0.00  0.00    +0.000 C 
ATOM     13  C   UNL     1       1.906   2.525  18.557  0.00  0.00    +0.000 C 
ENDBRANCH   5   8
BRANCH   2  14
ATOM     14  S   UNL     1       7.052   6.817  17.434  0.00  0.00    +0.000 S 
ATOM     15  H   UNL     1       8.069   6.187  18.041  0.00  0.00    +0.000 HD
ENDBRANCH   2  14
BRANCH   1  16
ATOM     16  O   UNL     1       5.477   5.039  15.465  0.00  0.00    +0.000 OA
BRANCH  16  18
ATOM     17  C   UNL     1       6.108   3.800  13.504  0.00  0.00    +0.000 C 
ATOM     18  C   UNL     1       6.327   3.986  14.991  0.00  0.00    +0.000 C 
ENDBRANCH  16  18
ENDBRANCH   1  16
TORSDOF 4
ENDMDL
MODEL 8
REMARK VINA RESULT:      -5.9      2.888      5.151
REMARK  Name = 
REMARK  5 active torsions:
REMARK  status: ('A' for Active; 'I' for Inactive)
REMARK    1  A    between atoms: C_1  and  C_2
REMARK    2  A    between atoms: C_2  and  O_3
REMARK    3  A    between atoms: O_3  and  C_4
REMARK    4  A    between atoms: C_5  and  S_6
REMARK    5  A    between atoms: N_9  and  C_10
REMARK                            x       y       z     vdW  Elec       q    Type
REMARK                         _______ _______ _______ _____ _____    ______ ____
ROOT
ATOM      1  C   UNL     1       3.123   5.279  18.364  0.00  0.00    +0.000 A 
ATOM      2  C   UNL     1       3.029   4.414  19.378  0.00  0.00    +0.000 A 
ATOM      3  C   UNL     1       4.199   3.559  19.633  0.00  0.00    +0.000 A 
ATOM      4  N   UNL     1       5.353   3.684  19.066  0.00  0.00    +0.000 NA
ATOM      5  N   UNL     1       5.467   4.625  18.066  0.00  0.00    +0.000 N 
ATOM      6  C   UNL     1       4.347   5.207  17.488  0.00  0.00    +0.000 A 
ATOM      7  O   UNL     1       4.340   5.682  16.350  0.00  0.00    +0.000 OA
ENDROOT
BRANCH   5   8
ATOM      8  C   UNL     1       6.777   4.773  17.406  0.00  0.00    +0.000 C 
ATOM      9  C   UNL     1       6.908   6.066  16.592  0.00  0.00    +0.000 C 
ATOM     10  C   UNL     1       7.040   7.309  17.461  0.00  0.00    +0.000 C 
ATOM     11  C   UNL     1       8.138   7.168  18.514  0.00  0.00    +0.000 C 
ATOM     12  C   UNL     1       8.153   5.835  19.266  0.00  0.00    +0.000 C 
ATOM     13  C   UNL     1       7.957   4.618  18.367  0.00  0.00    +0.000 C 
ENDBRANCH   5   8
BRANCH   2  14
ATOM     14  S   UNL     1       1.699   4.254  20.462  0.00  0.00    +0.000 S 
ATOM     15  H   UNL     1       2.368   3.729  21.500  0.00  0.00    +0.000 HD
ENDBRANCH   2  14
BRANCH   1  16
ATOM     16  O   UNL     1       2.111   6.207  18.109  0.00  0.00    +0.000 OA
BRANCH  16  18
ATOM     17  C   UNL     1       2.160   8.577  17.712  0.00  0.00    +0.000 C 
ATOM     18  C   UNL     1       2.346   7.475  18.734  0.00  0.00    +0.000 C 
ENDBRANCH  16  18
ENDBRANCH   1  16
TORSDOF 4
ENDMDL
MODEL 9
REMARK VINA RESULT:      -5.8      3.101      5.423
REMARK  Name = 
REMARK  5 active torsions:
REMARK  status: ('A' for Active; 'I' for Inactive)
REMARK    1  A    between atoms: C_1  and  C_2
REMARK    2  A    between atoms: C_2  and  O_3
REMARK    3  A    between atoms: O_3  and  C_4
REMARK    4  A    between atoms: C_5  and  S_6
REMARK    5  A    between atoms: N_9  and  C_10
REMARK                            x       y       z     vdW  Elec       q    Type
REMARK                         _______ _______ _______ _____ _____    ______ ____
ROOT
ATOM      1  C   UNL     1       2.553   5.652  19.737  0.00  0.00    +0.000 A 
ATOM      2  C   UNL     1       2.897   4.425  20.143  0.00  0.00    +0.000 A 
ATOM      3  C   UNL     1       4.090   3.830  19.520  0.00  0.00    +0.000 A 
ATOM      4  N   UNL     1       4.914   4.449  18.740  0.00  0.00    +0.000 NA
ATOM      5  N   UNL     1       4.592   5.739  18.377  0.00  0.00    +0.000 N 
ATOM      6  C   UNL     1       3.320   6.255  18.588  0.00  0.00    +0.000 A 
ATOM      7  O   UNL     1       2.843   7.177  17.923  0.00  0.00    +0.000 OA
ENDROOT
BRANCH   5   8
ATOM      8  C   UNL     1       5.519   6.454  17.481  0.00  0.00    +0.000 C 
ATOM      9  C   UNL     1       6.993   6.106  17.726  0.00  0.00    +0.000 C 
ATOM     10  C   UNL     1       7.366   4.712  17.242  0.00  0.00    +0.000 C 
ATOM     11  C   UNL     1       6.940   4.464  15.795  0.00  0.00    +0.000 C 
ATOM     12  C   UNL     1       5.523   4.924  15.446  0.00  0.00    +0.000 C 
ATOM     13  C   UNL     1       5.167   6.300  16.001  0.00  0.00    +0.000 C 
ENDBRANCH   5   8
BRANCH   2  14
ATOM     14  S   UNL     1       2.123   3.505  21.376  0.00  0.00    +0.000 S 
ATOM     15  H   UNL     1       2.222   4.404  22.367  0.00  0.00    +0.000 HD
ENDBRANCH   2  14
BRANCH   1  16
ATOM     16  O   UNL     1       1.503   6.345  20.342  0.00  0.00    +0.000 OA
BRANCH  16  18
ATOM     17  C   UNL     1       0.659   8.376  21.311  0.00  0.00    +0.000 C 
ATOM     18  C   UNL     1       1.882   7.655  20.785  0.00  0.00    +0.000 C 
ENDBRANCH  16  18
ENDBRANCH   1  16
TORSDOF 4
ENDMDL
