MODEL 1
REMARK VINA RESULT:      -7.1      0.000      0.000
REMARK  Name = 
REMARK  10 active torsions:
REMARK  status: ('A' for Active; 'I' for Inactive)
REMARK    1  A    between atoms: C_1  and  O_2
REMARK    2  A    between atoms: O_2  and  C_3
REMARK    3  A    between atoms: C_6  and  C_7
REMARK    4  A    between atoms: C_8  and  C_9
REMARK    5  A    between atoms: C_11  and  O_12
REMARK    6  A    between atoms: O_12  and  C_13
REMARK    7  A    between atoms: C_14  and  O_15
REMARK    8  A    between atoms: O_15  and  C_16
REMARK    9  A    between atoms: C_17  and  O_18
REMARK   10  A    between atoms: O_18  and  C_19
REMARK                            x       y       z     vdW  Elec       q    Type
REMARK                         _______ _______ _______ _____ _____    ______ ____
ROOT
ATOM      1  C   UNL     1       3.317   6.564  17.951  0.00  0.00    +0.000 A 
ATOM      2  C   UNL     1       2.283   5.636  18.058  0.00  0.00    +0.000 A 
ATOM      3  C   UNL     1       2.559   4.300  18.360  0.00  0.00    +0.000 A 
ATOM      4  C   UNL     1       3.893   3.896  18.600  0.00  0.00    +0.000 A 
ATOM      5  C   UNL     1       4.933   4.850  18.556  0.00  0.00    +0.000 A 
ATOM      6  C   UNL     1       4.630   6.177  18.223  0.00  0.00    +0.000 A 
ENDROOT
BRANCH   1   8
ATOM      7  C   UNL     1       2.215   8.827  17.911  0.00  0.00    +0.000 C 
ATOM      8  C   UNL     1       3.038   7.894  17.415  0.00  0.00    +0.000 C 
BRANCH   7  12
ATOM      9  C   UNL     1       0.242   8.950  21.700  0.00  0.00    +0.000 A 
ATOM     10  C   UNL     1       1.383   8.171  21.510  0.00  0.00    +0.000 A 
ATOM     11  C   UNL     1       1.977   8.094  20.246  0.00  0.00    +0.000 A 
ATOM     12  C   UNL     1       1.436   8.786  19.154  0.00  0.00    +0.000 A 
ATOM     13  C   UNL     1       0.256   9.519  19.338  0.00  0.00    +0.000 A 
ATOM     14 CL   UNL     1      -0.502  10.375  18.040  0.00  0.00    +0.000 Cl
ATOM     15  C   UNL     1      -0.330   9.605  20.606  0.00  0.00    +0.000 A 
BRANCH   9  17
ATOM     16  C   UNL     1      -0.920  10.471  23.114  0.00  0.00    +0.000 C 
ATOM     17  O   UNL     1      -0.394   9.168  22.891  0.00  0.00    +0.000 OA
ENDBRANCH   9  17
ENDBRANCH   7  12
ENDBRANCH   1   8
BRANCH   3  18
ATOM     18  O   UNL     1       1.588   3.328  18.416  0.00  0.00    +0.000 OA
ATOM     19  C   UNL     1       0.790   3.308  19.598  0.00  0.00    +0.000 C 
ENDBRANCH   3  18
BRANCH   4  20
ATOM     20  O   UNL     1       4.066   2.565  18.914  0.00  0.00    +0.000 OA
ATOM     21  C   UNL     1       4.263   2.273  20.294  0.00  0.00    +0.000 C 
ENDBRANCH   4  20
BRANCH   5  22
ATOM     22  O   UNL     1       6.205   4.423  18.835  0.00  0.00    +0.000 OA
ATOM     23  C   UNL     1       7.247   4.784  17.937  0.00  0.00    +0.000 C 
ENDBRANCH   5  22
TORSDOF 6
ENDMDL
MODEL 2
REMARK VINA RESULT:      -6.7      0.649      2.728
REMARK  Name = 
REMARK  10 active torsions:
REMARK  status: ('A' for Active; 'I' for Inactive)
REMARK    1  A    between atoms: C_1  and  O_2
REMARK    2  A    between atoms: O_2  and  C_3
REMARK    3  A    between atoms: C_6  and  C_7
REMARK    4  A    between atoms: C_8  and  C_9
REMARK    5  A    between atoms: C_11  and  O_12
REMARK    6  A    between atoms: O_12  and  C_13
REMARK    7  A    between atoms: C_14  and  O_15
REMARK    8  A    between atoms: O_15  and  C_16
REMARK    9  A    between atoms: C_17  and  O_18
REMARK   10  A    between atoms: O_18  and  C_19
REMARK                            x       y       z     vdW  Elec       q    Type
REMARK                         _______ _______ _______ _____ _____    ______ ____
ROOT
ATOM      1  C   UNL     1       3.217   6.598  17.960  0.00  0.00    +0.000 A 
ATOM      2  C   UNL     1       4.518   6.346  18.390  0.00  0.00    +0.000 A 
ATOM      3  C   UNL     1       4.806   5.207  19.147  0.00  0.00    +0.000 A 
ATOM      4  C   UNL     1       3.777   4.283  19.443  0.00  0.00    +0.000 A 
ATOM      5  C   UNL     1       2.472   4.506  18.952  0.00  0.00    +0.000 A 
ATOM      6  C   UNL     1       2.206   5.671  18.219  0.00  0.00    +0.000 A 
ENDROOT
BRANCH   1   8
ATOM      7  C   UNL     1       2.088   8.846  17.868  0.00  0.00    +0.000 C 
ATOM      8  C   UNL     1       2.891   7.895  17.372  0.00  0.00    +0.000 C 
BRANCH   7  12
ATOM      9  C   UNL     1       0.376   9.098  21.776  0.00  0.00    +0.000 A 
ATOM     10  C   UNL     1       1.395   8.188  21.495  0.00  0.00    +0.000 A 
ATOM     11  C   UNL     1       1.899   8.077  20.195  0.00  0.00    +0.000 A 
ATOM     12  C   UNL     1       1.386   8.865  19.155  0.00  0.00    +0.000 A 
ATOM     13  C   UNL     1       0.321   9.734  19.431  0.00  0.00    +0.000 A 
ATOM     14 CL   UNL     1      -0.398  10.718  18.204  0.00  0.00    +0.000 Cl
ATOM     15  C   UNL     1      -0.172   9.853  20.736  0.00  0.00    +0.000 A 
BRANCH   9  17
ATOM     16  C   UNL     1      -0.998  10.498  23.124  0.00  0.00    +0.000 C 
ATOM     17  O   UNL     1      -0.155   9.357  23.009  0.00  0.00    +0.000 OA
ENDBRANCH   9  17
ENDBRANCH   7  12
ENDBRANCH   1   8
BRANCH   3  18
ATOM     18  O   UNL     1       6.055   4.939  19.652  0.00  0.00    +0.000 OA
ATOM     19  C   UNL     1       7.139   5.639  19.043  0.00  0.00    +0.000 C 
ENDBRANCH   3  18
BRANCH   4  20
ATOM     20  O   UNL     1       4.159   3.179  20.173  0.00  0.00    +0.000 OA
ATOM     21  C   UNL     1       4.267   1.959  19.445  0.00  0.00    +0.000 C 
ENDBRANCH   4  20
BRANCH   5  22
ATOM     22  O   UNL     1       1.514   3.564  19.227  0.00  0.00    +0.000 OA
ATOM     23  C   UNL     1       0.765   3.700  20.428  0.00  0.00    +0.000 C 
ENDBRANCH   5  22
TORSDOF 6
ENDMDL
MODEL 3
REMARK VINA RESULT:      -6.7      3.500      6.671
REMARK  Name = 
REMARK  10 active torsions:
REMARK  status: ('A' for Active; 'I' for Inactive)
REMARK    1  A    between atoms: C_1  and  O_2
REMARK    2  A    between atoms: O_2  and  C_3
REMARK    3  A    between atoms: C_6  and  C_7
REMARK    4  A    between atoms: C_8  and  C_9
REMARK    5  A    between atoms: C_11  and  O_12
REMARK    6  A    between atoms: O_12  and  C_13
REMARK    7  A    between atoms: C_14  and  O_15
REMARK    8  A    between atoms: O_15  and  C_16
REMARK    9  A    between atoms: C_17  and  O_18
REMARK   10  A    between atoms: O_18  and  C_19
REMARK                            x       y       z     vdW  Elec       q    Type
REMARK                         _______ _______ _______ _____ _____    ______ ____
ROOT
ATOM      1  C   UNL     1       2.987   4.654  17.353  0.00  0.00    +0.000 A 
ATOM      2  C   UNL     1       4.194   4.223  16.805  0.00  0.00    +0.000 A 
ATOM      3  C   UNL     1       5.208   5.140  16.516  0.00  0.00    +0.000 A 
ATOM      4  C   UNL     1       5.025   6.508  16.820  0.00  0.00    +0.000 A 
ATOM      5  C   UNL     1       3.828   6.935  17.436  0.00  0.00    +0.000 A 
ATOM      6  C   UNL     1       2.817   5.998  17.688  0.00  0.00    +0.000 A 
ENDROOT
BRANCH   1   8
ATOM      7  C   UNL     1       1.748   2.636  18.205  0.00  0.00    +0.000 C 
ATOM      8  C   UNL     1       1.862   3.727  17.436  0.00  0.00    +0.000 C 
BRANCH   7  12
ATOM      9  C   UNL     1       4.768   1.414  20.970  0.00  0.00    +0.000 A 
ATOM     10  C   UNL     1       4.795   0.988  19.642  0.00  0.00    +0.000 A 
ATOM     11  C   UNL     1       3.763   1.348  18.769  0.00  0.00    +0.000 A 
ATOM     12  C   UNL     1       2.687   2.129  19.211  0.00  0.00    +0.000 A 
ATOM     13  C   UNL     1       2.636   2.503  20.560  0.00  0.00    +0.000 A 
ATOM     14 CL   UNL     1       1.328   3.436  21.201  0.00  0.00    +0.000 Cl
ATOM     15  C   UNL     1       3.675   2.153  21.429  0.00  0.00    +0.000 A 
BRANCH   9  17
ATOM     16  C   UNL     1       6.182  -0.146  22.080  0.00  0.00    +0.000 C 
ATOM     17  O   UNL     1       5.742   1.196  21.905  0.00  0.00    +0.000 OA
ENDBRANCH   9  17
ENDBRANCH   7  12
ENDBRANCH   1   8
BRANCH   3  18
ATOM     18  O   UNL     1       6.393   4.783  15.918  0.00  0.00    +0.000 OA
ATOM     19  C   UNL     1       6.294   4.282  14.585  0.00  0.00    +0.000 C 
ENDBRANCH   3  18
BRANCH   4  20
ATOM     20  O   UNL     1       6.087   7.334  16.523  0.00  0.00    +0.000 OA
ATOM     21  C   UNL     1       7.105   7.420  17.516  0.00  0.00    +0.000 C 
ENDBRANCH   4  20
BRANCH   5  22
ATOM     22  O   UNL     1       3.708   8.264  17.752  0.00  0.00    +0.000 OA
ATOM     23  C   UNL     1       2.412   8.771  18.041  0.00  0.00    +0.000 C 
ENDBRANCH   5  22
TORSDOF 6
ENDMDL
MODEL 4
REMARK VINA RESULT:      -6.7      2.935      6.069
REMARK  Name = 
REMARK  10 active torsions:
REMARK  status: ('A' for Active; 'I' for Inactive)
REMARK    1  A    between atoms: C_1  and  O_2
REMARK    2  A    between atoms: O_2  and  C_3
REMARK    3  A    between atoms: C_6  and  C_7
REMARK    4  A    between atoms: C_8  and  C_9
REMARK    5  A    between atoms: C_11  and  O_12
REMARK    6  A    between atoms: O_12  and  C_13
REMARK    7  A    between atoms: C_14  and  O_15
REMARK    8  A    between atoms: O_15  and  C_16
REMARK    9  A    between atoms: C_17  and  O_18
REMARK   10  A    between atoms: O_18  and  C_19
REMARK                            x       y       z     vdW  Elec       q    Type
REMARK                         _______ _______ _______ _____ _____    ______ ____
ROOT
ATOM      1  C   UNL     1       3.641   4.312  18.234  0.00  0.00    +0.000 A 
ATOM      2  C   UNL     1       3.302   3.765  19.470  0.00  0.00    +0.000 A 
ATOM      3  C   UNL     1       2.478   4.468  20.354  0.00  0.00    +0.000 A 
ATOM      4  C   UNL     1       1.955   5.726  19.974  0.00  0.00    +0.000 A 
ATOM      5  C   UNL     1       2.246   6.251  18.696  0.00  0.00    +0.000 A 
ATOM      6  C   UNL     1       3.097   5.536  17.842  0.00  0.00    +0.000 A 
ENDROOT
BRANCH   1   8
ATOM      7  C   UNL     1       5.902   4.137  17.141  0.00  0.00    +0.000 C 
ATOM      8  C   UNL     1       4.676   3.675  17.424  0.00  0.00    +0.000 C 
BRANCH   7  12
ATOM      9  C   UNL     1       8.144   7.546  18.410  0.00  0.00    +0.000 A 
ATOM     10  C   UNL     1       8.209   6.342  19.111  0.00  0.00    +0.000 A 
ATOM     11  C   UNL     1       7.419   5.257  18.717  0.00  0.00    +0.000 A 
ATOM     12  C   UNL     1       6.548   5.362  17.624  0.00  0.00    +0.000 A 
ATOM     13  C   UNL     1       6.443   6.592  16.962  0.00  0.00    +0.000 A 
ATOM     14 CL   UNL     1       5.368   6.823  15.626  0.00  0.00    +0.000 Cl
ATOM     15  C   UNL     1       7.244   7.673  17.349  0.00  0.00    +0.000 A 
BRANCH   9  17
ATOM     16  C   UNL     1       8.471   9.878  18.062  0.00  0.00    +0.000 C 
ATOM     17  O   UNL     1       8.909   8.655  18.643  0.00  0.00    +0.000 OA
ENDBRANCH   9  17
ENDBRANCH   7  12
ENDBRANCH   1   8
BRANCH   3  18
ATOM     18  O   UNL     1       2.161   4.008  21.609  0.00  0.00    +0.000 OA
ATOM     19  C   UNL     1       1.517   2.737  21.665  0.00  0.00    +0.000 C 
ENDBRANCH   3  18
BRANCH   4  20
ATOM     20  O   UNL     1       1.134   6.334  20.900  0.00  0.00    +0.000 OA
ATOM     21  C   UNL     1       1.467   7.677  21.239  0.00  0.00    +0.000 C 
ENDBRANCH   4  20
BRANCH   5  22
ATOM     22  O   UNL     1       1.684   7.453  18.354  0.00  0.00    +0.000 OA
ATOM     23  C   UNL     1       2.521   8.444  17.772  0.00  0.00    +0.000 C 
ENDBRANCH   5  22
TORSDOF 6
ENDMDL
MODEL 5
REMARK VINA RESULT:      -6.6      2.812      4.679
REMARK  Name = 
REMARK  10 active torsions:
REMARK  status: ('A' for Active; 'I' for Inactive)
REMARK    1  A    between atoms: C_1  and  O_2
REMARK    2  A    between atoms: O_2  and  C_3
REMARK    3  A    between atoms: C_6  and  C_7
REMARK    4  A    between atoms: C_8  and  C_9
REMARK    5  A    between atoms: C_11  and  O_12
REMARK    6  A    between atoms: O_12  and  C_13
REMARK    7  A    between atoms: C_14  and  O_15
REMARK    8  A    between atoms: O_15  and  C_16
REMARK    9  A    between atoms: C_17  and  O_18
REMARK   10  A    between atoms: O_18  and  C_19
REMARK                            x       y       z     vdW  Elec       q    Type
REMARK                         _______ _______ _______ _____ _____    ______ ____
ROOT
ATOM      1  C   UNL     1       4.812   4.033  17.341  0.00  0.00    +0.000 A 
ATOM      2  C   UNL     1       5.218   4.395  16.058  0.00  0.00    +0.000 A 
ATOM      3  C   UNL     1       6.251   5.319  15.876  0.00  0.00    +0.000 A 
ATOM      4  C   UNL     1       6.916   5.858  17.001  0.00  0.00    +0.000 A 
ATOM      5  C   UNL     1       6.549   5.441  18.300  0.00  0.00    +0.000 A 
ATOM      6  C   UNL     1       5.491   4.535  18.453  0.00  0.00    +0.000 A 
ENDROOT
BRANCH   1   8
ATOM      7  C   UNL     1       2.529   3.540  18.278  0.00  0.00    +0.000 C 
ATOM      8  C   UNL     1       3.592   3.250  17.517  0.00  0.00    +0.000 C 
BRANCH   7  12
ATOM      9  C   UNL     1       1.466   7.113  20.369  0.00  0.00    +0.000 A 
ATOM     10  C   UNL     1       1.996   7.165  19.080  0.00  0.00    +0.000 A 
ATOM     11  C   UNL     1       2.397   5.989  18.437  0.00  0.00    +0.000 A 
ATOM     12  C   UNL     1       2.282   4.747  19.075  0.00  0.00    +0.000 A 
ATOM     13  C   UNL     1       1.803   4.707  20.392  0.00  0.00    +0.000 A 
ATOM     14 CL   UNL     1       1.661   3.222  21.268  0.00  0.00    +0.000 Cl
ATOM     15  C   UNL     1       1.391   5.883  21.028  0.00  0.00    +0.000 A 
BRANCH   9  17
ATOM     16  C   UNL     1       0.907   9.425  20.412  0.00  0.00    +0.000 C 
ATOM     17  O   UNL     1       0.972   8.171  21.080  0.00  0.00    +0.000 OA
ENDBRANCH   9  17
ENDBRANCH   7  12
ENDBRANCH   1   8
BRANCH   3  18
ATOM     18  O   UNL     1       6.650   5.762  14.638  0.00  0.00    +0.000 OA
ATOM     19  C   UNL     1       6.849   4.754  13.647  0.00  0.00    +0.000 C 
ENDBRANCH   3  18
BRANCH   4  20
ATOM     20  O   UNL     1       7.937   6.741  16.724  0.00  0.00    +0.000 OA
ATOM     21  C   UNL     1       7.813   8.036  17.305  0.00  0.00    +0.000 C 
ENDBRANCH   4  20
BRANCH   5  22
ATOM     22  O   UNL     1       7.248   5.957  19.360  0.00  0.00    +0.000 OA
ATOM     23  C   UNL     1       8.356   5.217  19.857  0.00  0.00    +0.000 C 
ENDBRANCH   5  22
TORSDOF 6
ENDMDL
MODEL 6
REMARK VINA RESULT:      -6.6      2.935      6.751
REMARK  Name = 
REMARK  10 active torsions:
REMARK  status: ('A' for Active; 'I' for Inactive)
REMARK    1  A    between atoms: C_1  and  O_2
REMARK    2  A    between atoms: O_2  and  C_3
REMARK    3  A    between atoms: C_6  and  C_7
REMARK    4  A    between atoms: C_8  and  C_9
REMARK    5  A    between atoms: C_11  and  O_12
REMARK    6  A    between atoms: O_12  and  C_13
REMARK    7  A    between atoms: C_14  and  O_15
REMARK    8  A    between atoms: O_15  and  C_16
REMARK    9  A    between atoms: C_17  and  O_18
REMARK   10  A    between atoms: O_18  and  C_19
REMARK                            x       y       z     vdW  Elec       q    Type
REMARK                         _______ _______ _______ _____ _____    ______ ____
ROOT
ATOM      1  C   UNL     1       4.929   5.049  19.382  0.00  0.00    +0.000 A 
ATOM      2  C   UNL     1       4.818   3.672  19.202  0.00  0.00    +0.000 A 
ATOM      3  C   UNL     1       3.637   3.006  19.540  0.00  0.00    +0.000 A 
ATOM      4  C   UNL     1       2.533   3.741  20.030  0.00  0.00    +0.000 A 
ATOM      5  C   UNL     1       2.623   5.145  20.150  0.00  0.00    +0.000 A 
ATOM      6  C   UNL     1       3.829   5.783  19.830  0.00  0.00    +0.000 A 
ENDROOT
BRANCH   1   8
ATOM      7  C   UNL     1       6.956   5.852  18.126  0.00  0.00    +0.000 C 
ATOM      8  C   UNL     1       6.233   5.692  19.242  0.00  0.00    +0.000 C 
BRANCH   7  12
ATOM      9  C   UNL     1       5.766   4.443  14.270  0.00  0.00    +0.000 A 
ATOM     10  C   UNL     1       6.882   3.912  14.916  0.00  0.00    +0.000 A 
ATOM     11  C   UNL     1       7.292   4.430  16.149  0.00  0.00    +0.000 A 
ATOM     12  C   UNL     1       6.601   5.491  16.750  0.00  0.00    +0.000 A 
ATOM     13  C   UNL     1       5.516   6.059  16.067  0.00  0.00    +0.000 A 
ATOM     14 CL   UNL     1       4.626   7.394  16.715  0.00  0.00    +0.000 Cl
ATOM     15  C   UNL     1       5.100   5.531  14.840  0.00  0.00    +0.000 A 
BRANCH   9  17
ATOM     16  C   UNL     1       6.072   3.259  12.229  0.00  0.00    +0.000 C 
ATOM     17  O   UNL     1       5.218   3.987  13.104  0.00  0.00    +0.000 OA
ENDBRANCH   9  17
ENDBRANCH   7  12
ENDBRANCH   1   8
BRANCH   3  18
ATOM     18  O   UNL     1       3.492   1.643  19.445  0.00  0.00    +0.000 OA
ATOM     19  C   UNL     1       3.811   1.067  18.179  0.00  0.00    +0.000 C 
ENDBRANCH   3  18
BRANCH   4  20
ATOM     20  O   UNL     1       1.403   3.004  20.314  0.00  0.00    +0.000 OA
ATOM     21  C   UNL     1       0.537   2.746  19.214  0.00  0.00    +0.000 C 
ENDBRANCH   4  20
BRANCH   5  22
ATOM     22  O   UNL     1       1.515   5.823  20.589  0.00  0.00    +0.000 OA
ATOM     23  C   UNL     1       1.590   7.240  20.687  0.00  0.00    +0.000 C 
ENDBRANCH   5  22
TORSDOF 6
ENDMDL
MODEL 7
REMARK VINA RESULT:      -6.4      3.084      5.990
REMARK  Name = 
REMARK  10 active torsions:
REMARK  status: ('A' for Active; 'I' for Inactive)
REMARK    1  A    between atoms: C_1  and  O_2
REMARK    2  A    between atoms: O_2  and  C_3
REMARK    3  A    between atoms: C_6  and  C_7
REMARK    4  A    between atoms: C_8  and  C_9
REMARK    5  A    between atoms: C_11  and  O_12
REMARK    6  A    between atoms: O_12  and  C_13
REMARK    7  A    between atoms: C_14  and  O_15
REMARK    8  A    between atoms: O_15  and  C_16
REMARK    9  A    between atoms: C_17  and  O_18
REMARK   10  A    between atoms: O_18  and  C_19
REMARK                            x       y       z     vdW  Elec       q    Type
REMARK                         _______ _______ _______ _____ _____    ______ ____
ROOT
ATOM      1  C   UNL     1       3.819   3.380  17.897  0.00  0.00    +0.000 A 
ATOM      2  C   UNL     1       4.198   2.434  18.848  0.00  0.00    +0.000 A 
ATOM      3  C   UNL     1       3.736   2.527  20.163  0.00  0.00    +0.000 A 
ATOM      4  C   UNL     1       2.846   3.565  20.522  0.00  0.00    +0.000 A 
ATOM      5  C   UNL     1       2.410   4.485  19.543  0.00  0.00    +0.000 A 
ATOM      6  C   UNL     1       2.912   4.384  18.239  0.00  0.00    +0.000 A 
ENDROOT
BRANCH   1   8
ATOM      7  C   UNL     1       5.456   4.225  16.183  0.00  0.00    +0.000 C 
ATOM      8  C   UNL     1       4.485   3.401  16.597  0.00  0.00    +0.000 C 
BRANCH   7  12
ATOM      9  C   UNL     1       7.831   7.151  18.200  0.00  0.00    +0.000 A 
ATOM     10  C   UNL     1       7.916   5.800  18.537  0.00  0.00    +0.000 A 
ATOM     11  C   UNL     1       7.085   4.867  17.909  0.00  0.00    +0.000 A 
ATOM     12  C   UNL     1       6.152   5.269  16.943  0.00  0.00    +0.000 A 
ATOM     13  C   UNL     1       6.030   6.635  16.653  0.00  0.00    +0.000 A 
ATOM     14 CL   UNL     1       4.882   7.226  15.501  0.00  0.00    +0.000 Cl
ATOM     15  C   UNL     1       6.872   7.566  17.272  0.00  0.00    +0.000 A 
BRANCH   9  17
ATOM     16  C   UNL     1       8.403   9.461  18.170  0.00  0.00    +0.000 C 
ATOM     17  O   UNL     1       8.628   8.152  18.681  0.00  0.00    +0.000 OA
ENDBRANCH   9  17
ENDBRANCH   7  12
ENDBRANCH   1   8
BRANCH   3  18
ATOM     18  O   UNL     1       4.126   1.662  21.157  0.00  0.00    +0.000 OA
ATOM     19  C   UNL     1       5.410   1.062  20.997  0.00  0.00    +0.000 C 
ENDBRANCH   3  18
BRANCH   4  20
ATOM     20  O   UNL     1       2.424   3.563  21.834  0.00  0.00    +0.000 OA
ATOM     21  C   UNL     1       1.209   2.868  22.096  0.00  0.00    +0.000 C 
ENDBRANCH   4  20
BRANCH   5  22
ATOM     22  O   UNL     1       1.515   5.450  19.925  0.00  0.00    +0.000 OA
ATOM     23  C   UNL     1       1.994   6.775  20.112  0.00  0.00    +0.000 C 
ENDBRANCH   5  22
TORSDOF 6
ENDMDL
MODEL 8
REMARK VINA RESULT:      -6.3      2.919      6.627
REMARK  Name = 
REMARK  10 active torsions:
REMARK  status: ('A' for Active; 'I' for Inactive)
REMARK    1  A    between atoms: C_1  and  O_2
REMARK    2  A    between atoms: O_2  and  C_3
REMARK    3  A    between atoms: C_6  and  C_7
REMARK    4  A    between atoms: C_8  and  C_9
REMARK    5  A    between atoms: C_11  and  O_12
REMARK    6  A    between atoms: O_12  and  C_13
REMARK    7  A    between atoms: C_14  and  O_15
REMARK    8  A    between atoms: O_15  and  C_16
REMARK    9  A    between atoms: C_17  and  O_18
REMARK   10  A    between atoms: O_18  and  C_19
REMARK                            x       y       z     vdW  Elec       q    Type
REMARK                         _______ _______ _______ _____ _____    ______ ____
ROOT
ATOM      1  C   UNL     1       5.336   5.144  19.405  0.00  0.00    +0.000 A 
ATOM      2  C   UNL     1       4.201   5.939  19.552  0.00  0.00    +0.000 A 
ATOM      3  C   UNL     1       2.930   5.359  19.591  0.00  0.00    +0.000 A 
ATOM      4  C   UNL     1       2.798   3.953  19.521  0.00  0.00    +0.000 A 
ATOM      5  C   UNL     1       3.951   3.144  19.438  0.00  0.00    +0.000 A 
ATOM      6  C   UNL     1       5.211   3.754  19.373  0.00  0.00    +0.000 A 
ENDROOT
BRANCH   1   8
ATOM      7  C   UNL     1       7.248   5.910  17.959  0.00  0.00    +0.000 C 
ATOM      8  C   UNL     1       6.626   5.772  19.138  0.00  0.00    +0.000 C 
BRANCH   7  12
ATOM      9  C   UNL     1       5.700   4.459  14.249  0.00  0.00    +0.000 A 
ATOM     10  C   UNL     1       6.857   3.916  14.807  0.00  0.00    +0.000 A 
ATOM     11  C   UNL     1       7.383   4.446  15.990  0.00  0.00    +0.000 A 
ATOM     12  C   UNL     1       6.767   5.533  16.626  0.00  0.00    +0.000 A 
ATOM     13  C   UNL     1       5.639   6.112  16.029  0.00  0.00    +0.000 A 
ATOM     14 CL   UNL     1       4.835   7.477  16.725  0.00  0.00    +0.000 Cl
ATOM     15  C   UNL     1       5.107   5.571  14.853  0.00  0.00    +0.000 A 
BRANCH   9  17
ATOM     16  C   UNL     1       5.796   3.206  12.229  0.00  0.00    +0.000 C 
ATOM     17  O   UNL     1       5.043   3.994  13.144  0.00  0.00    +0.000 OA
ENDBRANCH   9  17
ENDBRANCH   7  12
ENDBRANCH   1   8
BRANCH   3  18
ATOM     18  O   UNL     1       1.773   6.096  19.670  0.00  0.00    +0.000 OA
ATOM     19  C   UNL     1       1.763   7.144  20.638  0.00  0.00    +0.000 C 
ENDBRANCH   3  18
BRANCH   4  20
ATOM     20  O   UNL     1       1.508   3.471  19.591  0.00  0.00    +0.000 OA
ATOM     21  C   UNL     1       1.096   2.980  20.863  0.00  0.00    +0.000 C 
ENDBRANCH   4  20
BRANCH   5  22
ATOM     22  O   UNL     1       3.780   1.784  19.415  0.00  0.00    +0.000 OA
ATOM     23  C   UNL     1       3.775   1.129  18.153  0.00  0.00    +0.000 C 
ENDBRANCH   5  22
TORSDOF 6
ENDMDL
MODEL 9
REMARK VINA RESULT:      -6.3      3.170      5.842
REMARK  Name = 
REMARK  10 active torsions:
REMARK  status: ('A' for Active; 'I' for Inactive)
REMARK    1  A    between atoms: C_1  and  O_2
REMARK    2  A    between atoms: O_2  and  C_3
REMARK    3  A    between atoms: C_6  and  C_7
REMARK    4  A    between atoms: C_8  and  C_9
REMARK    5  A    between atoms: C_11  and  O_12
REMARK    6  A    between atoms: O_12  and  C_13
REMARK    7  A    between atoms: C_14  and  O_15
REMARK    8  A    between atoms: O_15  and  C_16
REMARK    9  A    between atoms: C_17  and  O_18
REMARK   10  A    between atoms: O_18  and  C_19
REMARK                            x       y       z     vdW  Elec       q    Type
REMARK                         _______ _______ _______ _____ _____    ______ ____
ROOT
ATOM      1  C   UNL     1       4.011   3.478  18.527  0.00  0.00    +0.000 A 
ATOM      2  C   UNL     1       2.946   4.322  18.835  0.00  0.00    +0.000 A 
ATOM      3  C   UNL     1       2.283   4.210  20.060  0.00  0.00    +0.000 A 
ATOM      4  C   UNL     1       2.722   3.259  21.010  0.00  0.00    +0.000 A 
ATOM      5  C   UNL     1       3.842   2.447  20.724  0.00  0.00    +0.000 A 
ATOM      6  C   UNL     1       4.469   2.563  19.477  0.00  0.00    +0.000 A 
ENDROOT
BRANCH   1   8
ATOM      7  C   UNL     1       5.440   4.281  16.618  0.00  0.00    +0.000 C 
ATOM      8  C   UNL     1       4.541   3.453  17.167  0.00  0.00    +0.000 C 
BRANCH   7  12
ATOM      9  C   UNL     1       7.919   7.351  18.261  0.00  0.00    +0.000 A 
ATOM     10  C   UNL     1       8.037   6.028  18.686  0.00  0.00    +0.000 A 
ATOM     11  C   UNL     1       7.174   5.049  18.182  0.00  0.00    +0.000 A 
ATOM     12  C   UNL     1       6.176   5.379  17.255  0.00  0.00    +0.000 A 
ATOM     13  C   UNL     1       6.024   6.720  16.877  0.00  0.00    +0.000 A 
ATOM     14 CL   UNL     1       4.798   7.223  15.766  0.00  0.00    +0.000 Cl
ATOM     15  C   UNL     1       6.897   7.695  17.372  0.00  0.00    +0.000 A 
BRANCH   9  17
ATOM     16  C   UNL     1       8.461   9.657  18.039  0.00  0.00    +0.000 C 
ATOM     17  O   UNL     1       8.738   8.386  18.616  0.00  0.00    +0.000 OA
ENDBRANCH   9  17
ENDBRANCH   7  12
ENDBRANCH   1   8
BRANCH   3  18
ATOM     18  O   UNL     1       1.188   4.971  20.392  0.00  0.00    +0.000 OA
ATOM     19  C   UNL     1       1.450   6.337  20.710  0.00  0.00    +0.000 C 
ENDBRANCH   3  18
BRANCH   4  20
ATOM     20  O   UNL     1       2.023   3.236  22.198  0.00  0.00    +0.000 OA
ATOM     21  C   UNL     1       1.064   2.192  22.335  0.00  0.00    +0.000 C 
ENDBRANCH   4  20
BRANCH   5  22
ATOM     22  O   UNL     1       4.259   1.568  21.690  0.00  0.00    +0.000 OA
ATOM     23  C   UNL     1       5.472   0.859  21.474  0.00  0.00    +0.000 C 
ENDBRANCH   5  22
TORSDOF 6
ENDMDL
