MODEL 1
REMARK VINA RESULT:      -8.2      0.000      0.000
REMARK  Name = 
REMARK  9 active torsions:
REMARK  status: ('A' for Active; 'I' for Inactive)
REMARK    1  A    between atoms: C_2  and  C_4
REMARK    2  A    between atoms: C_8  and  C_9
REMARK    3  A    between atoms: N_16  and  C_17
REMARK    4  A    between atoms: C_17  and  C_18
REMARK    5  A    between atoms: C_18  and  N_19
REMARK    6  A    between atoms: N_19  and  C_20
REMARK    7  A    between atoms: C_20  and  C_21
REMARK    8  A    between atoms: C_28  and  C_30
REMARK    9  A    between atoms: C_30  and  O_31
REMARK                            x       y       z     vdW  Elec       q    Type
REMARK                         _______ _______ _______ _____ _____    ______ ____
ROOT
ATOM      1  C   UNL     1       2.604   6.753  18.783  0.00  0.00    +0.000 C 
ATOM      2  C   UNL     1       1.782   5.787  17.903  0.00  0.00    +0.000 C 
ATOM      3  C   UNL     1       1.637   4.349  18.451  0.00  0.00    +0.000 C 
ATOM      4  C   UNL     1       1.005   4.235  19.840  0.00  0.00    +0.000 C 
ATOM      5  C   UNL     1       2.178   4.376  20.814  0.00  0.00    +0.000 C 
ATOM      6  C   UNL     1       3.406   4.520  19.905  0.00  0.00    +0.000 C 
ATOM      7  C   UNL     1       3.686   6.008  19.622  0.00  0.00    +0.000 C 
ATOM      8  N   UNL     1       2.939   3.752  18.762  0.00  0.00    +0.000 NA
ENDROOT
BRANCH   1  13
ATOM      9  C   UNL     1       0.891  10.011  19.803  0.00  0.00    +0.000 A 
ATOM     10  C   UNL     1       0.721   9.845  21.180  0.00  0.00    +0.000 A 
ATOM     11  C   UNL     1       1.030   8.620  21.774  0.00  0.00    +0.000 A 
ATOM     12  C   UNL     1       1.566   7.579  21.011  0.00  0.00    +0.000 A 
ATOM     13  C   UNL     1       1.823   7.744  19.647  0.00  0.00    +0.000 A 
ATOM     14  C   UNL     1       1.391   8.941  19.047  0.00  0.00    +0.000 A 
BRANCH   9  16
ATOM     15  N   UNL     1       1.499  12.351  19.364  0.00  0.00    +0.000 N 
ATOM     16  C   UNL     1       0.672  11.305  19.087  0.00  0.00    +0.000 C 
ATOM     17  O   UNL     1      -0.224  11.444  18.260  0.00  0.00    +0.000 OA
ATOM     18  H   UNL     1       1.339  13.198  18.830  0.00  0.00    +0.000 HD
ATOM     19  H   UNL     1       2.206  12.366  20.079  0.00  0.00    +0.000 HD
ENDBRANCH   9  16
ENDBRANCH   1  13
BRANCH   8  20
ATOM     20  C   UNL     1       3.796   3.519  17.598  0.00  0.00    +0.000 C 
BRANCH  20  21
ATOM     21  C   UNL     1       5.311   3.540  17.884  0.00  0.00    +0.000 C 
BRANCH  21  22
ATOM     22  N   UNL     1       5.968   4.786  17.424  0.00  0.00    +0.000 N 
ATOM     23  C   UNL     1       6.893   5.390  18.275  0.00  0.00    +0.000 C 
ATOM     24  O   UNL     1       7.227   4.892  19.355  0.00  0.00    +0.000 OA
BRANCH  22  25
ATOM     25  C   UNL     1       5.452   5.426  16.212  0.00  0.00    +0.000 C 
BRANCH  25  26
ATOM     26  C   UNL     1       6.061   5.011  14.887  0.00  0.00    +0.000 A 
ATOM     27  C   UNL     1       5.407   3.997  14.158  0.00  0.00    +0.000 A 
ATOM     28  C   UNL     1       5.860   3.593  12.899  0.00  0.00    +0.000 A 
ATOM     29  C   UNL     1       7.009   4.164  12.364  0.00  0.00    +0.000 A 
ATOM     30  C   UNL     1       7.703   5.110  13.105  0.00  0.00    +0.000 A 
ATOM     31  F   UNL     1       8.834   5.627  12.609  0.00  0.00    +0.000 F 
ATOM     32  C   UNL     1       7.241   5.540  14.352  0.00  0.00    +0.000 A 
ENDBRANCH  25  26
ENDBRANCH  22  25
BRANCH  23  33
ATOM     33  C   UNL     1       7.496   6.748  17.875  0.00  0.00    +0.000 C 
BRANCH  33  34
ATOM     34  O   UNL     1       8.393   7.243  18.864  0.00  0.00    +0.000 OA
ATOM     35  H   UNL     1       8.367   6.593  19.595  0.00  0.00    +0.000 HD
ENDBRANCH  33  34
ENDBRANCH  23  33
ENDBRANCH  21  22
ENDBRANCH  20  21
ENDBRANCH   8  20
TORSDOF 9
ENDMDL
MODEL 2
REMARK VINA RESULT:      -8.1      3.679      8.279
REMARK  Name = 
REMARK  9 active torsions:
REMARK  status: ('A' for Active; 'I' for Inactive)
REMARK    1  A    between atoms: C_2  and  C_4
REMARK    2  A    between atoms: C_8  and  C_9
REMARK    3  A    between atoms: N_16  and  C_17
REMARK    4  A    between atoms: C_17  and  C_18
REMARK    5  A    between atoms: C_18  and  N_19
REMARK    6  A    between atoms: N_19  and  C_20
REMARK    7  A    between atoms: C_20  and  C_21
REMARK    8  A    between atoms: C_28  and  C_30
REMARK    9  A    between atoms: C_30  and  O_31
REMARK                            x       y       z     vdW  Elec       q    Type
REMARK                         _______ _______ _______ _____ _____    ______ ____
ROOT
ATOM      1  C   UNL     1       6.077   4.129  16.100  0.00  0.00    +0.000 C 
ATOM      2  C   UNL     1       4.801   4.849  16.589  0.00  0.00    +0.000 C 
ATOM      3  C   UNL     1       5.036   6.148  17.391  0.00  0.00    +0.000 C 
ATOM      4  C   UNL     1       5.834   7.234  16.666  0.00  0.00    +0.000 C 
ATOM      5  C   UNL     1       7.300   6.906  16.968  0.00  0.00    +0.000 C 
ATOM      6  C   UNL     1       7.229   5.675  17.882  0.00  0.00    +0.000 C 
ATOM      7  C   UNL     1       7.293   4.385  17.042  0.00  0.00    +0.000 C 
ATOM      8  N   UNL     1       5.947   5.934  18.519  0.00  0.00    +0.000 NA
ENDROOT
BRANCH   1  13
ATOM      9  C   UNL     1       6.267   3.445  12.348  0.00  0.00    +0.000 A 
ATOM     10  C   UNL     1       7.332   4.257  11.946  0.00  0.00    +0.000 A 
ATOM     11  C   UNL     1       7.910   5.142  12.857  0.00  0.00    +0.000 A 
ATOM     12  C   UNL     1       7.473   5.178  14.183  0.00  0.00    +0.000 A 
ATOM     13  C   UNL     1       6.466   4.320  14.634  0.00  0.00    +0.000 A 
ATOM     14  C   UNL     1       5.815   3.525  13.673  0.00  0.00    +0.000 A 
BRANCH   9  16
ATOM     15  N   UNL     1       6.376   1.317  11.125  0.00  0.00    +0.000 N 
ATOM     16  C   UNL     1       5.638   2.406  11.476  0.00  0.00    +0.000 C 
ATOM     17  O   UNL     1       4.482   2.508  11.078  0.00  0.00    +0.000 OA
ATOM     18  H   UNL     1       5.900   0.619  10.565  0.00  0.00    +0.000 HD
ATOM     19  H   UNL     1       7.351   1.178  11.329  0.00  0.00    +0.000 HD
ENDBRANCH   9  16
ENDBRANCH   1  13
BRANCH   8  20
ATOM     20  C   UNL     1       5.425   5.053  19.565  0.00  0.00    +0.000 C 
BRANCH  20  21
ATOM     21  C   UNL     1       4.594   3.856  19.061  0.00  0.00    +0.000 C 
BRANCH  21  22
ATOM     22  N   UNL     1       3.212   3.848  19.594  0.00  0.00    +0.000 N 
ATOM     23  C   UNL     1       2.914   2.957  20.625  0.00  0.00    +0.000 C 
ATOM     24  O   UNL     1       3.768   2.233  21.145  0.00  0.00    +0.000 OA
BRANCH  22  25
ATOM     25  C   UNL     1       2.192   4.609  18.869  0.00  0.00    +0.000 C 
BRANCH  25  26
ATOM     26  C   UNL     1       2.003   6.064  19.247  0.00  0.00    +0.000 A 
ATOM     27  C   UNL     1       2.181   7.029  18.235  0.00  0.00    +0.000 A 
ATOM     28  C   UNL     1       1.966   8.389  18.476  0.00  0.00    +0.000 A 
ATOM     29  C   UNL     1       1.615   8.817  19.750  0.00  0.00    +0.000 A 
ATOM     30  C   UNL     1       1.509   7.884  20.773  0.00  0.00    +0.000 A 
ATOM     31  F   UNL     1       1.215   8.302  22.010  0.00  0.00    +0.000 F 
ATOM     32  C   UNL     1       1.694   6.520  20.534  0.00  0.00    +0.000 A 
ENDBRANCH  25  26
ENDBRANCH  22  25
BRANCH  23  33
ATOM     33  C   UNL     1       1.458   2.841  21.111  0.00  0.00    +0.000 C 
BRANCH  33  34
ATOM     34  O   UNL     1       1.384   2.500  22.491  0.00  0.00    +0.000 OA
ATOM     35  H   UNL     1       1.526   3.337  22.979  0.00  0.00    +0.000 HD
ENDBRANCH  33  34
ENDBRANCH  23  33
ENDBRANCH  21  22
ENDBRANCH  20  21
ENDBRANCH   8  20
TORSDOF 9
ENDMDL
MODEL 3
REMARK VINA RESULT:      -8.1      3.141      8.324
REMARK  Name = 
REMARK  9 active torsions:
REMARK  status: ('A' for Active; 'I' for Inactive)
REMARK    1  A    between atoms: C_2  and  C_4
REMARK    2  A    between atoms: C_8  and  C_9
REMARK    3  A    between atoms: N_16  and  C_17
REMARK    4  A    between atoms: C_17  and  C_18
REMARK    5  A    between atoms: C_18  and  N_19
REMARK    6  A    between atoms: N_19  and  C_20
REMARK    7  A    between atoms: C_20  and  C_21
REMARK    8  A    between atoms: C_28  and  C_30
REMARK    9  A    between atoms: C_30  and  O_31
REMARK                            x       y       z     vdW  Elec       q    Type
REMARK                         _______ _______ _______ _____ _____    ______ ____
ROOT
ATOM      1  C   UNL     1       5.072   5.048  15.632  0.00  0.00    +0.000 C 
ATOM      2  C   UNL     1       5.137   6.471  16.227  0.00  0.00    +0.000 C 
ATOM      3  C   UNL     1       6.105   6.652  17.417  0.00  0.00    +0.000 C 
ATOM      4  C   UNL     1       7.565   6.287  17.138  0.00  0.00    +0.000 C 
ATOM      5  C   UNL     1       7.653   4.785  17.428  0.00  0.00    +0.000 C 
ATOM      6  C   UNL     1       6.241   4.409  17.895  0.00  0.00    +0.000 C 
ATOM      7  C   UNL     1       5.389   3.952  16.694  0.00  0.00    +0.000 C 
ATOM      8  N   UNL     1       5.845   5.679  18.483  0.00  0.00    +0.000 NA
ENDROOT
BRANCH   1  13
ATOM      9  C   UNL     1       6.030   3.421  12.312  0.00  0.00    +0.000 A 
ATOM     10  C   UNL     1       7.314   3.925  12.087  0.00  0.00    +0.000 A 
ATOM     11  C   UNL     1       7.830   4.908  12.933  0.00  0.00    +0.000 A 
ATOM     12  C   UNL     1       7.098   5.345  14.039  0.00  0.00    +0.000 A 
ATOM     13  C   UNL     1       5.845   4.799  14.336  0.00  0.00    +0.000 A 
ATOM     14  C   UNL     1       5.293   3.902  13.404  0.00  0.00    +0.000 A 
BRANCH   9  16
ATOM     15  N   UNL     1       6.138   1.165  11.345  0.00  0.00    +0.000 N 
ATOM     16  C   UNL     1       5.421   2.309  11.518  0.00  0.00    +0.000 C 
ATOM     17  O   UNL     1       4.301   2.402  11.028  0.00  0.00    +0.000 OA
ATOM     18  H   UNL     1       5.675   0.423  10.832  0.00  0.00    +0.000 HD
ATOM     19  H   UNL     1       7.091   1.019  11.633  0.00  0.00    +0.000 HD
ENDBRANCH   9  16
ENDBRANCH   1  13
BRANCH   8  20
ATOM     20  C   UNL     1       4.552   5.840  19.151  0.00  0.00    +0.000 C 
BRANCH  20  21
ATOM     21  C   UNL     1       3.418   6.384  18.262  0.00  0.00    +0.000 C 
BRANCH  21  22
ATOM     22  N   UNL     1       2.389   7.125  19.028  0.00  0.00    +0.000 N 
ATOM     23  C   UNL     1       2.041   8.403  18.591  0.00  0.00    +0.000 C 
ATOM     24  O   UNL     1       2.507   8.904  17.563  0.00  0.00    +0.000 OA
BRANCH  22  25
ATOM     25  C   UNL     1       1.960   6.571  20.314  0.00  0.00    +0.000 C 
BRANCH  25  26
ATOM     26  C   UNL     1       1.741   5.073  20.394  0.00  0.00    +0.000 A 
ATOM     27  C   UNL     1       2.239   4.401  21.528  0.00  0.00    +0.000 A 
ATOM     28  C   UNL     1       2.031   3.032  21.717  0.00  0.00    +0.000 A 
ATOM     29  C   UNL     1       1.358   2.296  20.749  0.00  0.00    +0.000 A 
ATOM     30  C   UNL     1       0.927   2.933  19.593  0.00  0.00    +0.000 A 
ATOM     31  F   UNL     1       0.319   2.216  18.640  0.00  0.00    +0.000 F 
ATOM     32  C   UNL     1       1.107   4.307  19.409  0.00  0.00    +0.000 A 
ENDBRANCH  25  26
ENDBRANCH  22  25
BRANCH  23  33
ATOM     33  C   UNL     1       1.067   9.241  19.439  0.00  0.00    +0.000 C 
BRANCH  33  34
ATOM     34  O   UNL     1       0.286  10.121  18.637  0.00  0.00    +0.000 OA
ATOM     35  H   UNL     1       0.825  10.933  18.533  0.00  0.00    +0.000 HD
ENDBRANCH  33  34
ENDBRANCH  23  33
ENDBRANCH  21  22
ENDBRANCH  20  21
ENDBRANCH   8  20
TORSDOF 9
ENDMDL
MODEL 4
REMARK VINA RESULT:      -8.1      1.152      1.429
REMARK  Name = 
REMARK  9 active torsions:
REMARK  status: ('A' for Active; 'I' for Inactive)
REMARK    1  A    between atoms: C_2  and  C_4
REMARK    2  A    between atoms: C_8  and  C_9
REMARK    3  A    between atoms: N_16  and  C_17
REMARK    4  A    between atoms: C_17  and  C_18
REMARK    5  A    between atoms: C_18  and  N_19
REMARK    6  A    between atoms: N_19  and  C_20
REMARK    7  A    between atoms: C_20  and  C_21
REMARK    8  A    between atoms: C_28  and  C_30
REMARK    9  A    between atoms: C_30  and  O_31
REMARK                            x       y       z     vdW  Elec       q    Type
REMARK                         _______ _______ _______ _____ _____    ______ ____
ROOT
ATOM      1  C   UNL     1       2.832   6.465  18.665  0.00  0.00    +0.000 C 
ATOM      2  C   UNL     1       2.029   5.522  17.743  0.00  0.00    +0.000 C 
ATOM      3  C   UNL     1       1.816   4.089  18.281  0.00  0.00    +0.000 C 
ATOM      4  C   UNL     1       1.111   3.993  19.636  0.00  0.00    +0.000 C 
ATOM      5  C   UNL     1       2.237   4.101  20.669  0.00  0.00    +0.000 C 
ATOM      6  C   UNL     1       3.513   4.210  19.824  0.00  0.00    +0.000 C 
ATOM      7  C   UNL     1       3.849   5.690  19.557  0.00  0.00    +0.000 C 
ATOM      8  N   UNL     1       3.083   3.455  18.657  0.00  0.00    +0.000 NA
ENDROOT
BRANCH   1  13
ATOM      9  C   UNL     1       1.184   9.777  19.612  0.00  0.00    +0.000 A 
ATOM     10  C   UNL     1       0.921   9.606  20.975  0.00  0.00    +0.000 A 
ATOM     11  C   UNL     1       1.144   8.365  21.572  0.00  0.00    +0.000 A 
ATOM     12  C   UNL     1       1.687   7.311  20.833  0.00  0.00    +0.000 A 
ATOM     13  C   UNL     1       2.036   7.478  19.489  0.00  0.00    +0.000 A 
ATOM     14  C   UNL     1       1.690   8.696  18.877  0.00  0.00    +0.000 A 
BRANCH   9  16
ATOM     15  N   UNL     1      -0.072  11.820  19.078  0.00  0.00    +0.000 N 
ATOM     16  C   UNL     1       1.060  11.086  18.899  0.00  0.00    +0.000 C 
ATOM     17  O   UNL     1       1.948  11.511  18.167  0.00  0.00    +0.000 OA
ATOM     18  H   UNL     1      -0.100  12.717  18.606  0.00  0.00    +0.000 HD
ATOM     19  H   UNL     1      -0.887  11.527  19.588  0.00  0.00    +0.000 HD
ENDBRANCH   9  16
ENDBRANCH   1  13
BRANCH   8  20
ATOM     20  C   UNL     1       3.992   3.199  17.538  0.00  0.00    +0.000 C 
BRANCH  20  21
ATOM     21  C   UNL     1       5.484   3.446  17.834  0.00  0.00    +0.000 C 
BRANCH  21  22
ATOM     22  N   UNL     1       6.022   4.634  17.132  0.00  0.00    +0.000 N 
ATOM     23  C   UNL     1       7.041   5.355  17.753  0.00  0.00    +0.000 C 
ATOM     24  O   UNL     1       7.548   5.003  18.823  0.00  0.00    +0.000 OA
BRANCH  22  25
ATOM     25  C   UNL     1       5.312   5.108  15.942  0.00  0.00    +0.000 C 
BRANCH  25  26
ATOM     26  C   UNL     1       5.842   4.674  14.590  0.00  0.00    +0.000 A 
ATOM     27  C   UNL     1       7.063   5.230  14.159  0.00  0.00    +0.000 A 
ATOM     28  C   UNL     1       7.659   4.843  12.955  0.00  0.00    +0.000 A 
ATOM     29  C   UNL     1       7.018   3.925  12.132  0.00  0.00    +0.000 A 
ATOM     30  C   UNL     1       5.779   3.426  12.511  0.00  0.00    +0.000 A 
ATOM     31  F   UNL     1       5.141   2.575  11.697  0.00  0.00    +0.000 F 
ATOM     32  C   UNL     1       5.190   3.786  13.726  0.00  0.00    +0.000 A 
ENDBRANCH  25  26
ENDBRANCH  22  25
BRANCH  23  33
ATOM     33  C   UNL     1       7.532   6.662  17.103  0.00  0.00    +0.000 C 
BRANCH  33  34
ATOM     34  O   UNL     1       6.583   7.714  17.245  0.00  0.00    +0.000 OA
ATOM     35  H   UNL     1       5.773   7.404  16.792  0.00  0.00    +0.000 HD
ENDBRANCH  33  34
ENDBRANCH  23  33
ENDBRANCH  21  22
ENDBRANCH  20  21
ENDBRANCH   8  20
TORSDOF 9
ENDMDL
MODEL 5
REMARK VINA RESULT:      -7.9      3.300      8.065
REMARK  Name = 
REMARK  9 active torsions:
REMARK  status: ('A' for Active; 'I' for Inactive)
REMARK    1  A    between atoms: C_2  and  C_4
REMARK    2  A    between atoms: C_8  and  C_9
REMARK    3  A    between atoms: N_16  and  C_17
REMARK    4  A    between atoms: C_17  and  C_18
REMARK    5  A    between atoms: C_18  and  N_19
REMARK    6  A    between atoms: N_19  and  C_20
REMARK    7  A    between atoms: C_20  and  C_21
REMARK    8  A    between atoms: C_28  and  C_30
REMARK    9  A    between atoms: C_30  and  O_31
REMARK                            x       y       z     vdW  Elec       q    Type
REMARK                         _______ _______ _______ _____ _____    ______ ____
ROOT
ATOM      1  C   UNL     1       6.107   4.199  16.116  0.00  0.00    +0.000 C 
ATOM      2  C   UNL     1       4.853   4.954  16.607  0.00  0.00    +0.000 C 
ATOM      3  C   UNL     1       5.126   6.251  17.401  0.00  0.00    +0.000 C 
ATOM      4  C   UNL     1       5.947   7.312  16.665  0.00  0.00    +0.000 C 
ATOM      5  C   UNL     1       7.406   6.948  16.960  0.00  0.00    +0.000 C 
ATOM      6  C   UNL     1       7.309   5.725  17.881  0.00  0.00    +0.000 C 
ATOM      7  C   UNL     1       7.334   4.429  17.048  0.00  0.00    +0.000 C 
ATOM      8  N   UNL     1       6.038   6.020  18.525  0.00  0.00    +0.000 NA
ENDROOT
BRANCH   1  13
ATOM      9  C   UNL     1       6.223   3.514  12.360  0.00  0.00    +0.000 A 
ATOM     10  C   UNL     1       7.326   4.267  11.949  0.00  0.00    +0.000 A 
ATOM     11  C   UNL     1       7.961   5.117  12.856  0.00  0.00    +0.000 A 
ATOM     12  C   UNL     1       7.540   5.174  14.187  0.00  0.00    +0.000 A 
ATOM     13  C   UNL     1       6.492   4.371  14.646  0.00  0.00    +0.000 A 
ATOM     14  C   UNL     1       5.789   3.615  13.690  0.00  0.00    +0.000 A 
BRANCH   9  16
ATOM     15  N   UNL     1       6.159   1.335  11.226  0.00  0.00    +0.000 N 
ATOM     16  C   UNL     1       5.529   2.513  11.493  0.00  0.00    +0.000 C 
ATOM     17  O   UNL     1       4.415   2.723  11.026  0.00  0.00    +0.000 OA
ATOM     18  H   UNL     1       5.638   0.670  10.665  0.00  0.00    +0.000 HD
ATOM     19  H   UNL     1       7.100   1.100  11.491  0.00  0.00    +0.000 HD
ENDBRANCH   9  16
ENDBRANCH   1  13
BRANCH   8  20
ATOM     20  C   UNL     1       5.500   5.159  19.579  0.00  0.00    +0.000 C 
BRANCH  20  21
ATOM     21  C   UNL     1       4.843   3.853  19.088  0.00  0.00    +0.000 C 
BRANCH  21  22
ATOM     22  N   UNL     1       3.536   3.588  19.732  0.00  0.00    +0.000 N 
ATOM     23  C   UNL     1       3.492   2.645  20.759  0.00  0.00    +0.000 C 
ATOM     24  O   UNL     1       4.503   2.081  21.188  0.00  0.00    +0.000 OA
BRANCH  22  25
ATOM     25  C   UNL     1       2.338   4.160  19.114  0.00  0.00    +0.000 C 
BRANCH  25  26
ATOM     26  C   UNL     1       2.100   5.647  19.290  0.00  0.00    +0.000 A 
ATOM     27  C   UNL     1       1.793   6.109  20.586  0.00  0.00    +0.000 A 
ATOM     28  C   UNL     1       1.618   7.469  20.855  0.00  0.00    +0.000 A 
ATOM     29  C   UNL     1       1.700   8.393  19.821  0.00  0.00    +0.000 A 
ATOM     30  C   UNL     1       1.928   7.942  18.527  0.00  0.00    +0.000 A 
ATOM     31  F   UNL     1       1.961   8.828  17.523  0.00  0.00    +0.000 F 
ATOM     32  C   UNL     1       2.132   6.587  18.254  0.00  0.00    +0.000 A 
ENDBRANCH  25  26
ENDBRANCH  22  25
BRANCH  23  33
ATOM     33  C   UNL     1       2.127   2.261  21.359  0.00  0.00    +0.000 C 
BRANCH  33  34
ATOM     34  O   UNL     1       1.777   3.094  22.459  0.00  0.00    +0.000 OA
ATOM     35  H   UNL     1       2.084   2.619  23.259  0.00  0.00    +0.000 HD
ENDBRANCH  33  34
ENDBRANCH  23  33
ENDBRANCH  21  22
ENDBRANCH  20  21
ENDBRANCH   8  20
TORSDOF 9
ENDMDL
MODEL 6
REMARK VINA RESULT:      -7.9      1.698      2.193
REMARK  Name = 
REMARK  9 active torsions:
REMARK  status: ('A' for Active; 'I' for Inactive)
REMARK    1  A    between atoms: C_2  and  C_4
REMARK    2  A    between atoms: C_8  and  C_9
REMARK    3  A    between atoms: N_16  and  C_17
REMARK    4  A    between atoms: C_17  and  C_18
REMARK    5  A    between atoms: C_18  and  N_19
REMARK    6  A    between atoms: N_19  and  C_20
REMARK    7  A    between atoms: C_20  and  C_21
REMARK    8  A    between atoms: C_28  and  C_30
REMARK    9  A    between atoms: C_30  and  O_31
REMARK                            x       y       z     vdW  Elec       q    Type
REMARK                         _______ _______ _______ _____ _____    ______ ____
ROOT
ATOM      1  C   UNL     1       2.526   7.086  18.136  0.00  0.00    +0.000 C 
ATOM      2  C   UNL     1       1.739   5.879  17.582  0.00  0.00    +0.000 C 
ATOM      3  C   UNL     1       1.684   4.641  18.505  0.00  0.00    +0.000 C 
ATOM      4  C   UNL     1       1.088   4.882  19.894  0.00  0.00    +0.000 C 
ATOM      5  C   UNL     1       2.273   5.338  20.751  0.00  0.00    +0.000 C 
ATOM      6  C   UNL     1       3.471   5.285  19.795  0.00  0.00    +0.000 C 
ATOM      7  C   UNL     1       3.664   6.650  19.107  0.00  0.00    +0.000 C 
ATOM      8  N   UNL     1       3.023   4.212  18.921  0.00  0.00    +0.000 NA
ENDROOT
BRANCH   1  13
ATOM      9  C   UNL     1       0.802   9.248  20.771  0.00  0.00    +0.000 A 
ATOM     10  C   UNL     1      -0.042  10.052  19.999  0.00  0.00    +0.000 A 
ATOM     11  C   UNL     1       0.040  10.003  18.606  0.00  0.00    +0.000 A 
ATOM     12  C   UNL     1       0.914   9.112  17.979  0.00  0.00    +0.000 A 
ATOM     13  C   UNL     1       1.710   8.238  18.725  0.00  0.00    +0.000 A 
ATOM     14  C   UNL     1       1.702   8.390  20.123  0.00  0.00    +0.000 A 
BRANCH   9  16
ATOM     15  N   UNL     1      -0.459   8.859  22.843  0.00  0.00    +0.000 N 
ATOM     16  C   UNL     1       0.734   9.162  22.262  0.00  0.00    +0.000 C 
ATOM     17  O   UNL     1       1.720   9.353  22.967  0.00  0.00    +0.000 OA
ATOM     18  H   UNL     1      -0.453   8.774  23.854  0.00  0.00    +0.000 HD
ATOM     19  H   UNL     1      -1.338   8.765  22.364  0.00  0.00    +0.000 HD
ENDBRANCH   9  16
ENDBRANCH   1  13
BRANCH   8  20
ATOM     20  C   UNL     1       3.866   3.710  17.835  0.00  0.00    +0.000 C 
BRANCH  20  21
ATOM     21  C   UNL     1       5.382   3.743  18.113  0.00  0.00    +0.000 C 
BRANCH  21  22
ATOM     22  N   UNL     1       6.046   4.941  17.548  0.00  0.00    +0.000 N 
ATOM     23  C   UNL     1       7.041   5.556  18.307  0.00  0.00    +0.000 C 
ATOM     24  O   UNL     1       7.427   5.103  19.390  0.00  0.00    +0.000 OA
BRANCH  22  25
ATOM     25  C   UNL     1       5.476   5.535  16.337  0.00  0.00    +0.000 C 
BRANCH  25  26
ATOM     26  C   UNL     1       5.952   4.999  15.002  0.00  0.00    +0.000 A 
ATOM     27  C   UNL     1       7.201   5.446  14.527  0.00  0.00    +0.000 A 
ATOM     28  C   UNL     1       7.748   4.959  13.337  0.00  0.00    +0.000 A 
ATOM     29  C   UNL     1       7.032   4.048  12.570  0.00  0.00    +0.000 A 
ATOM     30  C   UNL     1       5.767   3.657  12.989  0.00  0.00    +0.000 A 
ATOM     31  F   UNL     1       5.059   2.814  12.228  0.00  0.00    +0.000 F 
ATOM     32  C   UNL     1       5.225   4.117  14.192  0.00  0.00    +0.000 A 
ENDBRANCH  25  26
ENDBRANCH  22  25
BRANCH  23  33
ATOM     33  C   UNL     1       7.659   6.871  17.800  0.00  0.00    +0.000 C 
BRANCH  33  34
ATOM     34  O   UNL     1       8.451   7.506  18.798  0.00  0.00    +0.000 OA
ATOM     35  H   UNL     1       8.361   6.952  19.600  0.00  0.00    +0.000 HD
ENDBRANCH  33  34
ENDBRANCH  23  33
ENDBRANCH  21  22
ENDBRANCH  20  21
ENDBRANCH   8  20
TORSDOF 9
ENDMDL
MODEL 7
REMARK VINA RESULT:      -7.8      3.208      8.140
REMARK  Name = 
REMARK  9 active torsions:
REMARK  status: ('A' for Active; 'I' for Inactive)
REMARK    1  A    between atoms: C_2  and  C_4
REMARK    2  A    between atoms: C_8  and  C_9
REMARK    3  A    between atoms: N_16  and  C_17
REMARK    4  A    between atoms: C_17  and  C_18
REMARK    5  A    between atoms: C_18  and  N_19
REMARK    6  A    between atoms: N_19  and  C_20
REMARK    7  A    between atoms: C_20  and  C_21
REMARK    8  A    between atoms: C_28  and  C_30
REMARK    9  A    between atoms: C_30  and  O_31
REMARK                            x       y       z     vdW  Elec       q    Type
REMARK                         _______ _______ _______ _____ _____    ______ ____
ROOT
ATOM      1  C   UNL     1       5.109   5.002  15.839  0.00  0.00    +0.000 C 
ATOM      2  C   UNL     1       5.192   6.394  16.501  0.00  0.00    +0.000 C 
ATOM      3  C   UNL     1       6.203   6.519  17.663  0.00  0.00    +0.000 C 
ATOM      4  C   UNL     1       7.653   6.175  17.313  0.00  0.00    +0.000 C 
ATOM      5  C   UNL     1       7.754   4.661  17.526  0.00  0.00    +0.000 C 
ATOM      6  C   UNL     1       6.360   4.256  18.024  0.00  0.00    +0.000 C 
ATOM      7  C   UNL     1       5.467   3.856  16.834  0.00  0.00    +0.000 C 
ATOM      8  N   UNL     1       5.984   5.494  18.688  0.00  0.00    +0.000 NA
ENDROOT
BRANCH   1  13
ATOM      9  C   UNL     1       5.955   3.538  12.415  0.00  0.00    +0.000 A 
ATOM     10  C   UNL     1       7.225   4.066  12.165  0.00  0.00    +0.000 A 
ATOM     11  C   UNL     1       7.764   5.014  13.036  0.00  0.00    +0.000 A 
ATOM     12  C   UNL     1       7.070   5.393  14.188  0.00  0.00    +0.000 A 
ATOM     13  C   UNL     1       5.835   4.820  14.505  0.00  0.00    +0.000 A 
ATOM     14  C   UNL     1       5.256   3.961  13.554  0.00  0.00    +0.000 A 
BRANCH   9  16
ATOM     15  N   UNL     1       5.988   1.275  11.459  0.00  0.00    +0.000 N 
ATOM     16  C   UNL     1       5.327   2.457  11.594  0.00  0.00    +0.000 C 
ATOM     17  O   UNL     1       4.239   2.608  11.049  0.00  0.00    +0.000 OA
ATOM     18  H   UNL     1       5.511   0.556  10.925  0.00  0.00    +0.000 HD
ATOM     19  H   UNL     1       6.916   1.079  11.795  0.00  0.00    +0.000 HD
ENDBRANCH   9  16
ENDBRANCH   1  13
BRANCH   8  20
ATOM     20  C   UNL     1       4.716   5.617  19.410  0.00  0.00    +0.000 C 
BRANCH  20  21
ATOM     21  C   UNL     1       4.183   4.308  20.025  0.00  0.00    +0.000 C 
BRANCH  21  22
ATOM     22  N   UNL     1       2.710   4.185  19.931  0.00  0.00    +0.000 N 
ATOM     23  C   UNL     1       2.185   3.311  18.979  0.00  0.00    +0.000 C 
ATOM     24  O   UNL     1       2.899   2.598  18.267  0.00  0.00    +0.000 OA
BRANCH  22  25
ATOM     25  C   UNL     1       1.892   5.140  20.683  0.00  0.00    +0.000 C 
BRANCH  25  26
ATOM     26  C   UNL     1       1.763   6.543  20.126  0.00  0.00    +0.000 A 
ATOM     27  C   UNL     1       1.218   7.532  20.969  0.00  0.00    +0.000 A 
ATOM     28  C   UNL     1       1.118   8.866  20.563  0.00  0.00    +0.000 A 
ATOM     29  C   UNL     1       1.518   9.229  19.283  0.00  0.00    +0.000 A 
ATOM     30  C   UNL     1       1.988   8.250  18.417  0.00  0.00    +0.000 A 
ATOM     31  F   UNL     1       2.331   8.592  17.169  0.00  0.00    +0.000 F 
ATOM     32  C   UNL     1       2.118   6.920  18.824  0.00  0.00    +0.000 A 
ENDBRANCH  25  26
ENDBRANCH  22  25
BRANCH  23  33
ATOM     33  C   UNL     1       0.660   3.258  18.777  0.00  0.00    +0.000 C 
BRANCH  33  34
ATOM     34  O   UNL     1       0.000   2.640  19.877  0.00  0.00    +0.000 OA
ATOM     35  H   UNL     1       0.216   1.687  19.815  0.00  0.00    +0.000 HD
ENDBRANCH  33  34
ENDBRANCH  23  33
ENDBRANCH  21  22
ENDBRANCH  20  21
ENDBRANCH   8  20
TORSDOF 9
ENDMDL
MODEL 8
REMARK VINA RESULT:      -7.8      3.286      8.187
REMARK  Name = 
REMARK  9 active torsions:
REMARK  status: ('A' for Active; 'I' for Inactive)
REMARK    1  A    between atoms: C_2  and  C_4
REMARK    2  A    between atoms: C_8  and  C_9
REMARK    3  A    between atoms: N_16  and  C_17
REMARK    4  A    between atoms: C_17  and  C_18
REMARK    5  A    between atoms: C_18  and  N_19
REMARK    6  A    between atoms: N_19  and  C_20
REMARK    7  A    between atoms: C_20  and  C_21
REMARK    8  A    between atoms: C_28  and  C_30
REMARK    9  A    between atoms: C_30  and  O_31
REMARK                            x       y       z     vdW  Elec       q    Type
REMARK                         _______ _______ _______ _____ _____    ______ ____
ROOT
ATOM      1  C   UNL     1       6.189   4.074  16.095  0.00  0.00    +0.000 C 
ATOM      2  C   UNL     1       4.823   4.587  16.601  0.00  0.00    +0.000 C 
ATOM      3  C   UNL     1       4.857   5.932  17.360  0.00  0.00    +0.000 C 
ATOM      4  C   UNL     1       5.445   7.112  16.583  0.00  0.00    +0.000 C 
ATOM      5  C   UNL     1       6.952   7.041  16.851  0.00  0.00    +0.000 C 
ATOM      6  C   UNL     1       7.110   5.846  17.800  0.00  0.00    +0.000 C 
ATOM      7  C   UNL     1       7.367   4.558  16.993  0.00  0.00    +0.000 C 
ATOM      8  N   UNL     1       5.819   5.908  18.467  0.00  0.00    +0.000 NA
ENDROOT
BRANCH   1  13
ATOM      9  C   UNL     1       6.167   3.446  12.328  0.00  0.00    +0.000 A 
ATOM     10  C   UNL     1       7.227   4.242  11.882  0.00  0.00    +0.000 A 
ATOM     11  C   UNL     1       7.871   5.100  12.775  0.00  0.00    +0.000 A 
ATOM     12  C   UNL     1       7.505   5.124  14.123  0.00  0.00    +0.000 A 
ATOM     13  C   UNL     1       6.505   4.280  14.613  0.00  0.00    +0.000 A 
ATOM     14  C   UNL     1       5.787   3.514  13.676  0.00  0.00    +0.000 A 
BRANCH   9  16
ATOM     15  N   UNL     1       6.095   1.250  11.228  0.00  0.00    +0.000 N 
ATOM     16  C   UNL     1       5.470   2.435  11.476  0.00  0.00    +0.000 C 
ATOM     17  O   UNL     1       4.358   2.642  11.003  0.00  0.00    +0.000 OA
ATOM     18  H   UNL     1       5.573   0.578  10.677  0.00  0.00    +0.000 HD
ATOM     19  H   UNL     1       7.035   1.015  11.499  0.00  0.00    +0.000 HD
ENDBRANCH   9  16
ENDBRANCH   1  13
BRANCH   8  20
ATOM     20  C   UNL     1       5.476   4.986  19.552  0.00  0.00    +0.000 C 
BRANCH  20  21
ATOM     21  C   UNL     1       4.534   3.831  19.158  0.00  0.00    +0.000 C 
BRANCH  21  22
ATOM     22  N   UNL     1       3.155   4.013  19.666  0.00  0.00    +0.000 N 
ATOM     23  C   UNL     1       2.127   3.312  19.036  0.00  0.00    +0.000 C 
ATOM     24  O   UNL     1       2.335   2.504  18.124  0.00  0.00    +0.000 OA
BRANCH  22  25
ATOM     25  C   UNL     1       2.920   5.075  20.647  0.00  0.00    +0.000 C 
BRANCH  25  26
ATOM     26  C   UNL     1       2.375   6.394  20.135  0.00  0.00    +0.000 A 
ATOM     27  C   UNL     1       1.628   7.183  21.031  0.00  0.00    +0.000 A 
ATOM     28  C   UNL     1       1.140   8.441  20.667  0.00  0.00    +0.000 A 
ATOM     29  C   UNL     1       1.349   8.916  19.378  0.00  0.00    +0.000 A 
ATOM     30  C   UNL     1       2.019   8.115  18.463  0.00  0.00    +0.000 A 
ATOM     31  F   UNL     1       2.182   8.553  17.208  0.00  0.00    +0.000 F 
ATOM     32  C   UNL     1       2.536   6.869  18.827  0.00  0.00    +0.000 A 
ENDBRANCH  25  26
ENDBRANCH  22  25
BRANCH  23  33
ATOM     33  C   UNL     1       0.673   3.577  19.464  0.00  0.00    +0.000 C 
BRANCH  33  34
ATOM     34  O   UNL     1      -0.121   2.396  19.410  0.00  0.00    +0.000 OA
ATOM     35  H   UNL     1       0.103   1.889  20.217  0.00  0.00    +0.000 HD
ENDBRANCH  33  34
ENDBRANCH  23  33
ENDBRANCH  21  22
ENDBRANCH  20  21
ENDBRANCH   8  20
TORSDOF 9
ENDMDL
MODEL 9
REMARK VINA RESULT:      -7.7      3.303      8.255
REMARK  Name = 
REMARK  9 active torsions:
REMARK  status: ('A' for Active; 'I' for Inactive)
REMARK    1  A    between atoms: C_2  and  C_4
REMARK    2  A    between atoms: C_8  and  C_9
REMARK    3  A    between atoms: N_16  and  C_17
REMARK    4  A    between atoms: C_17  and  C_18
REMARK    5  A    between atoms: C_18  and  N_19
REMARK    6  A    between atoms: N_19  and  C_20
REMARK    7  A    between atoms: C_20  and  C_21
REMARK    8  A    between atoms: C_28  and  C_30
REMARK    9  A    between atoms: C_30  and  O_31
REMARK                            x       y       z     vdW  Elec       q    Type
REMARK                         _______ _______ _______ _____ _____    ______ ____
ROOT
ATOM      1  C   UNL     1       5.016   5.089  15.715  0.00  0.00    +0.000 C 
ATOM      2  C   UNL     1       5.088   6.508  16.319  0.00  0.00    +0.000 C 
ATOM      3  C   UNL     1       6.040   6.670  17.524  0.00  0.00    +0.000 C 
ATOM      4  C   UNL     1       7.500   6.289  17.266  0.00  0.00    +0.000 C 
ATOM      5  C   UNL     1       7.565   4.784  17.550  0.00  0.00    +0.000 C 
ATOM      6  C   UNL     1       6.141   4.424  17.991  0.00  0.00    +0.000 C 
ATOM      7  C   UNL     1       5.303   3.983  16.775  0.00  0.00    +0.000 C 
ATOM      8  N   UNL     1       5.752   5.695  18.581  0.00  0.00    +0.000 NA
ENDROOT
BRANCH   1  13
ATOM      9  C   UNL     1       6.002   3.472  12.399  0.00  0.00    +0.000 A 
ATOM     10  C   UNL     1       7.297   3.958  12.197  0.00  0.00    +0.000 A 
ATOM     11  C   UNL     1       7.815   4.927  13.060  0.00  0.00    +0.000 A 
ATOM     12  C   UNL     1       7.071   5.367  14.157  0.00  0.00    +0.000 A 
ATOM     13  C   UNL     1       5.806   4.838  14.430  0.00  0.00    +0.000 A 
ATOM     14  C   UNL     1       5.255   3.956  13.482  0.00  0.00    +0.000 A 
BRANCH   9  16
ATOM     15  N   UNL     1       6.095   1.224  11.411  0.00  0.00    +0.000 N 
ATOM     16  C   UNL     1       5.390   2.376  11.586  0.00  0.00    +0.000 C 
ATOM     17  O   UNL     1       4.277   2.487  11.083  0.00  0.00    +0.000 OA
ATOM     18  H   UNL     1       5.629   0.492  10.886  0.00  0.00    +0.000 HD
ATOM     19  H   UNL     1       7.042   1.064  11.711  0.00  0.00    +0.000 HD
ENDBRANCH   9  16
ENDBRANCH   1  13
BRANCH   8  20
ATOM     20  C   UNL     1       4.451   5.868  19.230  0.00  0.00    +0.000 C 
BRANCH  20  21
ATOM     21  C   UNL     1       3.418   6.679  18.423  0.00  0.00    +0.000 C 
BRANCH  21  22
ATOM     22  N   UNL     1       2.314   7.202  19.261  0.00  0.00    +0.000 N 
ATOM     23  C   UNL     1       1.824   8.476  18.977  0.00  0.00    +0.000 C 
ATOM     24  O   UNL     1       2.230   9.147  18.023  0.00  0.00    +0.000 OA
BRANCH  22  25
ATOM     25  C   UNL     1       1.951   6.451  20.465  0.00  0.00    +0.000 C 
BRANCH  25  26
ATOM     26  C   UNL     1       1.738   4.957  20.322  0.00  0.00    +0.000 A 
ATOM     27  C   UNL     1       1.285   4.479  19.076  0.00  0.00    +0.000 A 
ATOM     28  C   UNL     1       1.119   3.113  18.833  0.00  0.00    +0.000 A 
ATOM     29  C   UNL     1       1.358   2.197  19.851  0.00  0.00    +0.000 A 
ATOM     30  C   UNL     1       1.732   2.661  21.105  0.00  0.00    +0.000 A 
ATOM     31  F   UNL     1       1.919   1.782  22.098  0.00  0.00    +0.000 F 
ATOM     32  C   UNL     1       1.928   4.023  21.348  0.00  0.00    +0.000 A 
ENDBRANCH  25  26
ENDBRANCH  22  25
BRANCH  23  33
ATOM     33  C   UNL     1       0.764   9.091  19.908  0.00  0.00    +0.000 C 
BRANCH  33  34
ATOM     34  O   UNL     1       1.262  10.231  20.602  0.00  0.00    +0.000 OA
ATOM     35  H   UNL     1       2.030   9.912  21.118  0.00  0.00    +0.000 HD
ENDBRANCH  33  34
ENDBRANCH  23  33
ENDBRANCH  21  22
ENDBRANCH  20  21
ENDBRANCH   8  20
TORSDOF 9
ENDMDL
