MODEL 1
REMARK VINA RESULT:      -8.1      0.000      0.000
REMARK  Name = 
REMARK  5 active torsions:
REMARK  status: ('A' for Active; 'I' for Inactive)
REMARK    1  A    between atoms: C_1  and  C_2
REMARK    2  A    between atoms: C_6  and  C_7
REMARK    3  A    between atoms: C_13  and  C_14
REMARK    4  A    between atoms: N_16  and  C_17
REMARK    5  A    between atoms: C_22  and  C_23
REMARK                            x       y       z     vdW  Elec       q    Type
REMARK                         _______ _______ _______ _____ _____    ______ ____
ROOT
ATOM      1  C   UNL     1       6.797   4.287  15.867  0.00  0.00    +0.000 C 
ATOM      2  N   UNL     1       8.015   4.120  16.331  0.00  0.00    +0.000 NA
ATOM      3  N   UNL     1       7.966   4.397  17.679  0.00  0.00    +0.000 N 
ATOM      4  C   UNL     1       6.725   4.781  18.160  0.00  0.00    +0.000 C 
ATOM      5  O   UNL     1       6.442   5.118  19.288  0.00  0.00    +0.000 OA
ATOM      6  C   UNL     1       5.863   4.644  16.964  0.00  0.00    +0.000 C 
ATOM      7  C   UNL     1       4.530   4.724  16.915  0.00  0.00    +0.000 C 
ATOM      8  H   UNL     1       8.803   4.378  18.250  0.00  0.00    +0.000 HD
ENDROOT
BRANCH   7   9
ATOM      9  C   UNL     1       3.667   5.097  17.974  0.00  0.00    +0.000 A 
ATOM     10  C   UNL     1       3.428   6.408  18.307  0.00  0.00    +0.000 A 
ATOM     11  N   UNL     1       2.462   6.411  19.274  0.00  0.00    +0.000 N 
ATOM     12  C   UNL     1       1.901   7.607  19.859  0.00  0.00    +0.000 C 
ATOM     13  C   UNL     1       2.069   5.118  19.566  0.00  0.00    +0.000 A 
ATOM     14  C   UNL     1       1.092   4.645  20.452  0.00  0.00    +0.000 A 
ATOM     15  C   UNL     1       0.902   3.267  20.538  0.00  0.00    +0.000 A 
ATOM     16  C   UNL     1       1.674   2.389  19.785  0.00  0.00    +0.000 A 
ATOM     17  C   UNL     1       2.668   2.851  18.899  0.00  0.00    +0.000 A 
ATOM     18  C   UNL     1       3.481   1.845  18.131  0.00  0.00    +0.000 C 
ATOM     19  C   UNL     1       2.844   4.256  18.778  0.00  0.00    +0.000 A 
ENDBRANCH   7   9
BRANCH   1  25
ATOM     20  C   UNL     1       8.347   5.599  13.381  0.00  0.00    +0.000 C 
ATOM     21  C   UNL     1       7.147   4.725  13.371  0.00  0.00    +0.000 A 
ATOM     22  N   UNL     1       6.577   4.415  12.140  0.00  0.00    +0.000 NA
ATOM     23  N   UNL     1       5.500   3.665  12.269  0.00  0.00    +0.000 NA
ATOM     24  S   UNL     1       5.134   3.336  13.857  0.00  0.00    +0.000 S 
ATOM     25  C   UNL     1       6.510   4.158  14.468  0.00  0.00    +0.000 A 
ENDBRANCH   1  25
TORSDOF 2
ENDMDL
MODEL 2
REMARK VINA RESULT:      -7.6      0.878      2.406
REMARK  Name = 
REMARK  5 active torsions:
REMARK  status: ('A' for Active; 'I' for Inactive)
REMARK    1  A    between atoms: C_1  and  C_2
REMARK    2  A    between atoms: C_6  and  C_7
REMARK    3  A    between atoms: C_13  and  C_14
REMARK    4  A    between atoms: N_16  and  C_17
REMARK    5  A    between atoms: C_22  and  C_23
REMARK                            x       y       z     vdW  Elec       q    Type
REMARK                         _______ _______ _______ _____ _____    ______ ____
ROOT
ATOM      1  C   UNL     1       6.700   4.300  15.785  0.00  0.00    +0.000 C 
ATOM      2  N   UNL     1       7.912   4.487  16.256  0.00  0.00    +0.000 NA
ATOM      3  N   UNL     1       7.783   4.686  17.612  0.00  0.00    +0.000 N 
ATOM      4  C   UNL     1       6.484   4.662  18.093  0.00  0.00    +0.000 C 
ATOM      5  O   UNL     1       6.113   4.856  19.229  0.00  0.00    +0.000 OA
ATOM      6  C   UNL     1       5.702   4.318  16.883  0.00  0.00    +0.000 C 
ATOM      7  C   UNL     1       4.406   3.998  16.822  0.00  0.00    +0.000 C 
ATOM      8  H   UNL     1       8.587   4.896  18.191  0.00  0.00    +0.000 HD
ENDROOT
BRANCH   7   9
ATOM      9  C   UNL     1       3.471   4.054  17.885  0.00  0.00    +0.000 A 
ATOM     10  C   UNL     1       3.002   2.929  18.517  0.00  0.00    +0.000 A 
ATOM     11  N   UNL     1       2.228   3.344  19.564  0.00  0.00    +0.000 N 
ATOM     12  C   UNL     1       1.585   2.455  20.504  0.00  0.00    +0.000 C 
ATOM     13  C   UNL     1       2.195   4.725  19.620  0.00  0.00    +0.000 A 
ATOM     14  C   UNL     1       1.569   5.582  20.535  0.00  0.00    +0.000 A 
ATOM     15  C   UNL     1       1.715   6.956  20.347  0.00  0.00    +0.000 A 
ATOM     16  C   UNL     1       2.439   7.459  19.271  0.00  0.00    +0.000 A 
ATOM     17  C   UNL     1       3.063   6.608  18.337  0.00  0.00    +0.000 A 
ATOM     18  C   UNL     1       3.813   7.221  17.186  0.00  0.00    +0.000 C 
ATOM     19  C   UNL     1       2.951   5.206  18.542  0.00  0.00    +0.000 A 
ENDBRANCH   7   9
BRANCH   1  25
ATOM     20  C   UNL     1       8.329   5.578  13.333  0.00  0.00    +0.000 C 
ATOM     21  C   UNL     1       7.137   4.695  13.295  0.00  0.00    +0.000 A 
ATOM     22  N   UNL     1       6.613   4.359  12.050  0.00  0.00    +0.000 NA
ATOM     23  N   UNL     1       5.537   3.603  12.154  0.00  0.00    +0.000 NA
ATOM     24  S   UNL     1       5.116   3.300  13.734  0.00  0.00    +0.000 S 
ATOM     25  C   UNL     1       6.464   4.143  14.379  0.00  0.00    +0.000 A 
ENDBRANCH   1  25
TORSDOF 2
ENDMDL
MODEL 3
REMARK VINA RESULT:      -7.2      1.003      1.331
REMARK  Name = 
REMARK  5 active torsions:
REMARK  status: ('A' for Active; 'I' for Inactive)
REMARK    1  A    between atoms: C_1  and  C_2
REMARK    2  A    between atoms: C_6  and  C_7
REMARK    3  A    between atoms: C_13  and  C_14
REMARK    4  A    between atoms: N_16  and  C_17
REMARK    5  A    between atoms: C_22  and  C_23
REMARK                            x       y       z     vdW  Elec       q    Type
REMARK                         _______ _______ _______ _____ _____    ______ ____
ROOT
ATOM      1  C   UNL     1       7.032   4.548  16.287  0.00  0.00    +0.000 C 
ATOM      2  N   UNL     1       8.179   4.252  16.855  0.00  0.00    +0.000 NA
ATOM      3  N   UNL     1       7.999   4.402  18.212  0.00  0.00    +0.000 N 
ATOM      4  C   UNL     1       6.737   4.824  18.599  0.00  0.00    +0.000 C 
ATOM      5  O   UNL     1       6.352   5.070  19.720  0.00  0.00    +0.000 OA
ATOM      6  C   UNL     1       6.005   4.862  17.312  0.00  0.00    +0.000 C 
ATOM      7  C   UNL     1       4.693   5.040  17.133  0.00  0.00    +0.000 C 
ATOM      8  H   UNL     1       8.765   4.270  18.862  0.00  0.00    +0.000 HD
ENDROOT
BRANCH   7   9
ATOM      9  C   UNL     1       3.742   5.369  18.130  0.00  0.00    +0.000 A 
ATOM     10  C   UNL     1       3.446   6.666  18.471  0.00  0.00    +0.000 A 
ATOM     11  N   UNL     1       2.409   6.626  19.360  0.00  0.00    +0.000 N 
ATOM     12  C   UNL     1       1.775   7.795  19.925  0.00  0.00    +0.000 C 
ATOM     13  C   UNL     1       2.026   5.318  19.593  0.00  0.00    +0.000 A 
ATOM     14  C   UNL     1       0.995   4.803  20.391  0.00  0.00    +0.000 A 
ATOM     15  C   UNL     1       0.832   3.419  20.433  0.00  0.00    +0.000 A 
ATOM     16  C   UNL     1       1.682   2.576  19.723  0.00  0.00    +0.000 A 
ATOM     17  C   UNL     1       2.729   3.081  18.927  0.00  0.00    +0.000 A 
ATOM     18  C   UNL     1       3.623   2.111  18.204  0.00  0.00    +0.000 C 
ATOM     19  C   UNL     1       2.880   4.492  18.850  0.00  0.00    +0.000 A 
ENDBRANCH   7   9
BRANCH   1  25
ATOM     20  C   UNL     1       4.833   3.079  14.470  0.00  0.00    +0.000 C 
ATOM     21  C   UNL     1       5.966   3.937  14.043  0.00  0.00    +0.000 A 
ATOM     22  N   UNL     1       6.145   4.150  12.680  0.00  0.00    +0.000 NA
ATOM     23  N   UNL     1       7.204   4.896  12.431  0.00  0.00    +0.000 NA
ATOM     24  S   UNL     1       8.019   5.335  13.813  0.00  0.00    +0.000 S 
ATOM     25  C   UNL     1       6.893   4.574  14.860  0.00  0.00    +0.000 A 
ENDBRANCH   1  25
TORSDOF 2
ENDMDL
MODEL 4
REMARK VINA RESULT:      -6.8      3.763      7.754
REMARK  Name = 
REMARK  5 active torsions:
REMARK  status: ('A' for Active; 'I' for Inactive)
REMARK    1  A    between atoms: C_1  and  C_2
REMARK    2  A    between atoms: C_6  and  C_7
REMARK    3  A    between atoms: C_13  and  C_14
REMARK    4  A    between atoms: N_16  and  C_17
REMARK    5  A    between atoms: C_22  and  C_23
REMARK                            x       y       z     vdW  Elec       q    Type
REMARK                         _______ _______ _______ _____ _____    ______ ____
ROOT
ATOM      1  C   UNL     1       0.997   9.548  19.770  0.00  0.00    +0.000 C 
ATOM      2  N   UNL     1       0.640  10.406  18.840  0.00  0.00    +0.000 NA
ATOM      3  N   UNL     1       1.230   9.987  17.669  0.00  0.00    +0.000 N 
ATOM      4  C   UNL     1       2.017   8.853  17.775  0.00  0.00    +0.000 C 
ATOM      5  O   UNL     1       2.670   8.323  16.903  0.00  0.00    +0.000 OA
ATOM      6  C   UNL     1       1.825   8.462  19.190  0.00  0.00    +0.000 C 
ATOM      7  C   UNL     1       2.227   7.331  19.778  0.00  0.00    +0.000 C 
ATOM      8  H   UNL     1       1.134  10.521  16.812  0.00  0.00    +0.000 HD
ENDROOT
BRANCH   7   9
ATOM      9  C   UNL     1       3.044   6.325  19.206  0.00  0.00    +0.000 A 
ATOM     10  C   UNL     1       4.221   6.610  18.557  0.00  0.00    +0.000 A 
ATOM     11  N   UNL     1       4.811   5.417  18.248  0.00  0.00    +0.000 N 
ATOM     12  C   UNL     1       6.095   5.289  17.596  0.00  0.00    +0.000 C 
ATOM     13  C   UNL     1       4.033   4.365  18.693  0.00  0.00    +0.000 A 
ATOM     14  C   UNL     1       4.255   2.982  18.633  0.00  0.00    +0.000 A 
ATOM     15  C   UNL     1       3.286   2.141  19.178  0.00  0.00    +0.000 A 
ATOM     16  C   UNL     1       2.124   2.659  19.742  0.00  0.00    +0.000 A 
ATOM     17  C   UNL     1       1.883   4.046  19.798  0.00  0.00    +0.000 A 
ATOM     18  C   UNL     1       0.596   4.534  20.403  0.00  0.00    +0.000 C 
ATOM     19  C   UNL     1       2.883   4.912  19.277  0.00  0.00    +0.000 A 
ENDBRANCH   7   9
BRANCH   1  25
ATOM     20  C   UNL     1      -1.186  11.566  20.979  0.00  0.00    +0.000 C 
ATOM     21  C   UNL     1      -0.306  10.611  21.698  0.00  0.00    +0.000 A 
ATOM     22  N   UNL     1      -0.398  10.558  23.085  0.00  0.00    +0.000 NA
ATOM     23  N   UNL     1       0.459   9.699  23.604  0.00  0.00    +0.000 NA
ATOM     24  S   UNL     1       1.404   8.961  22.453  0.00  0.00    +0.000 S 
ATOM     25  C   UNL     1       0.619   9.736  21.140  0.00  0.00    +0.000 A 
ENDBRANCH   1  25
TORSDOF 2
ENDMDL
MODEL 5
REMARK VINA RESULT:      -6.7      6.735      9.841
REMARK  Name = 
REMARK  5 active torsions:
REMARK  status: ('A' for Active; 'I' for Inactive)
REMARK    1  A    between atoms: C_1  and  C_2
REMARK    2  A    between atoms: C_6  and  C_7
REMARK    3  A    between atoms: C_13  and  C_14
REMARK    4  A    between atoms: N_16  and  C_17
REMARK    5  A    between atoms: C_22  and  C_23
REMARK                            x       y       z     vdW  Elec       q    Type
REMARK                         _______ _______ _______ _____ _____    ______ ____
ROOT
ATOM      1  C   UNL     1       1.253  10.800  18.786  0.00  0.00    +0.000 C 
ATOM      2  N   UNL     1       2.148  11.648  18.330  0.00  0.00    +0.000 NA
ATOM      3  N   UNL     1       1.495  12.844  18.134  0.00  0.00    +0.000 N 
ATOM      4  C   UNL     1       0.142  12.836  18.430  0.00  0.00    +0.000 C 
ATOM      5  O   UNL     1      -0.649  13.744  18.297  0.00  0.00    +0.000 OA
ATOM      6  C   UNL     1      -0.061  11.469  18.961  0.00  0.00    +0.000 C 
ATOM      7  C   UNL     1      -1.155  10.987  19.557  0.00  0.00    +0.000 C 
ATOM      8  H   UNL     1       1.974  13.646  17.742  0.00  0.00    +0.000 HD
ENDROOT
BRANCH   7   9
ATOM      9  C   UNL     1      -2.406  11.640  19.682  0.00  0.00    +0.000 A 
ATOM     10  C   UNL     1      -2.707  12.464  20.739  0.00  0.00    +0.000 A 
ATOM     11  N   UNL     1      -3.927  13.023  20.483  0.00  0.00    +0.000 N 
ATOM     12  C   UNL     1      -4.577  13.987  21.341  0.00  0.00    +0.000 C 
ATOM     13  C   UNL     1      -4.417  12.575  19.271  0.00  0.00    +0.000 A 
ATOM     14  C   UNL     1      -5.598  12.904  18.591  0.00  0.00    +0.000 A 
ATOM     15  C   UNL     1      -5.834  12.294  17.360  0.00  0.00    +0.000 A 
ATOM     16  C   UNL     1      -4.936  11.369  16.835  0.00  0.00    +0.000 A 
ATOM     17  C   UNL     1      -3.751  11.021  17.514  0.00  0.00    +0.000 A 
ATOM     18  C   UNL     1      -2.836   9.998  16.898  0.00  0.00    +0.000 C 
ATOM     19  C   UNL     1      -3.485  11.666  18.752  0.00  0.00    +0.000 A 
ENDBRANCH   7   9
BRANCH   1  25
ATOM     20  C   UNL     1       1.093   9.150  21.534  0.00  0.00    +0.000 C 
ATOM     21  C   UNL     1       1.542   8.686  20.197  0.00  0.00    +0.000 A 
ATOM     22  N   UNL     1       1.972   7.368  20.076  0.00  0.00    +0.000 NA
ATOM     23  N   UNL     1       2.378   7.092  18.851  0.00  0.00    +0.000 NA
ATOM     24  S   UNL     1       2.279   8.402  17.832  0.00  0.00    +0.000 S 
ATOM     25  C   UNL     1       1.583   9.424  19.021  0.00  0.00    +0.000 A 
ENDBRANCH   1  25
TORSDOF 2
ENDMDL
MODEL 6
REMARK VINA RESULT:      -6.7      8.090     12.502
REMARK  Name = 
REMARK  5 active torsions:
REMARK  status: ('A' for Active; 'I' for Inactive)
REMARK    1  A    between atoms: C_1  and  C_2
REMARK    2  A    between atoms: C_6  and  C_7
REMARK    3  A    between atoms: C_13  and  C_14
REMARK    4  A    between atoms: N_16  and  C_17
REMARK    5  A    between atoms: C_22  and  C_23
REMARK                            x       y       z     vdW  Elec       q    Type
REMARK                         _______ _______ _______ _____ _____    ______ ____
ROOT
ATOM      1  C   UNL     1      -4.849  11.746  18.591  0.00  0.00    +0.000 C 
ATOM      2  N   UNL     1      -5.527  11.592  17.476  0.00  0.00    +0.000 NA
ATOM      3  N   UNL     1      -4.606  11.341  16.485  0.00  0.00    +0.000 N 
ATOM      4  C   UNL     1      -3.282  11.339  16.893  0.00  0.00    +0.000 C 
ATOM      5  O   UNL     1      -2.298  11.190  16.204  0.00  0.00    +0.000 OA
ATOM      6  C   UNL     1      -3.399  11.534  18.356  0.00  0.00    +0.000 C 
ATOM      7  C   UNL     1      -2.424  11.438  19.264  0.00  0.00    +0.000 C 
ATOM      8  H   UNL     1      -4.891  11.230  15.518  0.00  0.00    +0.000 HD
ENDROOT
BRANCH   7   9
ATOM      9  C   UNL     1      -1.042  11.265  19.005  0.00  0.00    +0.000 A 
ATOM     10  C   UNL     1      -0.500  10.048  18.670  0.00  0.00    +0.000 A 
ATOM     11  N   UNL     1       0.815  10.261  18.366  0.00  0.00    +0.000 N 
ATOM     12  C   UNL     1       1.725   9.230  17.920  0.00  0.00    +0.000 C 
ATOM     13  C   UNL     1       1.129  11.601  18.495  0.00  0.00    +0.000 A 
ATOM     14  C   UNL     1       2.331  12.280  18.252  0.00  0.00    +0.000 A 
ATOM     15  C   UNL     1       2.356  13.657  18.463  0.00  0.00    +0.000 A 
ATOM     16  C   UNL     1       1.230  14.332  18.923  0.00  0.00    +0.000 A 
ATOM     17  C   UNL     1       0.019  13.660  19.182  0.00  0.00    +0.000 A 
ATOM     18  C   UNL     1      -1.153  14.450  19.697  0.00  0.00    +0.000 C 
ATOM     19  C   UNL     1      -0.026  12.261  18.934  0.00  0.00    +0.000 A 
ENDBRANCH   7   9
BRANCH   1  25
ATOM     20  C   UNL     1      -7.206  10.198  20.123  0.00  0.00    +0.000 C 
ATOM     21  C   UNL     1      -6.535  11.469  20.496  0.00  0.00    +0.000 A 
ATOM     22  N   UNL     1      -6.961  12.117  21.651  0.00  0.00    +0.000 NA
ATOM     23  N   UNL     1      -6.313  13.249  21.850  0.00  0.00    +0.000 NA
ATOM     24  S   UNL     1      -5.205  13.572  20.653  0.00  0.00    +0.000 S 
ATOM     25  C   UNL     1      -5.502  12.105  19.817  0.00  0.00    +0.000 A 
ENDBRANCH   1  25
TORSDOF 2
ENDMDL
MODEL 7
REMARK VINA RESULT:      -6.6      8.945     11.753
REMARK  Name = 
REMARK  5 active torsions:
REMARK  status: ('A' for Active; 'I' for Inactive)
REMARK    1  A    between atoms: C_1  and  C_2
REMARK    2  A    between atoms: C_6  and  C_7
REMARK    3  A    between atoms: C_13  and  C_14
REMARK    4  A    between atoms: N_16  and  C_17
REMARK    5  A    between atoms: C_22  and  C_23
REMARK                            x       y       z     vdW  Elec       q    Type
REMARK                         _______ _______ _______ _____ _____    ______ ____
ROOT
ATOM      1  C   UNL     1      -0.421  10.705  20.183  0.00  0.00    +0.000 C 
ATOM      2  N   UNL     1      -0.894   9.871  19.285  0.00  0.00    +0.000 NA
ATOM      3  N   UNL     1      -1.169  10.615  18.161  0.00  0.00    +0.000 N 
ATOM      4  C   UNL     1      -0.913  11.972  18.271  0.00  0.00    +0.000 C 
ATOM      5  O   UNL     1      -1.115  12.831  17.442  0.00  0.00    +0.000 OA
ATOM      6  C   UNL     1      -0.318  12.076  19.623  0.00  0.00    +0.000 C 
ATOM      7  C   UNL     1       0.270  13.145  20.167  0.00  0.00    +0.000 C 
ATOM      8  H   UNL     1      -1.589  10.192  17.340  0.00  0.00    +0.000 HD
ENDROOT
BRANCH   7   9
ATOM      9  C   UNL     1       0.325  14.450  19.618  0.00  0.00    +0.000 A 
ATOM     10  C   UNL     1      -0.620  15.408  19.893  0.00  0.00    +0.000 A 
ATOM     11  N   UNL     1      -0.198  16.571  19.313  0.00  0.00    +0.000 N 
ATOM     12  C   UNL     1      -0.900  17.831  19.412  0.00  0.00    +0.000 C 
ATOM     13  C   UNL     1       1.011  16.379  18.672  0.00  0.00    +0.000 A 
ATOM     14  C   UNL     1       1.829  17.286  17.985  0.00  0.00    +0.000 A 
ATOM     15  C   UNL     1       3.018  16.807  17.436  0.00  0.00    +0.000 A 
ATOM     16  C   UNL     1       3.368  15.465  17.548  0.00  0.00    +0.000 A 
ATOM     17  C   UNL     1       2.549  14.541  18.226  0.00  0.00    +0.000 A 
ATOM     18  C   UNL     1       2.981  13.101  18.290  0.00  0.00    +0.000 C 
ATOM     19  C   UNL     1       1.354  15.028  18.820  0.00  0.00    +0.000 A 
ENDBRANCH   7   9
BRANCH   1  25
ATOM     20  C   UNL     1      -1.835  11.533  22.943  0.00  0.00    +0.000 C 
ATOM     21  C   UNL     1      -0.685  10.620  22.727  0.00  0.00    +0.000 A 
ATOM     22  N   UNL     1      -0.102  10.030  23.844  0.00  0.00    +0.000 NA
ATOM     23  N   UNL     1       0.929   9.273  23.522  0.00  0.00    +0.000 NA
ATOM     24  S   UNL     1       1.238   9.271  21.888  0.00  0.00    +0.000 S 
ATOM     25  C   UNL     1      -0.106  10.269  21.513  0.00  0.00    +0.000 A 
ENDBRANCH   1  25
TORSDOF 2
ENDMDL
MODEL 8
REMARK VINA RESULT:      -6.6      6.744     10.039
REMARK  Name = 
REMARK  5 active torsions:
REMARK  status: ('A' for Active; 'I' for Inactive)
REMARK    1  A    between atoms: C_1  and  C_2
REMARK    2  A    between atoms: C_6  and  C_7
REMARK    3  A    between atoms: C_13  and  C_14
REMARK    4  A    between atoms: N_16  and  C_17
REMARK    5  A    between atoms: C_22  and  C_23
REMARK                            x       y       z     vdW  Elec       q    Type
REMARK                         _______ _______ _______ _____ _____    ______ ____
ROOT
ATOM      1  C   UNL     1       1.239  10.823  18.785  0.00  0.00    +0.000 C 
ATOM      2  N   UNL     1       2.169  11.714  18.526  0.00  0.00    +0.000 NA
ATOM      3  N   UNL     1       1.518  12.902  18.275  0.00  0.00    +0.000 N 
ATOM      4  C   UNL     1       0.136  12.844  18.336  0.00  0.00    +0.000 C 
ATOM      5  O   UNL     1      -0.651  13.737  18.111  0.00  0.00    +0.000 OA
ATOM      6  C   UNL     1      -0.107  11.448  18.764  0.00  0.00    +0.000 C 
ATOM      7  C   UNL     1      -1.269  10.909  19.142  0.00  0.00    +0.000 C 
ATOM      8  H   UNL     1       2.030  13.734  18.006  0.00  0.00    +0.000 HD
ENDROOT
BRANCH   7   9
ATOM      9  C   UNL     1      -2.545  11.523  19.082  0.00  0.00    +0.000 A 
ATOM     10  C   UNL     1      -3.375  11.396  17.996  0.00  0.00    +0.000 A 
ATOM     11  N   UNL     1      -4.559  11.997  18.319  0.00  0.00    +0.000 N 
ATOM     12  C   UNL     1      -5.715  12.038  17.451  0.00  0.00    +0.000 C 
ATOM     13  C   UNL     1      -4.507  12.506  19.603  0.00  0.00    +0.000 A 
ATOM     14  C   UNL     1      -5.487  13.162  20.361  0.00  0.00    +0.000 A 
ATOM     15  C   UNL     1      -5.152  13.564  21.652  0.00  0.00    +0.000 A 
ATOM     16  C   UNL     1      -3.876  13.343  22.163  0.00  0.00    +0.000 A 
ATOM     17  C   UNL     1      -2.878  12.696  21.407  0.00  0.00    +0.000 A 
ATOM     18  C   UNL     1      -1.515  12.509  22.015  0.00  0.00    +0.000 C 
ATOM     19  C   UNL     1      -3.223  12.250  20.103  0.00  0.00    +0.000 A 
ENDBRANCH   7   9
BRANCH   1  25
ATOM     20  C   UNL     1       0.941   9.115  21.486  0.00  0.00    +0.000 C 
ATOM     21  C   UNL     1       1.471   8.683  20.168  0.00  0.00    +0.000 A 
ATOM     22  N   UNL     1       1.922   7.373  20.045  0.00  0.00    +0.000 NA
ATOM     23  N   UNL     1       2.401   7.126  18.841  0.00  0.00    +0.000 NA
ATOM     24  S   UNL     1       2.346   8.455  17.844  0.00  0.00    +0.000 S 
ATOM     25  C   UNL     1       1.571   9.446  19.011  0.00  0.00    +0.000 A 
ENDBRANCH   1  25
TORSDOF 2
ENDMDL
MODEL 9
REMARK VINA RESULT:      -6.6      6.653      9.881
REMARK  Name = 
REMARK  5 active torsions:
REMARK  status: ('A' for Active; 'I' for Inactive)
REMARK    1  A    between atoms: C_1  and  C_2
REMARK    2  A    between atoms: C_6  and  C_7
REMARK    3  A    between atoms: C_13  and  C_14
REMARK    4  A    between atoms: N_16  and  C_17
REMARK    5  A    between atoms: C_22  and  C_23
REMARK                            x       y       z     vdW  Elec       q    Type
REMARK                         _______ _______ _______ _____ _____    ______ ____
ROOT
ATOM      1  C   UNL     1       0.919  10.617  19.620  0.00  0.00    +0.000 C 
ATOM      2  N   UNL     1       1.610  11.671  19.991  0.00  0.00    +0.000 NA
ATOM      3  N   UNL     1       1.020  12.762  19.392  0.00  0.00    +0.000 N 
ATOM      4  C   UNL     1      -0.068  12.477  18.585  0.00  0.00    +0.000 C 
ATOM      5  O   UNL     1      -0.719  13.254  17.922  0.00  0.00    +0.000 OA
ATOM      6  C   UNL     1      -0.231  11.017  18.771  0.00  0.00    +0.000 C 
ATOM      7  C   UNL     1      -1.246  10.257  18.350  0.00  0.00    +0.000 C 
ATOM      8  H   UNL     1       1.408  13.692  19.497  0.00  0.00    +0.000 HD
ENDROOT
BRANCH   7   9
ATOM      9  C   UNL     1      -2.315  10.662  17.514  0.00  0.00    +0.000 A 
ATOM     10  C   UNL     1      -2.408  10.286  16.196  0.00  0.00    +0.000 A 
ATOM     11  N   UNL     1      -3.610  10.737  15.729  0.00  0.00    +0.000 N 
ATOM     12  C   UNL     1      -4.102  10.503  14.391  0.00  0.00    +0.000 C 
ATOM     13  C   UNL     1      -4.299  11.396  16.730  0.00  0.00    +0.000 A 
ATOM     14  C   UNL     1      -5.572  11.983  16.722  0.00  0.00    +0.000 A 
ATOM     15  C   UNL     1      -6.022  12.580  17.897  0.00  0.00    +0.000 A 
ATOM     16  C   UNL     1      -5.223  12.614  19.036  0.00  0.00    +0.000 A 
ATOM     17  C   UNL     1      -3.937  12.038  19.054  0.00  0.00    +0.000 A 
ATOM     18  C   UNL     1      -3.119  12.130  20.313  0.00  0.00    +0.000 C 
ATOM     19  C   UNL     1      -3.484  11.395  17.870  0.00  0.00    +0.000 A 
ENDBRANCH   7   9
BRANCH   1  25
ATOM     20  C   UNL     1       2.452   8.410  17.866  0.00  0.00    +0.000 C 
ATOM     21  C   UNL     1       1.964   8.309  19.264  0.00  0.00    +0.000 A 
ATOM     22  N   UNL     1       2.166   7.110  19.941  0.00  0.00    +0.000 NA
ATOM     23  N   UNL     1       1.656   7.137  21.157  0.00  0.00    +0.000 NA
ATOM     24  S   UNL     1       0.905   8.579  21.506  0.00  0.00    +0.000 S 
ATOM     25  C   UNL     1       1.317   9.294  20.002  0.00  0.00    +0.000 A 
ENDBRANCH   1  25
TORSDOF 2
ENDMDL
