MODEL 1
REMARK VINA RESULT:      -6.2      0.000      0.000
REMARK  Name = 
REMARK  7 active torsions:
REMARK  status: ('A' for Active; 'I' for Inactive)
REMARK    1  A    between atoms: N_1  and  C_2
REMARK    2  A    between atoms: C_2  and  C_3
REMARK    3  A    between atoms: C_2  and  C_13
REMARK    4  A    between atoms: C_3  and  O_4
REMARK    5  A    between atoms: O_4  and  C_5
REMARK    6  A    between atoms: C_5  and  C_6
REMARK    7  A    between atoms: C_13  and  C_14
REMARK                            x       y       z     vdW  Elec       q    Type
REMARK                         _______ _______ _______ _____ _____    ______ ____
ROOT
ATOM      1  C   UNL     1       7.148   5.970  18.063  0.00  0.00    +0.000 C 
ENDROOT
BRANCH   1   2
ATOM      2  N   UNL     1       7.228   7.129  17.141  0.00  0.00    +0.000 NA
ATOM      3  H   UNL     1       6.298   7.239  16.728  0.00  0.00    +0.000 HD
ATOM      4  H   UNL     1       7.846   6.906  16.364  0.00  0.00    +0.000 HD
ENDBRANCH   1   2
BRANCH   1   5
ATOM      5  C   UNL     1       5.707   5.834  18.599  0.00  0.00    +0.000 C 
BRANCH   5   6
ATOM      6  O   UNL     1       4.807   6.554  17.747  0.00  0.00    +0.000 OA
BRANCH   6   7
ATOM      7  C   UNL     1       3.460   6.116  17.928  0.00  0.00    +0.000 C 
BRANCH   7   8
ATOM      8  C   UNL     1       2.650   7.229  18.542  0.00  0.00    +0.000 A 
ATOM      9  C   UNL     1       2.308   8.363  17.792  0.00  0.00    +0.000 A 
ATOM     10  C   UNL     1       1.550   9.390  18.361  0.00  0.00    +0.000 A 
ATOM     11  C   UNL     1       1.127   9.287  19.685  0.00  0.00    +0.000 A 
ATOM     12  I   UNL     1       0.016  10.824  20.536  0.00  0.00    +0.000 I 
ATOM     13  C   UNL     1       1.450   8.162  20.442  0.00  0.00    +0.000 A 
ATOM     14  C   UNL     1       2.209   7.137  19.871  0.00  0.00    +0.000 A 
ENDBRANCH   7   8
ENDBRANCH   6   7
ENDBRANCH   5   6
ENDBRANCH   1   5
BRANCH   1  15
ATOM     15  C   UNL     1       7.581   4.651  17.395  0.00  0.00    +0.000 C 
BRANCH  15  16
ATOM     16  C   UNL     1       7.066   4.501  16.005  0.00  0.00    +0.000 A 
ATOM     17  C   UNL     1       5.990   3.761  15.558  0.00  0.00    +0.000 A 
ATOM     18  N   UNL     1       5.909   4.022  14.220  0.00  0.00    +0.000 N 
ATOM     19  C   UNL     1       6.932   4.869  13.903  0.00  0.00    +0.000 A 
ATOM     20  N   UNL     1       7.664   5.158  14.955  0.00  0.00    +0.000 NA
ATOM     21  H   UNL     1       5.207   3.675  13.582  0.00  0.00    +0.000 HD
ENDBRANCH  15  16
ENDBRANCH   1  15
TORSDOF 7
ENDMDL
MODEL 2
REMARK VINA RESULT:      -6.2      3.710      4.987
REMARK  Name = 
REMARK  7 active torsions:
REMARK  status: ('A' for Active; 'I' for Inactive)
REMARK    1  A    between atoms: N_1  and  C_2
REMARK    2  A    between atoms: C_2  and  C_3
REMARK    3  A    between atoms: C_2  and  C_13
REMARK    4  A    between atoms: C_3  and  O_4
REMARK    5  A    between atoms: O_4  and  C_5
REMARK    6  A    between atoms: C_5  and  C_6
REMARK    7  A    between atoms: C_13  and  C_14
REMARK                            x       y       z     vdW  Elec       q    Type
REMARK                         _______ _______ _______ _____ _____    ______ ____
ROOT
ATOM      1  C   UNL     1       2.908   3.224  17.381  0.00  0.00    +0.000 C 
ENDROOT
BRANCH   1   2
ATOM      2  N   UNL     1       1.521   3.746  17.314  0.00  0.00    +0.000 NA
ATOM      3  H   UNL     1       0.900   2.938  17.410  0.00  0.00    +0.000 HD
ATOM      4  H   UNL     1       1.341   4.120  16.384  0.00  0.00    +0.000 HD
ENDBRANCH   1   2
BRANCH   1   5
ATOM      5  C   UNL     1       3.872   4.363  17.774  0.00  0.00    +0.000 C 
BRANCH   5   6
ATOM      6  O   UNL     1       3.156   5.604  17.822  0.00  0.00    +0.000 OA
BRANCH   6   7
ATOM      7  C   UNL     1       3.113   6.126  19.150  0.00  0.00    +0.000 C 
BRANCH   7   8
ATOM      8  C   UNL     1       2.316   7.405  19.159  0.00  0.00    +0.000 A 
ATOM      9  C   UNL     1       1.724   7.871  20.342  0.00  0.00    +0.000 A 
ATOM     10  C   UNL     1       0.992   9.062  20.351  0.00  0.00    +0.000 A 
ATOM     11  C   UNL     1       0.850   9.795  19.175  0.00  0.00    +0.000 A 
ATOM     12  I   UNL     1      -0.255  11.556  19.184  0.00  0.00    +0.000 I 
ATOM     13  C   UNL     1       1.440   9.352  17.992  0.00  0.00    +0.000 A 
ATOM     14  C   UNL     1       2.170   8.161  17.986  0.00  0.00    +0.000 A 
ENDBRANCH   7   8
ENDBRANCH   6   7
ENDBRANCH   5   6
ENDBRANCH   1   5
BRANCH   1  15
ATOM     15  C   UNL     1       3.053   2.055  18.374  0.00  0.00    +0.000 C 
BRANCH  15  16
ATOM     16  C   UNL     1       2.590   2.393  19.749  0.00  0.00    +0.000 A 
ATOM     17  C   UNL     1       3.338   2.540  20.900  0.00  0.00    +0.000 A 
ATOM     18  N   UNL     1       2.444   2.918  21.861  0.00  0.00    +0.000 N 
ATOM     19  C   UNL     1       1.209   2.959  21.279  0.00  0.00    +0.000 A 
ATOM     20  N   UNL     1       1.259   2.623  20.011  0.00  0.00    +0.000 NA
ATOM     21  H   UNL     1       2.656   3.151  22.820  0.00  0.00    +0.000 HD
ENDBRANCH  15  16
ENDBRANCH   1  15
TORSDOF 7
ENDMDL
MODEL 3
REMARK VINA RESULT:      -6.0      3.500      4.703
REMARK  Name = 
REMARK  7 active torsions:
REMARK  status: ('A' for Active; 'I' for Inactive)
REMARK    1  A    between atoms: N_1  and  C_2
REMARK    2  A    between atoms: C_2  and  C_3
REMARK    3  A    between atoms: C_2  and  C_13
REMARK    4  A    between atoms: C_3  and  O_4
REMARK    5  A    between atoms: O_4  and  C_5
REMARK    6  A    between atoms: C_5  and  C_6
REMARK    7  A    between atoms: C_13  and  C_14
REMARK                            x       y       z     vdW  Elec       q    Type
REMARK                         _______ _______ _______ _____ _____    ______ ____
ROOT
ATOM      1  C   UNL     1       4.214   3.530  17.969  0.00  0.00    +0.000 C 
ENDROOT
BRANCH   1   2
ATOM      2  N   UNL     1       5.178   3.222  16.885  0.00  0.00    +0.000 NA
ATOM      3  H   UNL     1       4.644   3.215  16.012  0.00  0.00    +0.000 HD
ATOM      4  H   UNL     1       5.528   2.273  16.998  0.00  0.00    +0.000 HD
ENDBRANCH   1   2
BRANCH   1   5
ATOM      5  C   UNL     1       3.260   4.653  17.510  0.00  0.00    +0.000 C 
BRANCH   5   6
ATOM      6  O   UNL     1       3.715   5.911  18.027  0.00  0.00    +0.000 OA
BRANCH   6   7
ATOM      7  C   UNL     1       3.153   6.176  19.312  0.00  0.00    +0.000 C 
BRANCH   7   8
ATOM      8  C   UNL     1       2.332   7.439  19.248  0.00  0.00    +0.000 A 
ATOM      9  C   UNL     1       1.676   7.924  20.388  0.00  0.00    +0.000 A 
ATOM     10  C   UNL     1       0.923   9.100  20.329  0.00  0.00    +0.000 A 
ATOM     11  C   UNL     1       0.823   9.799  19.127  0.00  0.00    +0.000 A 
ATOM     12  I   UNL     1      -0.314  11.537  19.035  0.00  0.00    +0.000 I 
ATOM     13  C   UNL     1       1.477   9.335  17.986  0.00  0.00    +0.000 A 
ATOM     14  C   UNL     1       2.229   8.159  18.049  0.00  0.00    +0.000 A 
ENDBRANCH   7   8
ENDBRANCH   6   7
ENDBRANCH   5   6
ENDBRANCH   1   5
BRANCH   1  15
ATOM     15  C   UNL     1       3.396   2.297  18.402  0.00  0.00    +0.000 C 
BRANCH  15  16
ATOM     16  C   UNL     1       2.462   2.580  19.527  0.00  0.00    +0.000 A 
ATOM     17  C   UNL     1       1.086   2.691  19.501  0.00  0.00    +0.000 A 
ATOM     18  N   UNL     1       0.718   2.887  20.802  0.00  0.00    +0.000 N 
ATOM     19  C   UNL     1       1.860   2.916  21.551  0.00  0.00    +0.000 A 
ATOM     20  N   UNL     1       2.931   2.759  20.808  0.00  0.00    +0.000 NA
ATOM     21  H   UNL     1      -0.225   2.969  21.153  0.00  0.00    +0.000 HD
ENDBRANCH  15  16
ENDBRANCH   1  15
TORSDOF 7
ENDMDL
MODEL 4
REMARK VINA RESULT:      -6.0      3.295      4.420
REMARK  Name = 
REMARK  7 active torsions:
REMARK  status: ('A' for Active; 'I' for Inactive)
REMARK    1  A    between atoms: N_1  and  C_2
REMARK    2  A    between atoms: C_2  and  C_3
REMARK    3  A    between atoms: C_2  and  C_13
REMARK    4  A    between atoms: C_3  and  O_4
REMARK    5  A    between atoms: O_4  and  C_5
REMARK    6  A    between atoms: C_5  and  C_6
REMARK    7  A    between atoms: C_13  and  C_14
REMARK                            x       y       z     vdW  Elec       q    Type
REMARK                         _______ _______ _______ _____ _____    ______ ____
ROOT
ATOM      1  C   UNL     1       4.799   4.117  18.771  0.00  0.00    +0.000 C 
ENDROOT
BRANCH   1   2
ATOM      2  N   UNL     1       6.258   4.053  18.513  0.00  0.00    +0.000 NA
ATOM      3  H   UNL     1       6.549   3.093  18.721  0.00  0.00    +0.000 HD
ATOM      4  H   UNL     1       6.750   4.638  19.183  0.00  0.00    +0.000 HD
ENDBRANCH   1   2
BRANCH   1   5
ATOM      5  C   UNL     1       4.045   4.310  17.438  0.00  0.00    +0.000 C 
BRANCH   5   6
ATOM      6  O   UNL     1       3.058   5.339  17.589  0.00  0.00    +0.000 OA
BRANCH   6   7
ATOM      7  C   UNL     1       3.664   6.626  17.705  0.00  0.00    +0.000 C 
BRANCH   7   8
ATOM      8  C   UNL     1       2.718   7.562  18.412  0.00  0.00    +0.000 A 
ATOM      9  C   UNL     1       2.329   7.321  19.737  0.00  0.00    +0.000 A 
ATOM     10  C   UNL     1       1.458   8.196  20.394  0.00  0.00    +0.000 A 
ATOM     11  C   UNL     1       0.974   9.319  19.727  0.00  0.00    +0.000 A 
ATOM     12  I   UNL     1      -0.336  10.609  20.697  0.00  0.00    +0.000 I 
ATOM     13  C   UNL     1       1.358   9.579  18.412  0.00  0.00    +0.000 A 
ATOM     14  C   UNL     1       2.227   8.703  17.759  0.00  0.00    +0.000 A 
ENDBRANCH   7   8
ENDBRANCH   6   7
ENDBRANCH   5   6
ENDBRANCH   1   5
BRANCH   1  15
ATOM     15  C   UNL     1       4.269   2.862  19.492  0.00  0.00    +0.000 C 
BRANCH  15  16
ATOM     16  C   UNL     1       2.807   2.922  19.772  0.00  0.00    +0.000 A 
ATOM     17  C   UNL     1       2.137   3.694  20.701  0.00  0.00    +0.000 A 
ATOM     18  N   UNL     1       0.813   3.422  20.501  0.00  0.00    +0.000 N 
ATOM     19  C   UNL     1       0.730   2.496  19.501  0.00  0.00    +0.000 A 
ATOM     20  N   UNL     1       1.918   2.154  19.057  0.00  0.00    +0.000 NA
ATOM     21  H   UNL     1       0.034   3.846  20.984  0.00  0.00    +0.000 HD
ENDBRANCH  15  16
ENDBRANCH   1  15
TORSDOF 7
ENDMDL
MODEL 5
REMARK VINA RESULT:      -6.0      3.486      4.386
REMARK  Name = 
REMARK  7 active torsions:
REMARK  status: ('A' for Active; 'I' for Inactive)
REMARK    1  A    between atoms: N_1  and  C_2
REMARK    2  A    between atoms: C_2  and  C_3
REMARK    3  A    between atoms: C_2  and  C_13
REMARK    4  A    between atoms: C_3  and  O_4
REMARK    5  A    between atoms: O_4  and  C_5
REMARK    6  A    between atoms: C_5  and  C_6
REMARK    7  A    between atoms: C_13  and  C_14
REMARK                            x       y       z     vdW  Elec       q    Type
REMARK                         _______ _______ _______ _____ _____    ______ ____
ROOT
ATOM      1  C   UNL     1       1.274   2.954  20.739  0.00  0.00    +0.000 C 
ENDROOT
BRANCH   1   2
ATOM      2  N   UNL     1       2.080   3.018  21.983  0.00  0.00    +0.000 NA
ATOM      3  H   UNL     1       3.045   2.808  21.716  0.00  0.00    +0.000 HD
ATOM      4  H   UNL     1       1.800   2.268  22.610  0.00  0.00    +0.000 HD
ENDBRANCH   1   2
BRANCH   1   5
ATOM      5  C   UNL     1       1.076   4.378  20.176  0.00  0.00    +0.000 C 
BRANCH   5   6
ATOM      6  O   UNL     1       1.931   5.294  20.873  0.00  0.00    +0.000 OA
BRANCH   6   7
ATOM      7  C   UNL     1       2.736   6.044  19.964  0.00  0.00    +0.000 C 
BRANCH   7   8
ATOM      8  C   UNL     1       2.114   7.400  19.747  0.00  0.00    +0.000 A 
ATOM      9  C   UNL     1       2.188   8.029  18.495  0.00  0.00    +0.000 A 
ATOM     10  C   UNL     1       1.602   9.282  18.294  0.00  0.00    +0.000 A 
ATOM     11  C   UNL     1       0.938   9.913  19.344  0.00  0.00    +0.000 A 
ATOM     12  I   UNL     1       0.086  11.786  19.048  0.00  0.00    +0.000 I 
ATOM     13  C   UNL     1       0.848   9.298  20.591  0.00  0.00    +0.000 A 
ATOM     14  C   UNL     1       1.434   8.045  20.790  0.00  0.00    +0.000 A 
ENDBRANCH   7   8
ENDBRANCH   6   7
ENDBRANCH   5   6
ENDBRANCH   1   5
BRANCH   1  15
ATOM     15  C   UNL     1       1.914   2.055  19.664  0.00  0.00    +0.000 C 
BRANCH  15  16
ATOM     16  C   UNL     1       3.169   2.623  19.097  0.00  0.00    +0.000 A 
ATOM     17  C   UNL     1       4.418   2.709  19.678  0.00  0.00    +0.000 A 
ATOM     18  N   UNL     1       5.224   3.246  18.715  0.00  0.00    +0.000 N 
ATOM     19  C   UNL     1       4.448   3.488  17.618  0.00  0.00    +0.000 A 
ATOM     20  N   UNL     1       3.197   3.146  17.825  0.00  0.00    +0.000 NA
ATOM     21  H   UNL     1       6.218   3.411  18.787  0.00  0.00    +0.000 HD
ENDBRANCH  15  16
ENDBRANCH   1  15
TORSDOF 7
ENDMDL
MODEL 6
REMARK VINA RESULT:      -5.9      3.452      4.436
REMARK  Name = 
REMARK  7 active torsions:
REMARK  status: ('A' for Active; 'I' for Inactive)
REMARK    1  A    between atoms: N_1  and  C_2
REMARK    2  A    between atoms: C_2  and  C_3
REMARK    3  A    between atoms: C_2  and  C_13
REMARK    4  A    between atoms: C_3  and  O_4
REMARK    5  A    between atoms: O_4  and  C_5
REMARK    6  A    between atoms: C_5  and  C_6
REMARK    7  A    between atoms: C_13  and  C_14
REMARK                            x       y       z     vdW  Elec       q    Type
REMARK                         _______ _______ _______ _____ _____    ______ ____
ROOT
ATOM      1  C   UNL     1       4.696   3.902  18.763  0.00  0.00    +0.000 C 
ENDROOT
BRANCH   1   2
ATOM      2  N   UNL     1       6.176   3.992  18.825  0.00  0.00    +0.000 NA
ATOM      3  H   UNL     1       6.536   3.071  18.562  0.00  0.00    +0.000 HD
ATOM      4  H   UNL     1       6.470   4.135  19.788  0.00  0.00    +0.000 HD
ENDBRANCH   1   2
BRANCH   1   5
ATOM      5  C   UNL     1       4.233   3.973  17.293  0.00  0.00    +0.000 C 
BRANCH   5   6
ATOM      6  O   UNL     1       3.333   5.075  17.125  0.00  0.00    +0.000 OA
BRANCH   6   7
ATOM      7  C   UNL     1       3.974   6.317  17.416  0.00  0.00    +0.000 C 
BRANCH   7   8
ATOM      8  C   UNL     1       3.037   7.189  18.212  0.00  0.00    +0.000 A 
ATOM      9  C   UNL     1       2.497   8.356  17.652  0.00  0.00    +0.000 A 
ATOM     10  C   UNL     1       1.621   9.158  18.389  0.00  0.00    +0.000 A 
ATOM     11  C   UNL     1       1.280   8.797  19.691  0.00  0.00    +0.000 A 
ATOM     12  I   UNL     1      -0.006  10.002  20.793  0.00  0.00    +0.000 I 
ATOM     13  C   UNL     1       1.801   7.635  20.259  0.00  0.00    +0.000 A 
ATOM     14  C   UNL     1       2.676   6.835  19.520  0.00  0.00    +0.000 A 
ENDBRANCH   7   8
ENDBRANCH   6   7
ENDBRANCH   5   6
ENDBRANCH   1   5
BRANCH   1  15
ATOM     15  C   UNL     1       4.154   2.616  19.418  0.00  0.00    +0.000 C 
BRANCH  15  16
ATOM     16  C   UNL     1       2.770   2.768  19.946  0.00  0.00    +0.000 A 
ATOM     17  C   UNL     1       2.364   3.067  21.232  0.00  0.00    +0.000 A 
ATOM     18  N   UNL     1       1.003   3.156  21.165  0.00  0.00    +0.000 N 
ATOM     19  C   UNL     1       0.636   2.886  19.878  0.00  0.00    +0.000 A 
ATOM     20  N   UNL     1       1.678   2.623  19.122  0.00  0.00    +0.000 NA
ATOM     21  H   UNL     1       0.379   3.402  21.921  0.00  0.00    +0.000 HD
ENDBRANCH  15  16
ENDBRANCH   1  15
TORSDOF 7
ENDMDL
MODEL 7
REMARK VINA RESULT:      -5.8      1.897      2.684
REMARK  Name = 
REMARK  7 active torsions:
REMARK  status: ('A' for Active; 'I' for Inactive)
REMARK    1  A    between atoms: N_1  and  C_2
REMARK    2  A    between atoms: C_2  and  C_3
REMARK    3  A    between atoms: C_2  and  C_13
REMARK    4  A    between atoms: C_3  and  O_4
REMARK    5  A    between atoms: O_4  and  C_5
REMARK    6  A    between atoms: C_5  and  C_6
REMARK    7  A    between atoms: C_13  and  C_14
REMARK                            x       y       z     vdW  Elec       q    Type
REMARK                         _______ _______ _______ _____ _____    ______ ____
ROOT
ATOM      1  C   UNL     1       4.289   3.528  18.336  0.00  0.00    +0.000 C 
ENDROOT
BRANCH   1   2
ATOM      2  N   UNL     1       5.622   3.459  18.982  0.00  0.00    +0.000 NA
ATOM      3  H   UNL     1       6.311   3.668  18.253  0.00  0.00    +0.000 HD
ATOM      4  H   UNL     1       5.813   2.502  19.270  0.00  0.00    +0.000 HD
ENDBRANCH   1   2
BRANCH   1   5
ATOM      5  C   UNL     1       3.212   3.823  19.402  0.00  0.00    +0.000 C 
BRANCH   5   6
ATOM      6  O   UNL     1       2.602   5.092  19.132  0.00  0.00    +0.000 OA
BRANCH   6   7
ATOM      7  C   UNL     1       2.266   5.774  20.340  0.00  0.00    +0.000 C 
BRANCH   7   8
ATOM      8  C   UNL     1       1.884   7.196  20.022  0.00  0.00    +0.000 A 
ATOM      9  C   UNL     1       2.155   7.745  18.760  0.00  0.00    +0.000 A 
ATOM     10  C   UNL     1       1.792   9.062  18.465  0.00  0.00    +0.000 A 
ATOM     11  C   UNL     1       1.152   9.837  19.430  0.00  0.00    +0.000 A 
ATOM     12  I   UNL     1       0.630  11.802  18.996  0.00  0.00    +0.000 I 
ATOM     13  C   UNL     1       0.866   9.304  20.686  0.00  0.00    +0.000 A 
ATOM     14  C   UNL     1       1.231   7.987  20.979  0.00  0.00    +0.000 A 
ENDBRANCH   7   8
ENDBRANCH   6   7
ENDBRANCH   5   6
ENDBRANCH   1   5
BRANCH   1  15
ATOM     15  C   UNL     1       4.224   4.593  17.224  0.00  0.00    +0.000 C 
BRANCH  15  16
ATOM     16  C   UNL     1       5.523   5.289  17.004  0.00  0.00    +0.000 A 
ATOM     17  C   UNL     1       6.415   5.143  15.959  0.00  0.00    +0.000 A 
ATOM     18  N   UNL     1       7.401   6.057  16.202  0.00  0.00    +0.000 N 
ATOM     19  C   UNL     1       7.095   6.690  17.373  0.00  0.00    +0.000 A 
ATOM     20  N   UNL     1       5.980   6.232  17.895  0.00  0.00    +0.000 NA
ATOM     21  H   UNL     1       8.199   6.250  15.614  0.00  0.00    +0.000 HD
ENDBRANCH  15  16
ENDBRANCH   1  15
TORSDOF 7
ENDMDL
MODEL 8
REMARK VINA RESULT:      -5.8      1.382      1.527
REMARK  Name = 
REMARK  7 active torsions:
REMARK  status: ('A' for Active; 'I' for Inactive)
REMARK    1  A    between atoms: N_1  and  C_2
REMARK    2  A    between atoms: C_2  and  C_3
REMARK    3  A    between atoms: C_2  and  C_13
REMARK    4  A    between atoms: C_3  and  O_4
REMARK    5  A    between atoms: O_4  and  C_5
REMARK    6  A    between atoms: C_5  and  C_6
REMARK    7  A    between atoms: C_13  and  C_14
REMARK                            x       y       z     vdW  Elec       q    Type
REMARK                         _______ _______ _______ _____ _____    ______ ____
ROOT
ATOM      1  C   UNL     1       5.781   4.427  17.100  0.00  0.00    +0.000 C 
ENDROOT
BRANCH   1   2
ATOM      2  N   UNL     1       7.251   4.242  17.170  0.00  0.00    +0.000 NA
ATOM      3  H   UNL     1       7.410   3.343  17.635  0.00  0.00    +0.000 HD
ATOM      4  H   UNL     1       7.655   4.943  17.787  0.00  0.00    +0.000 HD
ENDBRANCH   1   2
BRANCH   1   5
ATOM      5  C   UNL     1       5.292   5.172  18.360  0.00  0.00    +0.000 C 
BRANCH   5   6
ATOM      6  O   UNL     1       4.008   5.757  18.104  0.00  0.00    +0.000 OA
BRANCH   6   7
ATOM      7  C   UNL     1       3.265   5.924  19.312  0.00  0.00    +0.000 C 
BRANCH   7   8
ATOM      8  C   UNL     1       2.488   7.214  19.246  0.00  0.00    +0.000 A 
ATOM      9  C   UNL     1       2.436   7.959  18.059  0.00  0.00    +0.000 A 
ATOM     10  C   UNL     1       1.707   9.150  17.998  0.00  0.00    +0.000 A 
ATOM     11  C   UNL     1       1.024   9.602  19.125  0.00  0.00    +0.000 A 
ATOM     12  I   UNL     1      -0.044  11.383  19.039  0.00  0.00    +0.000 I 
ATOM     13  C   UNL     1       1.057   8.868  20.311  0.00  0.00    +0.000 A 
ATOM     14  C   UNL     1       1.787   7.679  20.369  0.00  0.00    +0.000 A 
ENDBRANCH   7   8
ENDBRANCH   6   7
ENDBRANCH   5   6
ENDBRANCH   1   5
BRANCH   1  15
ATOM     15  C   UNL     1       5.340   5.193  15.838  0.00  0.00    +0.000 C 
BRANCH  15  16
ATOM     16  C   UNL     1       6.124   4.825  14.626  0.00  0.00    +0.000 A 
ATOM     17  C   UNL     1       5.834   3.878  13.664  0.00  0.00    +0.000 A 
ATOM     18  N   UNL     1       6.834   3.990  12.740  0.00  0.00    +0.000 N 
ATOM     19  C   UNL     1       7.692   4.958  13.179  0.00  0.00    +0.000 A 
ATOM     20  N   UNL     1       7.305   5.465  14.326  0.00  0.00    +0.000 NA
ATOM     21  H   UNL     1       6.916   3.471  11.878  0.00  0.00    +0.000 HD
ENDBRANCH  15  16
ENDBRANCH   1  15
TORSDOF 7
ENDMDL
MODEL 9
REMARK VINA RESULT:      -5.7      1.266      1.507
REMARK  Name = 
REMARK  7 active torsions:
REMARK  status: ('A' for Active; 'I' for Inactive)
REMARK    1  A    between atoms: N_1  and  C_2
REMARK    2  A    between atoms: C_2  and  C_3
REMARK    3  A    between atoms: C_2  and  C_13
REMARK    4  A    between atoms: C_3  and  O_4
REMARK    5  A    between atoms: O_4  and  C_5
REMARK    6  A    between atoms: C_5  and  C_6
REMARK    7  A    between atoms: C_13  and  C_14
REMARK                            x       y       z     vdW  Elec       q    Type
REMARK                         _______ _______ _______ _____ _____    ______ ____
ROOT
ATOM      1  C   UNL     1       5.907   5.707  16.336  0.00  0.00    +0.000 C 
ENDROOT
BRANCH   1   2
ATOM      2  N   UNL     1       5.278   6.770  15.514  0.00  0.00    +0.000 NA
ATOM      3  H   UNL     1       5.131   6.369  14.583  0.00  0.00    +0.000 HD
ATOM      4  H   UNL     1       5.937   7.533  15.381  0.00  0.00    +0.000 HD
ENDBRANCH   1   2
BRANCH   1   5
ATOM      5  C   UNL     1       5.146   5.568  17.672  0.00  0.00    +0.000 C 
BRANCH   5   6
ATOM      6  O   UNL     1       4.275   6.693  17.849  0.00  0.00    +0.000 OA
BRANCH   6   7
ATOM      7  C   UNL     1       3.075   6.318  18.524  0.00  0.00    +0.000 C 
BRANCH   7   8
ATOM      8  C   UNL     1       2.281   7.555  18.858  0.00  0.00    +0.000 A 
ATOM      9  C   UNL     1       1.972   8.496  17.866  0.00  0.00    +0.000 A 
ATOM     10  C   UNL     1       1.228   9.638  18.176  0.00  0.00    +0.000 A 
ATOM     11  C   UNL     1       0.788   9.844  19.481  0.00  0.00    +0.000 A 
ATOM     12  I   UNL     1      -0.301  11.553  19.946  0.00  0.00    +0.000 I 
ATOM     13  C   UNL     1       1.078   8.914  20.478  0.00  0.00    +0.000 A 
ATOM     14  C   UNL     1       1.822   7.774  20.166  0.00  0.00    +0.000 A 
ENDBRANCH   7   8
ENDBRANCH   6   7
ENDBRANCH   5   6
ENDBRANCH   1   5
BRANCH   1  15
ATOM     15  C   UNL     1       5.946   4.346  15.616  0.00  0.00    +0.000 C 
BRANCH  15  16
ATOM     16  C   UNL     1       6.563   4.417  14.262  0.00  0.00    +0.000 A 
ATOM     17  C   UNL     1       6.255   3.686  13.132  0.00  0.00    +0.000 A 
ATOM     18  N   UNL     1       7.063   4.186  12.151  0.00  0.00    +0.000 N 
ATOM     19  C   UNL     1       7.836   5.161  12.714  0.00  0.00    +0.000 A 
ATOM     20  N   UNL     1       7.576   5.308  13.992  0.00  0.00    +0.000 NA
ATOM     21  H   UNL     1       7.072   3.907  11.181  0.00  0.00    +0.000 HD
ENDBRANCH  15  16
ENDBRANCH   1  15
TORSDOF 7
ENDMDL
