MODEL 1
REMARK VINA RESULT:      -8.2      0.000      0.000
REMARK  Name = 
REMARK  7 active torsions:
REMARK  status: ('A' for Active; 'I' for Inactive)
REMARK    1  A    between atoms: C_1  and  C_2
REMARK    2  A    between atoms: N_4  and  C_5
REMARK    3  A    between atoms: C_8  and  C_9
REMARK    4  A    between atoms: C_9  and  C_10
REMARK    5  A    between atoms: C_12  and  C_13
REMARK    6  A    between atoms: C_17  and  C_18
REMARK    7  A    between atoms: C_21  and  C_22
REMARK                            x       y       z     vdW  Elec       q    Type
REMARK                         _______ _______ _______ _____ _____    ______ ____
ROOT
ATOM      1  C   UNL     1       1.009   9.661  19.713  0.00  0.00    +0.000 A 
ATOM      2  N   UNL     1       1.685   8.654  19.211  0.00  0.00    +0.000 NA
ATOM      3  C   UNL     1       1.588   7.698  20.203  0.00  0.00    +0.000 A 
ATOM      4  N   UNL     1       0.899   8.106  21.282  0.00  0.00    +0.000 NA
ATOM      5  O   UNL     1       0.514   9.407  20.958  0.00  0.00    +0.000 OA
ENDROOT
BRANCH   3   6
ATOM      6  C   UNL     1       2.162   6.366  20.044  0.00  0.00    +0.000 A 
ATOM      7  C   UNL     1       1.644   5.255  20.722  0.00  0.00    +0.000 A 
ATOM      8  C   UNL     1       2.194   3.986  20.523  0.00  0.00    +0.000 A 
ATOM      9  C   UNL     1       3.275   3.816  19.654  0.00  0.00    +0.000 A 
ATOM     10  C   UNL     1       3.824   4.915  18.981  0.00  0.00    +0.000 A 
ATOM     11  C   UNL     1       3.249   6.180  19.173  0.00  0.00    +0.000 A 
BRANCH  10  12
ATOM     12  C   UNL     1       4.968   4.732  18.093  0.00  0.00    +0.000 A 
ATOM     13  C   UNL     1       6.283   4.871  18.497  0.00  0.00    +0.000 A 
ATOM     14  S   UNL     1       7.340   4.589  17.180  0.00  0.00    +0.000 S 
ATOM     15  C   UNL     1       5.982   4.288  16.173  0.00  0.00    +0.000 A 
ATOM     16  C   UNL     1       6.173   3.957  14.735  0.00  0.00    +0.000 C 
ATOM     17  N   UNL     1       4.808   4.375  16.763  0.00  0.00    +0.000 NA
ENDBRANCH  10  12
ENDBRANCH   3   6
BRANCH   1  18
ATOM     18  C   UNL     1       0.618  10.946  19.083  0.00  0.00    +0.000 C 
BRANCH  18  22
ATOM     19  C   UNL     1      -3.650  11.662  18.799  0.00  0.00    +0.000 A 
ATOM     20  C   UNL     1      -2.865  12.357  19.718  0.00  0.00    +0.000 A 
ATOM     21  C   UNL     1      -1.494  12.109  19.822  0.00  0.00    +0.000 A 
ATOM     22  C   UNL     1      -0.874  11.166  18.994  0.00  0.00    +0.000 A 
ATOM     23  C   UNL     1      -1.664  10.448  18.088  0.00  0.00    +0.000 A 
ATOM     24  C   UNL     1      -3.042  10.689  17.997  0.00  0.00    +0.000 A 
BRANCH  19  28
ATOM     25  C   UNL     1      -7.391  12.015  19.144  0.00  0.00    +0.000 C 
ATOM     26  C   UNL     1      -5.982  11.879  19.662  0.00  0.00    +0.000 C 
ATOM     27  O   UNL     1      -5.769  11.780  20.865  0.00  0.00    +0.000 OA
ATOM     28  N   UNL     1      -5.038  11.878  18.648  0.00  0.00    +0.000 N 
ATOM     29  H   UNL     1      -5.357  12.126  17.720  0.00  0.00    +0.000 HD
ENDBRANCH  19  28
ENDBRANCH  18  22
ENDBRANCH   1  18
TORSDOF 5
ENDMDL
MODEL 2
REMARK VINA RESULT:      -8.0      1.457      2.110
REMARK  Name = 
REMARK  7 active torsions:
REMARK  status: ('A' for Active; 'I' for Inactive)
REMARK    1  A    between atoms: C_1  and  C_2
REMARK    2  A    between atoms: N_4  and  C_5
REMARK    3  A    between atoms: C_8  and  C_9
REMARK    4  A    between atoms: C_9  and  C_10
REMARK    5  A    between atoms: C_12  and  C_13
REMARK    6  A    between atoms: C_17  and  C_18
REMARK    7  A    between atoms: C_21  and  C_22
REMARK                            x       y       z     vdW  Elec       q    Type
REMARK                         _______ _______ _______ _____ _____    ______ ____
ROOT
ATOM      1  C   UNL     1       1.172   9.313  19.385  0.00  0.00    +0.000 A 
ATOM      2  N   UNL     1       1.679   8.140  19.688  0.00  0.00    +0.000 NA
ATOM      3  C   UNL     1       2.373   7.805  18.542  0.00  0.00    +0.000 A 
ATOM      4  N   UNL     1       2.280   8.723  17.565  0.00  0.00    +0.000 NA
ATOM      5  O   UNL     1       1.485   9.723  18.123  0.00  0.00    +0.000 OA
ENDROOT
BRANCH   3   6
ATOM      6  C   UNL     1       3.156   6.577  18.451  0.00  0.00    +0.000 A 
ATOM      7  C   UNL     1       3.142   5.617  19.471  0.00  0.00    +0.000 A 
ATOM      8  C   UNL     1       3.876   4.435  19.341  0.00  0.00    +0.000 A 
ATOM      9  C   UNL     1       4.640   4.206  18.194  0.00  0.00    +0.000 A 
ATOM     10  C   UNL     1       4.687   5.159  17.169  0.00  0.00    +0.000 A 
ATOM     11  C   UNL     1       3.929   6.332  17.304  0.00  0.00    +0.000 A 
BRANCH  10  12
ATOM     12  C   UNL     1       5.508   4.922  15.985  0.00  0.00    +0.000 A 
ATOM     13  C   UNL     1       6.798   5.395  15.837  0.00  0.00    +0.000 A 
ATOM     14  S   UNL     1       7.432   4.924  14.319  0.00  0.00    +0.000 S 
ATOM     15  C   UNL     1       5.958   4.112  13.972  0.00  0.00    +0.000 A 
ATOM     16  C   UNL     1       5.776   3.411  12.672  0.00  0.00    +0.000 C 
ATOM     17  N   UNL     1       5.044   4.167  14.918  0.00  0.00    +0.000 NA
ENDBRANCH  10  12
ENDBRANCH   3   6
BRANCH   1  18
ATOM     18  C   UNL     1       0.435  10.275  20.242  0.00  0.00    +0.000 C 
BRANCH  18  22
ATOM     19  C   UNL     1      -3.303  11.657  18.533  0.00  0.00    +0.000 A 
ATOM     20  C   UNL     1      -2.602  10.595  17.964  0.00  0.00    +0.000 A 
ATOM     21  C   UNL     1      -1.388  10.165  18.503  0.00  0.00    +0.000 A 
ATOM     22  C   UNL     1      -0.853  10.783  19.640  0.00  0.00    +0.000 A 
ATOM     23  C   UNL     1      -1.541  11.867  20.199  0.00  0.00    +0.000 A 
ATOM     24  C   UNL     1      -2.752  12.305  19.645  0.00  0.00    +0.000 A 
BRANCH  19  28
ATOM     25  C   UNL     1      -6.874  12.232  17.458  0.00  0.00    +0.000 C 
ATOM     26  C   UNL     1      -5.780  11.549  18.237  0.00  0.00    +0.000 C 
ATOM     27  O   UNL     1      -6.033  10.588  18.954  0.00  0.00    +0.000 OA
ATOM     28  N   UNL     1      -4.537  12.127  18.032  0.00  0.00    +0.000 N 
ATOM     29  H   UNL     1      -4.515  13.010  17.537  0.00  0.00    +0.000 HD
ENDBRANCH  19  28
ENDBRANCH  18  22
ENDBRANCH   1  18
TORSDOF 5
ENDMDL
MODEL 3
REMARK VINA RESULT:      -7.9      7.304     10.002
REMARK  Name = 
REMARK  7 active torsions:
REMARK  status: ('A' for Active; 'I' for Inactive)
REMARK    1  A    between atoms: C_1  and  C_2
REMARK    2  A    between atoms: N_4  and  C_5
REMARK    3  A    between atoms: C_8  and  C_9
REMARK    4  A    between atoms: C_9  and  C_10
REMARK    5  A    between atoms: C_12  and  C_13
REMARK    6  A    between atoms: C_17  and  C_18
REMARK    7  A    between atoms: C_21  and  C_22
REMARK                            x       y       z     vdW  Elec       q    Type
REMARK                         _______ _______ _______ _____ _____    ______ ____
ROOT
ATOM      1  C   UNL     1       8.507   9.035  18.522  0.00  0.00    +0.000 A 
ATOM      2  N   UNL     1       8.301   7.739  18.489  0.00  0.00    +0.000 NA
ATOM      3  C   UNL     1       7.296   7.616  17.549  0.00  0.00    +0.000 A 
ATOM      4  N   UNL     1       6.885   8.789  17.039  0.00  0.00    +0.000 NA
ATOM      5  O   UNL     1       7.688   9.731  17.684  0.00  0.00    +0.000 OA
ENDROOT
BRANCH   3   6
ATOM      6  C   UNL     1       6.780   6.313  17.144  0.00  0.00    +0.000 A 
ATOM      7  C   UNL     1       7.229   5.671  15.982  0.00  0.00    +0.000 A 
ATOM      8  C   UNL     1       6.740   4.408  15.638  0.00  0.00    +0.000 A 
ATOM      9  C   UNL     1       5.788   3.779  16.444  0.00  0.00    +0.000 A 
ATOM     10  C   UNL     1       5.307   4.409  17.599  0.00  0.00    +0.000 A 
ATOM     11  C   UNL     1       5.822   5.668  17.945  0.00  0.00    +0.000 A 
BRANCH  10  12
ATOM     12  C   UNL     1       4.295   3.755  18.423  0.00  0.00    +0.000 A 
ATOM     13  C   UNL     1       4.524   3.308  19.711  0.00  0.00    +0.000 A 
ATOM     14  S   UNL     1       3.108   2.589  20.349  0.00  0.00    +0.000 S 
ATOM     15  C   UNL     1       2.288   2.935  18.880  0.00  0.00    +0.000 A 
ATOM     16  C   UNL     1       0.865   2.535  18.703  0.00  0.00    +0.000 C 
ATOM     17  N   UNL     1       3.001   3.556  17.964  0.00  0.00    +0.000 NA
ENDBRANCH  10  12
ENDBRANCH   3   6
BRANCH   1  18
ATOM     18  C   UNL     1       9.558   9.807  19.230  0.00  0.00    +0.000 C 
BRANCH  18  22
ATOM     19  C   UNL     1      10.179  13.852  17.795  0.00  0.00    +0.000 A 
ATOM     20  C   UNL     1       9.251  13.581  18.800  0.00  0.00    +0.000 A 
ATOM     21  C   UNL     1       9.037  12.274  19.245  0.00  0.00    +0.000 A 
ATOM     22  C   UNL     1       9.762  11.207  18.703  0.00  0.00    +0.000 A 
ATOM     23  C   UNL     1      10.677  11.472  17.676  0.00  0.00    +0.000 A 
ATOM     24  C   UNL     1      10.877  12.783  17.221  0.00  0.00    +0.000 A 
BRANCH  19  28
ATOM     25  C   UNL     1      11.099  17.469  17.238  0.00  0.00    +0.000 C 
ATOM     26  C   UNL     1      11.103  16.163  17.989  0.00  0.00    +0.000 C 
ATOM     27  O   UNL     1      11.653  16.076  19.081  0.00  0.00    +0.000 OA
ATOM     28  N   UNL     1      10.438  15.154  17.312  0.00  0.00    +0.000 N 
ATOM     29  H   UNL     1      10.174  15.338  16.352  0.00  0.00    +0.000 HD
ENDBRANCH  19  28
ENDBRANCH  18  22
ENDBRANCH   1  18
TORSDOF 5
ENDMDL
MODEL 4
REMARK VINA RESULT:      -7.9      1.850      2.652
REMARK  Name = 
REMARK  7 active torsions:
REMARK  status: ('A' for Active; 'I' for Inactive)
REMARK    1  A    between atoms: C_1  and  C_2
REMARK    2  A    between atoms: N_4  and  C_5
REMARK    3  A    between atoms: C_8  and  C_9
REMARK    4  A    between atoms: C_9  and  C_10
REMARK    5  A    between atoms: C_12  and  C_13
REMARK    6  A    between atoms: C_17  and  C_18
REMARK    7  A    between atoms: C_21  and  C_22
REMARK                            x       y       z     vdW  Elec       q    Type
REMARK                         _______ _______ _______ _____ _____    ______ ____
ROOT
ATOM      1  C   UNL     1       1.500   8.959  19.180  0.00  0.00    +0.000 A 
ATOM      2  N   UNL     1       2.092   7.812  19.423  0.00  0.00    +0.000 NA
ATOM      3  C   UNL     1       2.850   7.616  18.285  0.00  0.00    +0.000 A 
ATOM      4  N   UNL     1       2.715   8.590  17.370  0.00  0.00    +0.000 NA
ATOM      5  O   UNL     1       1.820   9.481  17.962  0.00  0.00    +0.000 OA
ENDROOT
BRANCH   3   6
ATOM      6  C   UNL     1       3.734   6.464  18.142  0.00  0.00    +0.000 A 
ATOM      7  C   UNL     1       4.022   5.617  19.220  0.00  0.00    +0.000 A 
ATOM      8  C   UNL     1       4.846   4.502  19.044  0.00  0.00    +0.000 A 
ATOM      9  C   UNL     1       5.402   4.230  17.792  0.00  0.00    +0.000 A 
ATOM     10  C   UNL     1       5.147   5.074  16.703  0.00  0.00    +0.000 A 
ATOM     11  C   UNL     1       4.300   6.177  16.888  0.00  0.00    +0.000 A 
BRANCH  10  12
ATOM     12  C   UNL     1       5.751   4.794  15.404  0.00  0.00    +0.000 A 
ATOM     13  C   UNL     1       5.307   3.805  14.547  0.00  0.00    +0.000 A 
ATOM     14  S   UNL     1       6.267   3.773  13.130  0.00  0.00    +0.000 S 
ATOM     15  C   UNL     1       7.193   5.083  13.746  0.00  0.00    +0.000 A 
ATOM     16  C   UNL     1       8.333   5.630  12.961  0.00  0.00    +0.000 C 
ATOM     17  N   UNL     1       6.820   5.537  14.924  0.00  0.00    +0.000 NA
ENDBRANCH  10  12
ENDBRANCH   3   6
BRANCH   1  18
ATOM     18  C   UNL     1       0.657   9.795  20.071  0.00  0.00    +0.000 C 
BRANCH  18  22
ATOM     19  C   UNL     1      -2.836  11.500  18.148  0.00  0.00    +0.000 A 
ATOM     20  C   UNL     1      -2.297  10.289  17.715  0.00  0.00    +0.000 A 
ATOM     21  C   UNL     1      -1.160   9.753  18.322  0.00  0.00    +0.000 A 
ATOM     22  C   UNL     1      -0.541  10.413  19.391  0.00  0.00    +0.000 A 
ATOM     23  C   UNL     1      -1.065  11.642  19.812  0.00  0.00    +0.000 A 
ATOM     24  C   UNL     1      -2.198  12.184  19.190  0.00  0.00    +0.000 A 
BRANCH  19  28
ATOM     25  C   UNL     1      -6.293  12.632  17.145  0.00  0.00    +0.000 C 
ATOM     26  C   UNL     1      -5.280  12.001  18.065  0.00  0.00    +0.000 C 
ATOM     27  O   UNL     1      -5.635  11.485  19.120  0.00  0.00    +0.000 OA
ATOM     28  N   UNL     1      -3.987  12.084  17.575  0.00  0.00    +0.000 N 
ATOM     29  H   UNL     1      -3.837  12.678  16.769  0.00  0.00    +0.000 HD
ENDBRANCH  19  28
ENDBRANCH  18  22
ENDBRANCH   1  18
TORSDOF 5
ENDMDL
MODEL 5
REMARK VINA RESULT:      -7.9      7.250     10.034
REMARK  Name = 
REMARK  7 active torsions:
REMARK  status: ('A' for Active; 'I' for Inactive)
REMARK    1  A    between atoms: C_1  and  C_2
REMARK    2  A    between atoms: N_4  and  C_5
REMARK    3  A    between atoms: C_8  and  C_9
REMARK    4  A    between atoms: C_9  and  C_10
REMARK    5  A    between atoms: C_12  and  C_13
REMARK    6  A    between atoms: C_17  and  C_18
REMARK    7  A    between atoms: C_21  and  C_22
REMARK                            x       y       z     vdW  Elec       q    Type
REMARK                         _______ _______ _______ _____ _____    ______ ____
ROOT
ATOM      1  C   UNL     1       8.477   8.938  18.503  0.00  0.00    +0.000 A 
ATOM      2  N   UNL     1       8.212   7.652  18.482  0.00  0.00    +0.000 NA
ATOM      3  C   UNL     1       7.198   7.567  17.548  0.00  0.00    +0.000 A 
ATOM      4  N   UNL     1       6.837   8.754  17.031  0.00  0.00    +0.000 NA
ATOM      5  O   UNL     1       7.685   9.663  17.663  0.00  0.00    +0.000 OA
ENDROOT
BRANCH   3   6
ATOM      6  C   UNL     1       6.622   6.285  17.156  0.00  0.00    +0.000 A 
ATOM      7  C   UNL     1       7.159   5.525  16.109  0.00  0.00    +0.000 A 
ATOM      8  C   UNL     1       6.606   4.285  15.779  0.00  0.00    +0.000 A 
ATOM      9  C   UNL     1       5.502   3.798  16.483  0.00  0.00    +0.000 A 
ATOM     10  C   UNL     1       4.933   4.549  17.521  0.00  0.00    +0.000 A 
ATOM     11  C   UNL     1       5.512   5.782  17.856  0.00  0.00    +0.000 A 
BRANCH  10  12
ATOM     12  C   UNL     1       3.766   4.042  18.235  0.00  0.00    +0.000 A 
ATOM     13  C   UNL     1       2.556   3.761  17.628  0.00  0.00    +0.000 A 
ATOM     14  S   UNL     1       1.428   3.198  18.787  0.00  0.00    +0.000 S 
ATOM     15  C   UNL     1       2.628   3.351  20.007  0.00  0.00    +0.000 A 
ATOM     16  C   UNL     1       2.308   3.010  21.420  0.00  0.00    +0.000 C 
ATOM     17  N   UNL     1       3.802   3.782  19.597  0.00  0.00    +0.000 NA
ENDBRANCH  10  12
ENDBRANCH   3   6
BRANCH   1  18
ATOM     18  C   UNL     1       9.565   9.668  19.200  0.00  0.00    +0.000 C 
BRANCH  18  22
ATOM     19  C   UNL     1       9.904  13.811  17.964  0.00  0.00    +0.000 A 
ATOM     20  C   UNL     1      10.595  12.803  17.294  0.00  0.00    +0.000 A 
ATOM     21  C   UNL     1      10.501  11.472  17.707  0.00  0.00    +0.000 A 
ATOM     22  C   UNL     1       9.697  11.117  18.797  0.00  0.00    +0.000 A 
ATOM     23  C   UNL     1       9.022  12.131  19.489  0.00  0.00    +0.000 A 
ATOM     24  C   UNL     1       9.131  13.468  19.080  0.00  0.00    +0.000 A 
BRANCH  19  28
ATOM     25  C   UNL     1      10.822  17.353  17.042  0.00  0.00    +0.000 C 
ATOM     26  C   UNL     1      11.103  15.894  17.287  0.00  0.00    +0.000 C 
ATOM     27  O   UNL     1      12.248  15.460  17.217  0.00  0.00    +0.000 OA
ATOM     28  N   UNL     1       9.959  15.171  17.585  0.00  0.00    +0.000 N 
ATOM     29  H   UNL     1       9.071  15.637  17.449  0.00  0.00    +0.000 HD
ENDBRANCH  19  28
ENDBRANCH  18  22
ENDBRANCH   1  18
TORSDOF 5
ENDMDL
MODEL 6
REMARK VINA RESULT:      -7.8      4.095     10.259
REMARK  Name = 
REMARK  7 active torsions:
REMARK  status: ('A' for Active; 'I' for Inactive)
REMARK    1  A    between atoms: C_1  and  C_2
REMARK    2  A    between atoms: N_4  and  C_5
REMARK    3  A    between atoms: C_8  and  C_9
REMARK    4  A    between atoms: C_9  and  C_10
REMARK    5  A    between atoms: C_12  and  C_13
REMARK    6  A    between atoms: C_17  and  C_18
REMARK    7  A    between atoms: C_21  and  C_22
REMARK                            x       y       z     vdW  Elec       q    Type
REMARK                         _______ _______ _______ _____ _____    ______ ____
ROOT
ATOM      1  C   UNL     1       0.357   9.889  20.386  0.00  0.00    +0.000 A 
ATOM      2  N   UNL     1      -0.754   9.596  19.750  0.00  0.00    +0.000 NA
ATOM      3  C   UNL     1      -1.016  10.756  19.047  0.00  0.00    +0.000 A 
ATOM      4  N   UNL     1      -0.116  11.731  19.258  0.00  0.00    +0.000 NA
ATOM      5  O   UNL     1       0.794  11.158  20.145  0.00  0.00    +0.000 OA
ENDROOT
BRANCH   3   6
ATOM      6  C   UNL     1      -2.153  10.862  18.139  0.00  0.00    +0.000 A 
ATOM      7  C   UNL     1      -2.156  10.238  16.885  0.00  0.00    +0.000 A 
ATOM      8  C   UNL     1      -3.273  10.330  16.051  0.00  0.00    +0.000 A 
ATOM      9  C   UNL     1      -4.394  11.058  16.457  0.00  0.00    +0.000 A 
ATOM     10  C   UNL     1      -4.409  11.708  17.697  0.00  0.00    +0.000 A 
ATOM     11  C   UNL     1      -3.288  11.590  18.534  0.00  0.00    +0.000 A 
BRANCH  10  12
ATOM     12  C   UNL     1      -5.576  12.485  18.103  0.00  0.00    +0.000 A 
ATOM     13  C   UNL     1      -6.692  12.666  17.308  0.00  0.00    +0.000 A 
ATOM     14  S   UNL     1      -7.844  13.640  18.117  0.00  0.00    +0.000 S 
ATOM     15  C   UNL     1      -6.789  13.740  19.469  0.00  0.00    +0.000 A 
ATOM     16  C   UNL     1      -7.181  14.527  20.669  0.00  0.00    +0.000 C 
ATOM     17  N   UNL     1      -5.652  13.087  19.350  0.00  0.00    +0.000 NA
ENDBRANCH  10  12
ENDBRANCH   3   6
BRANCH   1  18
ATOM     18  C   UNL     1       1.236   9.018  21.205  0.00  0.00    +0.000 C 
BRANCH  18  22
ATOM     19  C   UNL     1       2.594   5.414  19.213  0.00  0.00    +0.000 A 
ATOM     20  C   UNL     1       2.717   6.661  18.603  0.00  0.00    +0.000 A 
ATOM     21  C   UNL     1       2.259   7.818  19.238  0.00  0.00    +0.000 A 
ATOM     22  C   UNL     1       1.679   7.753  20.510  0.00  0.00    +0.000 A 
ATOM     23  C   UNL     1       1.531   6.499  21.116  0.00  0.00    +0.000 A 
ATOM     24  C   UNL     1       1.978   5.338  20.468  0.00  0.00    +0.000 A 
BRANCH  19  28
ATOM     25  C   UNL     1       3.038   2.031  17.602  0.00  0.00    +0.000 C 
ATOM     26  C   UNL     1       2.252   3.245  18.026  0.00  0.00    +0.000 C 
ATOM     27  O   UNL     1       1.042   3.299  17.839  0.00  0.00    +0.000 OA
ATOM     28  N   UNL     1       3.045   4.214  18.619  0.00  0.00    +0.000 N 
ATOM     29  H   UNL     1       4.048   4.090  18.559  0.00  0.00    +0.000 HD
ENDBRANCH  19  28
ENDBRANCH  18  22
ENDBRANCH   1  18
TORSDOF 5
ENDMDL
MODEL 7
REMARK VINA RESULT:      -7.8      0.660      1.109
REMARK  Name = 
REMARK  7 active torsions:
REMARK  status: ('A' for Active; 'I' for Inactive)
REMARK    1  A    between atoms: C_1  and  C_2
REMARK    2  A    between atoms: N_4  and  C_5
REMARK    3  A    between atoms: C_8  and  C_9
REMARK    4  A    between atoms: C_9  and  C_10
REMARK    5  A    between atoms: C_12  and  C_13
REMARK    6  A    between atoms: C_17  and  C_18
REMARK    7  A    between atoms: C_21  and  C_22
REMARK                            x       y       z     vdW  Elec       q    Type
REMARK                         _______ _______ _______ _____ _____    ______ ____
ROOT
ATOM      1  C   UNL     1       1.049  10.020  19.445  0.00  0.00    +0.000 A 
ATOM      2  N   UNL     1       1.665   8.962  18.970  0.00  0.00    +0.000 NA
ATOM      3  C   UNL     1       1.629   8.087  20.038  0.00  0.00    +0.000 A 
ATOM      4  N   UNL     1       1.035   8.591  21.132  0.00  0.00    +0.000 NA
ATOM      5  O   UNL     1       0.650   9.873  20.740  0.00  0.00    +0.000 OA
ENDROOT
BRANCH   3   6
ATOM      6  C   UNL     1       2.163   6.732  19.937  0.00  0.00    +0.000 A 
ATOM      7  C   UNL     1       1.637   5.675  20.690  0.00  0.00    +0.000 A 
ATOM      8  C   UNL     1       2.147   4.382  20.548  0.00  0.00    +0.000 A 
ATOM      9  C   UNL     1       3.198   4.136  19.661  0.00  0.00    +0.000 A 
ATOM     10  C   UNL     1       3.756   5.180  18.912  0.00  0.00    +0.000 A 
ATOM     11  C   UNL     1       3.220   6.469  19.049  0.00  0.00    +0.000 A 
BRANCH  10  12
ATOM     12  C   UNL     1       4.870   4.917  18.006  0.00  0.00    +0.000 A 
ATOM     13  C   UNL     1       6.196   4.931  18.394  0.00  0.00    +0.000 A 
ATOM     14  S   UNL     1       7.209   4.588  17.057  0.00  0.00    +0.000 S 
ATOM     15  C   UNL     1       5.817   4.430  16.062  0.00  0.00    +0.000 A 
ATOM     16  C   UNL     1       5.962   4.116  14.615  0.00  0.00    +0.000 C 
ATOM     17  N   UNL     1       4.663   4.606  16.670  0.00  0.00    +0.000 NA
ENDBRANCH  10  12
ENDBRANCH   3   6
BRANCH   1  18
ATOM     18  C   UNL     1       0.633  11.264  18.750  0.00  0.00    +0.000 C 
BRANCH  18  22
ATOM     19  C   UNL     1      -3.621  12.048  19.046  0.00  0.00    +0.000 A 
ATOM     20  C   UNL     1      -3.090  11.374  17.947  0.00  0.00    +0.000 A 
ATOM     21  C   UNL     1      -1.717  11.142  17.844  0.00  0.00    +0.000 A 
ATOM     22  C   UNL     1      -0.842  11.568  18.850  0.00  0.00    +0.000 A 
ATOM     23  C   UNL     1      -1.369  12.268  19.944  0.00  0.00    +0.000 A 
ATOM     24  C   UNL     1      -2.747  12.513  20.036  0.00  0.00    +0.000 A 
BRANCH  19  28
ATOM     25  C   UNL     1      -7.394  12.032  19.136  0.00  0.00    +0.000 C 
ATOM     26  C   UNL     1      -6.032  11.400  19.003  0.00  0.00    +0.000 C 
ATOM     27  O   UNL     1      -5.922  10.208  18.741  0.00  0.00    +0.000 OA
ATOM     28  N   UNL     1      -5.002  12.305  19.203  0.00  0.00    +0.000 N 
ATOM     29  H   UNL     1      -5.252  13.216  19.567  0.00  0.00    +0.000 HD
ENDBRANCH  19  28
ENDBRANCH  18  22
ENDBRANCH   1  18
TORSDOF 5
ENDMDL
MODEL 8
REMARK VINA RESULT:      -7.8      1.352      1.496
REMARK  Name = 
REMARK  7 active torsions:
REMARK  status: ('A' for Active; 'I' for Inactive)
REMARK    1  A    between atoms: C_1  and  C_2
REMARK    2  A    between atoms: N_4  and  C_5
REMARK    3  A    between atoms: C_8  and  C_9
REMARK    4  A    between atoms: C_9  and  C_10
REMARK    5  A    between atoms: C_12  and  C_13
REMARK    6  A    between atoms: C_17  and  C_18
REMARK    7  A    between atoms: C_21  and  C_22
REMARK                            x       y       z     vdW  Elec       q    Type
REMARK                         _______ _______ _______ _____ _____    ______ ____
ROOT
ATOM      1  C   UNL     1       1.506   8.902  20.226  0.00  0.00    +0.000 A 
ATOM      2  N   UNL     1       1.991   8.142  19.272  0.00  0.00    +0.000 NA
ATOM      3  C   UNL     1       1.839   6.870  19.790  0.00  0.00    +0.000 A 
ATOM      4  N   UNL     1       1.302   6.848  21.022  0.00  0.00    +0.000 NA
ATOM      5  O   UNL     1       1.081   8.195  21.312  0.00  0.00    +0.000 OA
ENDROOT
BRANCH   3   6
ATOM      6  C   UNL     1       2.203   5.682  19.026  0.00  0.00    +0.000 A 
ATOM      7  C   UNL     1       1.434   4.511  19.072  0.00  0.00    +0.000 A 
ATOM      8  C   UNL     1       1.790   3.400  18.303  0.00  0.00    +0.000 A 
ATOM      9  C   UNL     1       2.925   3.443  17.490  0.00  0.00    +0.000 A 
ATOM     10  C   UNL     1       3.722   4.594  17.442  0.00  0.00    +0.000 A 
ATOM     11  C   UNL     1       3.341   5.710  18.203  0.00  0.00    +0.000 A 
BRANCH  10  12
ATOM     12  C   UNL     1       4.919   4.622  16.607  0.00  0.00    +0.000 A 
ATOM     13  C   UNL     1       6.147   5.087  17.039  0.00  0.00    +0.000 A 
ATOM     14  S   UNL     1       7.301   4.970  15.781  0.00  0.00    +0.000 S 
ATOM     15  C   UNL     1       6.097   4.297  14.758  0.00  0.00    +0.000 A 
ATOM     16  C   UNL     1       6.426   3.923  13.355  0.00  0.00    +0.000 C 
ATOM     17  N   UNL     1       4.907   4.149  15.303  0.00  0.00    +0.000 NA
ENDBRANCH  10  12
ENDBRANCH   3   6
BRANCH   1  18
ATOM     18  C   UNL     1       1.253  10.364  20.234  0.00  0.00    +0.000 C 
BRANCH  18  22
ATOM     19  C   UNL     1      -2.439  11.605  18.327  0.00  0.00    +0.000 A 
ATOM     20  C   UNL     1      -1.809  12.417  19.268  0.00  0.00    +0.000 A 
ATOM     21  C   UNL     1      -0.631  12.006  19.896  0.00  0.00    +0.000 A 
ATOM     22  C   UNL     1      -0.048  10.772  19.585  0.00  0.00    +0.000 A 
ATOM     23  C   UNL     1      -0.692   9.942  18.659  0.00  0.00    +0.000 A 
ATOM     24  C   UNL     1      -1.882  10.352  18.041  0.00  0.00    +0.000 A 
BRANCH  19  28
ATOM     25  C   UNL     1      -5.965  12.277  17.162  0.00  0.00    +0.000 C 
ATOM     26  C   UNL     1      -4.909  11.935  18.182  0.00  0.00    +0.000 C 
ATOM     27  O   UNL     1      -5.224  11.658  19.334  0.00  0.00    +0.000 OA
ATOM     28  N   UNL     1      -3.627  11.974  17.658  0.00  0.00    +0.000 N 
ATOM     29  H   UNL     1      -3.519  12.372  16.734  0.00  0.00    +0.000 HD
ENDBRANCH  19  28
ENDBRANCH  18  22
ENDBRANCH   1  18
TORSDOF 5
ENDMDL
MODEL 9
REMARK VINA RESULT:      -7.8      1.243      1.558
REMARK  Name = 
REMARK  7 active torsions:
REMARK  status: ('A' for Active; 'I' for Inactive)
REMARK    1  A    between atoms: C_1  and  C_2
REMARK    2  A    between atoms: N_4  and  C_5
REMARK    3  A    between atoms: C_8  and  C_9
REMARK    4  A    between atoms: C_9  and  C_10
REMARK    5  A    between atoms: C_12  and  C_13
REMARK    6  A    between atoms: C_17  and  C_18
REMARK    7  A    between atoms: C_21  and  C_22
REMARK                            x       y       z     vdW  Elec       q    Type
REMARK                         _______ _______ _______ _____ _____    ______ ____
ROOT
ATOM      1  C   UNL     1       1.061  10.143  19.352  0.00  0.00    +0.000 A 
ATOM      2  N   UNL     1       1.380   8.924  19.724  0.00  0.00    +0.000 NA
ATOM      3  C   UNL     1       2.033   8.429  18.612  0.00  0.00    +0.000 A 
ATOM      4  N   UNL     1       2.095   9.298  17.589  0.00  0.00    +0.000 NA
ATOM      5  O   UNL     1       1.452  10.435  18.079  0.00  0.00    +0.000 OA
ENDROOT
BRANCH   3   6
ATOM      6  C   UNL     1       2.621   7.094  18.600  0.00  0.00    +0.000 A 
ATOM      7  C   UNL     1       2.249   6.116  19.531  0.00  0.00    +0.000 A 
ATOM      8  C   UNL     1       2.805   4.835  19.473  0.00  0.00    +0.000 A 
ATOM      9  C   UNL     1       3.749   4.524  18.492  0.00  0.00    +0.000 A 
ATOM     10  C   UNL     1       4.154   5.490  17.562  0.00  0.00    +0.000 A 
ATOM     11  C   UNL     1       3.572   6.765  17.618  0.00  0.00    +0.000 A 
BRANCH  10  12
ATOM     12  C   UNL     1       5.159   5.162  16.555  0.00  0.00    +0.000 A 
ATOM     13  C   UNL     1       6.501   5.465  16.682  0.00  0.00    +0.000 A 
ATOM     14  S   UNL     1       7.362   4.934  15.301  0.00  0.00    +0.000 S 
ATOM     15  C   UNL     1       5.898   4.325  14.641  0.00  0.00    +0.000 A 
ATOM     16  C   UNL     1       5.893   3.669  13.305  0.00  0.00    +0.000 C 
ATOM     17  N   UNL     1       4.827   4.487  15.389  0.00  0.00    +0.000 NA
ENDBRANCH  10  12
ENDBRANCH   3   6
BRANCH   1  18
ATOM     18  C   UNL     1       0.465  11.248  20.143  0.00  0.00    +0.000 C 
BRANCH  18  22
ATOM     19  C   UNL     1      -3.671  12.148  19.201  0.00  0.00    +0.000 A 
ATOM     20  C   UNL     1      -3.040  12.734  20.298  0.00  0.00    +0.000 A 
ATOM     21  C   UNL     1      -1.714  12.426  20.612  0.00  0.00    +0.000 A 
ATOM     22  C   UNL     1      -0.982  11.531  19.822  0.00  0.00    +0.000 A 
ATOM     23  C   UNL     1      -1.621  10.921  18.735  0.00  0.00    +0.000 A 
ATOM     24  C   UNL     1      -2.957  11.221  18.433  0.00  0.00    +0.000 A 
BRANCH  19  28
ATOM     25  C   UNL     1      -7.415  12.404  18.807  0.00  0.00    +0.000 C 
ATOM     26  C   UNL     1      -6.143  12.056  19.536  0.00  0.00    +0.000 C 
ATOM     27  O   UNL     1      -6.184  11.500  20.628  0.00  0.00    +0.000 OA
ATOM     28  N   UNL     1      -5.006  12.428  18.836  0.00  0.00    +0.000 N 
ATOM     29  H   UNL     1      -5.137  13.019  18.025  0.00  0.00    +0.000 HD
ENDBRANCH  19  28
ENDBRANCH  18  22
ENDBRANCH   1  18
TORSDOF 5
ENDMDL
