MODEL 1
REMARK VINA RESULT:      -6.8      0.000      0.000
REMARK  Name = 
REMARK  11 active torsions:
REMARK  status: ('A' for Active; 'I' for Inactive)
REMARK    1  A    between atoms: C_1  and  N_2
REMARK    2  A    between atoms: C_3  and  C_4
REMARK    3  A    between atoms: N_6  and  C_7
REMARK    4  A    between atoms: C_7  and  C_8
REMARK    5  A    between atoms: C_8  and  C_9
REMARK    6  A    between atoms: C_9  and  C_10
REMARK    7  A    between atoms: C_10  and  N_11
REMARK    8  A    between atoms: N_11  and  C_12
REMARK    9  A    between atoms: N_11  and  C_13
REMARK   10  A    between atoms: N_11  and  C_14
REMARK   11  A    between atoms: C_15  and  O_16
REMARK                            x       y       z     vdW  Elec       q    Type
REMARK                         _______ _______ _______ _____ _____    ______ ____
ROOT
ATOM      1  C   UNL     1       3.720   3.318  20.353  0.00  0.00    +0.000 C 
ATOM      2  N   UNL     1       3.049   3.871  19.186  0.00  0.00    +0.000 N 
ATOM      3  C   UNL     1       2.872   5.303  19.084  0.00  0.00    +0.000 C 
ATOM      4  C   UNL     1       3.504   6.027  18.075  0.00  0.00    +0.000 C 
ATOM      5  C   UNL     1       4.370   5.413  16.996  0.00  0.00    +0.000 A 
ATOM      6  C   UNL     1       5.209   6.244  16.221  0.00  0.00    +0.000 A 
ATOM      7  C   UNL     1       6.069   5.704  15.261  0.00  0.00    +0.000 A 
ATOM      8  C   UNL     1       6.100   4.325  15.045  0.00  0.00    +0.000 A 
ATOM      9  C   UNL     1       5.259   3.487  15.779  0.00  0.00    +0.000 A 
ATOM     10  C   UNL     1       4.403   4.035  16.740  0.00  0.00    +0.000 A 
ATOM     11  S   UNL     1       3.333   3.028  17.685  0.00  0.00    +0.000 S 
ATOM     12  O   UNL     1       3.833   1.618  18.044  0.00  0.00    +0.000 OA
ATOM     13  O   UNL     1       1.935   2.819  17.086  0.00  0.00    +0.000 OA
ENDROOT
BRANCH   3  14
ATOM     14  C   UNL     1       1.980   5.949  20.128  0.00  0.00    +0.000 C 
ATOM     15  O   UNL     1       1.085   5.281  20.621  0.00  0.00    +0.000 OA
ATOM     16  N   UNL     1       2.047   7.279  20.446  0.00  0.00    +0.000 N 
ATOM     17  H   UNL     1       2.694   7.908  19.955  0.00  0.00    +0.000 HD
BRANCH  16  18
ATOM     18  C   UNL     1       1.147   7.915  21.395  0.00  0.00    +0.000 C 
BRANCH  18  19
ATOM     19  C   UNL     1       1.023   9.413  21.076  0.00  0.00    +0.000 C 
BRANCH  19  20
ATOM     20  C   UNL     1       0.693   9.699  19.597  0.00  0.00    +0.000 C 
BRANCH  20  21
ATOM     21  C   UNL     1       0.637  11.214  19.274  0.00  0.00    +0.000 C 
BRANCH  21  22
ATOM     22  N   UNL     1      -0.706  11.736  18.888  0.00  0.00    +0.000 N 
ATOM     23  C   UNL     1      -0.602  13.053  18.214  0.00  0.00    +0.000 C 
ATOM     24  C   UNL     1      -1.430  10.783  18.012  0.00  0.00    +0.000 C 
ATOM     25  C   UNL     1      -1.499  11.913  20.132  0.00  0.00    +0.000 C 
ENDBRANCH  21  22
ENDBRANCH  20  21
ENDBRANCH  19  20
ENDBRANCH  18  19
ENDBRANCH  16  18
ENDBRANCH   3  14
BRANCH   4  26
ATOM     26  O   UNL     1       3.482   7.383  18.055  0.00  0.00    +0.000 OA
ATOM     27  H   UNL     1       3.022   7.944  18.689  0.00  0.00    +0.000 HD
ENDBRANCH   4  26
TORSDOF 7
ENDMDL
MODEL 2
REMARK VINA RESULT:      -6.7      0.807      1.265
REMARK  Name = 
REMARK  11 active torsions:
REMARK  status: ('A' for Active; 'I' for Inactive)
REMARK    1  A    between atoms: C_1  and  N_2
REMARK    2  A    between atoms: C_3  and  C_4
REMARK    3  A    between atoms: N_6  and  C_7
REMARK    4  A    between atoms: C_7  and  C_8
REMARK    5  A    between atoms: C_8  and  C_9
REMARK    6  A    between atoms: C_9  and  C_10
REMARK    7  A    between atoms: C_10  and  N_11
REMARK    8  A    between atoms: N_11  and  C_12
REMARK    9  A    between atoms: N_11  and  C_13
REMARK   10  A    between atoms: N_11  and  C_14
REMARK   11  A    between atoms: C_15  and  O_16
REMARK                            x       y       z     vdW  Elec       q    Type
REMARK                         _______ _______ _______ _____ _____    ______ ____
ROOT
ATOM      1  C   UNL     1       3.690   3.424  20.345  0.00  0.00    +0.000 C 
ATOM      2  N   UNL     1       3.033   3.986  19.175  0.00  0.00    +0.000 N 
ATOM      3  C   UNL     1       2.889   5.422  19.066  0.00  0.00    +0.000 C 
ATOM      4  C   UNL     1       3.539   6.126  18.054  0.00  0.00    +0.000 C 
ATOM      5  C   UNL     1       4.391   5.486  16.978  0.00  0.00    +0.000 A 
ATOM      6  C   UNL     1       5.250   6.293  16.200  0.00  0.00    +0.000 A 
ATOM      7  C   UNL     1       6.098   5.728  15.243  0.00  0.00    +0.000 A 
ATOM      8  C   UNL     1       6.097   4.348  15.034  0.00  0.00    +0.000 A 
ATOM      9  C   UNL     1       5.236   3.534  15.771  0.00  0.00    +0.000 A 
ATOM     10  C   UNL     1       4.392   4.106  16.729  0.00  0.00    +0.000 A 
ATOM     11  S   UNL     1       3.298   3.130  17.679  0.00  0.00    +0.000 S 
ATOM     12  O   UNL     1       3.764   1.710  18.045  0.00  0.00    +0.000 OA
ATOM     13  O   UNL     1       1.895   2.951  17.079  0.00  0.00    +0.000 OA
ENDROOT
BRANCH   3  14
ATOM     14  C   UNL     1       2.012   6.094  20.106  0.00  0.00    +0.000 C 
ATOM     15  O   UNL     1       1.123   5.439  20.626  0.00  0.00    +0.000 OA
ATOM     16  N   UNL     1       2.085   7.431  20.391  0.00  0.00    +0.000 N 
ATOM     17  H   UNL     1       2.726   8.047  19.876  0.00  0.00    +0.000 HD
BRANCH  16  18
ATOM     18  C   UNL     1       1.199   8.091  21.336  0.00  0.00    +0.000 C 
BRANCH  18  19
ATOM     19  C   UNL     1       0.373   9.168  20.616  0.00  0.00    +0.000 C 
BRANCH  19  20
ATOM     20  C   UNL     1       1.148   9.886  19.493  0.00  0.00    +0.000 C 
BRANCH  20  21
ATOM     21  C   UNL     1       0.402  11.130  18.946  0.00  0.00    +0.000 C 
BRANCH  21  22
ATOM     22  N   UNL     1       1.132  12.425  19.084  0.00  0.00    +0.000 N 
ATOM     23  C   UNL     1       1.470  12.707  20.500  0.00  0.00    +0.000 C 
ATOM     24  C   UNL     1       2.366  12.444  18.262  0.00  0.00    +0.000 C 
ATOM     25  C   UNL     1       0.235  13.504  18.596  0.00  0.00    +0.000 C 
ENDBRANCH  21  22
ENDBRANCH  20  21
ENDBRANCH  19  20
ENDBRANCH  18  19
ENDBRANCH  16  18
ENDBRANCH   3  14
BRANCH   4  26
ATOM     26  O   UNL     1       3.549   7.482  18.027  0.00  0.00    +0.000 OA
ATOM     27  H   UNL     1       2.959   8.035  17.505  0.00  0.00    +0.000 HD
ENDBRANCH   4  26
TORSDOF 7
ENDMDL
MODEL 3
REMARK VINA RESULT:      -6.6      3.832      8.746
REMARK  Name = 
REMARK  11 active torsions:
REMARK  status: ('A' for Active; 'I' for Inactive)
REMARK    1  A    between atoms: C_1  and  N_2
REMARK    2  A    between atoms: C_3  and  C_4
REMARK    3  A    between atoms: N_6  and  C_7
REMARK    4  A    between atoms: C_7  and  C_8
REMARK    5  A    between atoms: C_8  and  C_9
REMARK    6  A    between atoms: C_9  and  C_10
REMARK    7  A    between atoms: C_10  and  N_11
REMARK    8  A    between atoms: N_11  and  C_12
REMARK    9  A    between atoms: N_11  and  C_13
REMARK   10  A    between atoms: N_11  and  C_14
REMARK   11  A    between atoms: C_15  and  O_16
REMARK                            x       y       z     vdW  Elec       q    Type
REMARK                         _______ _______ _______ _____ _____    ______ ____
ROOT
ATOM      1  C   UNL     1       0.544   8.773  21.407  0.00  0.00    +0.000 C 
ATOM      2  N   UNL     1       0.607  10.048  20.709  0.00  0.00    +0.000 N 
ATOM      3  C   UNL     1       0.495  10.071  19.266  0.00  0.00    +0.000 C 
ATOM      4  C   UNL     1      -0.589  10.690  18.647  0.00  0.00    +0.000 C 
ATOM      5  C   UNL     1      -1.694  11.416  19.385  0.00  0.00    +0.000 A 
ATOM      6  C   UNL     1      -2.892  11.731  18.706  0.00  0.00    +0.000 A 
ATOM      7  C   UNL     1      -3.958  12.341  19.372  0.00  0.00    +0.000 A 
ATOM      8  C   UNL     1      -3.846  12.662  20.727  0.00  0.00    +0.000 A 
ATOM      9  C   UNL     1      -2.662  12.385  21.411  0.00  0.00    +0.000 A 
ATOM     10  C   UNL     1      -1.600  11.772  20.738  0.00  0.00    +0.000 A 
ATOM     11  S   UNL     1      -0.098  11.403  21.551  0.00  0.00    +0.000 S 
ATOM     12  O   UNL     1      -0.182  11.020  23.038  0.00  0.00    +0.000 OA
ATOM     13  O   UNL     1       0.970  12.505  21.478  0.00  0.00    +0.000 OA
ENDROOT
BRANCH   3  14
ATOM     14  C   UNL     1       1.606   9.385  18.493  0.00  0.00    +0.000 C 
ATOM     15  O   UNL     1       2.098   9.970  17.541  0.00  0.00    +0.000 OA
ATOM     16  N   UNL     1       1.989   8.092  18.728  0.00  0.00    +0.000 N 
ATOM     17  H   UNL     1       1.507   7.516  19.429  0.00  0.00    +0.000 HD
BRANCH  16  18
ATOM     18  C   UNL     1       3.005   7.409  17.943  0.00  0.00    +0.000 C 
BRANCH  18  19
ATOM     19  C   UNL     1       2.867   5.888  18.115  0.00  0.00    +0.000 C 
BRANCH  19  20
ATOM     20  C   UNL     1       2.496   5.466  19.551  0.00  0.00    +0.000 C 
BRANCH  20  21
ATOM     21  C   UNL     1       1.470   4.305  19.593  0.00  0.00    +0.000 C 
BRANCH  21  22
ATOM     22  N   UNL     1       1.999   3.002  20.093  0.00  0.00    +0.000 N 
ATOM     23  C   UNL     1       1.536   2.724  21.474  0.00  0.00    +0.000 C 
ATOM     24  C   UNL     1       1.613   1.881  19.202  0.00  0.00    +0.000 C 
ATOM     25  C   UNL     1       3.482   3.090  20.108  0.00  0.00    +0.000 C 
ENDBRANCH  21  22
ENDBRANCH  20  21
ENDBRANCH  19  20
ENDBRANCH  18  19
ENDBRANCH  16  18
ENDBRANCH   3  14
BRANCH   4  26
ATOM     26  O   UNL     1      -0.797  10.586  17.312  0.00  0.00    +0.000 OA
ATOM     27  H   UNL     1      -0.135  10.329  16.661  0.00  0.00    +0.000 HD
ENDBRANCH   4  26
TORSDOF 7
ENDMDL
MODEL 4
REMARK VINA RESULT:      -6.6      1.209      1.517
REMARK  Name = 
REMARK  11 active torsions:
REMARK  status: ('A' for Active; 'I' for Inactive)
REMARK    1  A    between atoms: C_1  and  N_2
REMARK    2  A    between atoms: C_3  and  C_4
REMARK    3  A    between atoms: N_6  and  C_7
REMARK    4  A    between atoms: C_7  and  C_8
REMARK    5  A    between atoms: C_8  and  C_9
REMARK    6  A    between atoms: C_9  and  C_10
REMARK    7  A    between atoms: C_10  and  N_11
REMARK    8  A    between atoms: N_11  and  C_12
REMARK    9  A    between atoms: N_11  and  C_13
REMARK   10  A    between atoms: N_11  and  C_14
REMARK   11  A    between atoms: C_15  and  O_16
REMARK                            x       y       z     vdW  Elec       q    Type
REMARK                         _______ _______ _______ _____ _____    ______ ____
ROOT
ATOM      1  C   UNL     1       3.766   3.283  20.311  0.00  0.00    +0.000 C 
ATOM      2  N   UNL     1       3.094   3.843  19.148  0.00  0.00    +0.000 N 
ATOM      3  C   UNL     1       2.920   5.276  19.054  0.00  0.00    +0.000 C 
ATOM      4  C   UNL     1       3.553   6.004  18.048  0.00  0.00    +0.000 C 
ATOM      5  C   UNL     1       4.414   5.393  16.963  0.00  0.00    +0.000 A 
ATOM      6  C   UNL     1       5.254   6.225  16.191  0.00  0.00    +0.000 A 
ATOM      7  C   UNL     1       6.110   5.687  15.226  0.00  0.00    +0.000 A 
ATOM      8  C   UNL     1       6.137   4.309  15.003  0.00  0.00    +0.000 A 
ATOM      9  C   UNL     1       5.296   3.470  15.734  0.00  0.00    +0.000 A 
ATOM     10  C   UNL     1       4.443   4.016  16.700  0.00  0.00    +0.000 A 
ATOM     11  S   UNL     1       3.372   3.007  17.643  0.00  0.00    +0.000 S 
ATOM     12  O   UNL     1       3.868   1.594  17.993  0.00  0.00    +0.000 OA
ATOM     13  O   UNL     1       1.972   2.805  17.045  0.00  0.00    +0.000 OA
ENDROOT
BRANCH   3  14
ATOM     14  C   UNL     1       2.033   5.919  20.103  0.00  0.00    +0.000 C 
ATOM     15  O   UNL     1       1.155   5.243  20.615  0.00  0.00    +0.000 OA
ATOM     16  N   UNL     1       2.083   7.253  20.406  0.00  0.00    +0.000 N 
ATOM     17  H   UNL     1       2.714   7.887  19.900  0.00  0.00    +0.000 HD
BRANCH  16  18
ATOM     18  C   UNL     1       1.187   7.886  21.361  0.00  0.00    +0.000 C 
BRANCH  18  19
ATOM     19  C   UNL     1       0.964   9.356  20.976  0.00  0.00    +0.000 C 
BRANCH  19  20
ATOM     20  C   UNL     1      -0.274   9.985  21.647  0.00  0.00    +0.000 C 
BRANCH  20  21
ATOM     21  C   UNL     1      -0.816  11.217  20.879  0.00  0.00    +0.000 C 
BRANCH  21  22
ATOM     22  N   UNL     1      -1.353  12.317  21.733  0.00  0.00    +0.000 N 
ATOM     23  C   UNL     1      -0.310  13.327  22.035  0.00  0.00    +0.000 C 
ATOM     24  C   UNL     1      -2.520  12.978  21.098  0.00  0.00    +0.000 C 
ATOM     25  C   UNL     1      -1.804  11.717  23.015  0.00  0.00    +0.000 C 
ENDBRANCH  21  22
ENDBRANCH  20  21
ENDBRANCH  19  20
ENDBRANCH  18  19
ENDBRANCH  16  18
ENDBRANCH   3  14
BRANCH   4  26
ATOM     26  O   UNL     1       3.534   7.360  18.034  0.00  0.00    +0.000 OA
ATOM     27  H   UNL     1       4.039   7.920  17.436  0.00  0.00    +0.000 HD
ENDBRANCH   4  26
TORSDOF 7
ENDMDL
MODEL 5
REMARK VINA RESULT:      -6.5      3.399      8.817
REMARK  Name = 
REMARK  11 active torsions:
REMARK  status: ('A' for Active; 'I' for Inactive)
REMARK    1  A    between atoms: C_1  and  N_2
REMARK    2  A    between atoms: C_3  and  C_4
REMARK    3  A    between atoms: N_6  and  C_7
REMARK    4  A    between atoms: C_7  and  C_8
REMARK    5  A    between atoms: C_8  and  C_9
REMARK    6  A    between atoms: C_9  and  C_10
REMARK    7  A    between atoms: C_10  and  N_11
REMARK    8  A    between atoms: N_11  and  C_12
REMARK    9  A    between atoms: N_11  and  C_13
REMARK   10  A    between atoms: N_11  and  C_14
REMARK   11  A    between atoms: C_15  and  O_16
REMARK                            x       y       z     vdW  Elec       q    Type
REMARK                         _______ _______ _______ _____ _____    ______ ____
ROOT
ATOM      1  C   UNL     1       2.106  11.914  18.334  0.00  0.00    +0.000 C 
ATOM      2  N   UNL     1       0.929  11.081  18.530  0.00  0.00    +0.000 N 
ATOM      3  C   UNL     1       1.070   9.804  19.196  0.00  0.00    +0.000 C 
ATOM      4  C   UNL     1       0.457   9.573  20.426  0.00  0.00    +0.000 C 
ATOM      5  C   UNL     1      -0.421  10.575  21.145  0.00  0.00    +0.000 A 
ATOM      6  C   UNL     1      -0.733  10.374  22.507  0.00  0.00    +0.000 A 
ATOM      7  C   UNL     1      -1.487  11.311  23.219  0.00  0.00    +0.000 A 
ATOM      8  C   UNL     1      -1.957  12.461  22.582  0.00  0.00    +0.000 A 
ATOM      9  C   UNL     1      -1.686  12.667  21.229  0.00  0.00    +0.000 A 
ATOM     10  C   UNL     1      -0.928  11.726  20.524  0.00  0.00    +0.000 A 
ATOM     11  S   UNL     1      -0.560  11.939  18.829  0.00  0.00    +0.000 S 
ATOM     12  O   UNL     1      -0.361  13.380  18.331  0.00  0.00    +0.000 OA
ATOM     13  O   UNL     1      -1.571  11.312  17.858  0.00  0.00    +0.000 OA
ENDROOT
BRANCH   3  14
ATOM     14  C   UNL     1       1.914   8.761  18.486  0.00  0.00    +0.000 C 
ATOM     15  O   UNL     1       2.070   8.863  17.280  0.00  0.00    +0.000 OA
ATOM     16  N   UNL     1       2.398   7.644  19.111  0.00  0.00    +0.000 N 
ATOM     17  H   UNL     1       2.175   7.449  20.095  0.00  0.00    +0.000 HD
BRANCH  16  18
ATOM     18  C   UNL     1       3.149   6.608  18.418  0.00  0.00    +0.000 C 
BRANCH  18  19
ATOM     19  C   UNL     1       3.749   5.626  19.435  0.00  0.00    +0.000 C 
BRANCH  19  20
ATOM     20  C   UNL     1       5.138   5.094  19.027  0.00  0.00    +0.000 C 
BRANCH  20  21
ATOM     21  C   UNL     1       5.350   5.078  17.492  0.00  0.00    +0.000 C 
BRANCH  21  22
ATOM     22  N   UNL     1       6.730   5.417  17.034  0.00  0.00    +0.000 N 
ATOM     23  C   UNL     1       6.920   5.090  15.600  0.00  0.00    +0.000 C 
ATOM     24  C   UNL     1       7.044   6.848  17.266  0.00  0.00    +0.000 C 
ATOM     25  C   UNL     1       7.684   4.600  17.828  0.00  0.00    +0.000 C 
ENDBRANCH  21  22
ENDBRANCH  20  21
ENDBRANCH  19  20
ENDBRANCH  18  19
ENDBRANCH  16  18
ENDBRANCH   3  14
BRANCH   4  26
ATOM     26  O   UNL     1       0.704   8.448  21.141  0.00  0.00    +0.000 OA
ATOM     27  H   UNL     1       1.541   7.972  21.164  0.00  0.00    +0.000 HD
ENDBRANCH   4  26
TORSDOF 7
ENDMDL
MODEL 6
REMARK VINA RESULT:      -6.5      3.503      8.775
REMARK  Name = 
REMARK  11 active torsions:
REMARK  status: ('A' for Active; 'I' for Inactive)
REMARK    1  A    between atoms: C_1  and  N_2
REMARK    2  A    between atoms: C_3  and  C_4
REMARK    3  A    between atoms: N_6  and  C_7
REMARK    4  A    between atoms: C_7  and  C_8
REMARK    5  A    between atoms: C_8  and  C_9
REMARK    6  A    between atoms: C_9  and  C_10
REMARK    7  A    between atoms: C_10  and  N_11
REMARK    8  A    between atoms: N_11  and  C_12
REMARK    9  A    between atoms: N_11  and  C_13
REMARK   10  A    between atoms: N_11  and  C_14
REMARK   11  A    between atoms: C_15  and  O_16
REMARK                            x       y       z     vdW  Elec       q    Type
REMARK                         _______ _______ _______ _____ _____    ______ ____
ROOT
ATOM      1  C   UNL     1       0.496   8.732  21.497  0.00  0.00    +0.000 C 
ATOM      2  N   UNL     1       0.608   9.957  20.719  0.00  0.00    +0.000 N 
ATOM      3  C   UNL     1       0.499   9.891  19.278  0.00  0.00    +0.000 C 
ATOM      4  C   UNL     1      -0.560  10.509  18.616  0.00  0.00    +0.000 C 
ATOM      5  C   UNL     1      -1.639  11.320  19.301  0.00  0.00    +0.000 A 
ATOM      6  C   UNL     1      -2.823  11.635  18.599  0.00  0.00    +0.000 A 
ATOM      7  C   UNL     1      -3.867  12.326  19.221  0.00  0.00    +0.000 A 
ATOM      8  C   UNL     1      -3.746  12.727  20.552  0.00  0.00    +0.000 A 
ATOM      9  C   UNL     1      -2.574  12.452  21.258  0.00  0.00    +0.000 A 
ATOM     10  C   UNL     1      -1.534  11.758  20.629  0.00  0.00    +0.000 A 
ATOM     11  S   UNL     1      -0.048  11.388  21.470  0.00  0.00    +0.000 S 
ATOM     12  O   UNL     1      -0.149  11.104  22.978  0.00  0.00    +0.000 OA
ATOM     13  O   UNL     1       1.060  12.442  21.332  0.00  0.00    +0.000 OA
ENDROOT
BRANCH   3  14
ATOM     14  C   UNL     1       1.585   9.117  18.554  0.00  0.00    +0.000 C 
ATOM     15  O   UNL     1       1.960   9.523  17.466  0.00  0.00    +0.000 OA
ATOM     16  N   UNL     1       2.068   7.916  19.000  0.00  0.00    +0.000 N 
ATOM     17  H   UNL     1       1.681   7.470  19.841  0.00  0.00    +0.000 HD
BRANCH  16  18
ATOM     18  C   UNL     1       3.058   7.138  18.273  0.00  0.00    +0.000 C 
BRANCH  18  19
ATOM     19  C   UNL     1       3.379   5.847  19.042  0.00  0.00    +0.000 C 
BRANCH  19  20
ATOM     20  C   UNL     1       4.872   5.465  19.003  0.00  0.00    +0.000 C 
BRANCH  20  21
ATOM     21  C   UNL     1       5.250   4.635  17.750  0.00  0.00    +0.000 C 
BRANCH  21  22
ATOM     22  N   UNL     1       6.148   5.321  16.775  0.00  0.00    +0.000 N 
ATOM     23  C   UNL     1       7.184   4.399  16.251  0.00  0.00    +0.000 C 
ATOM     24  C   UNL     1       5.381   5.904  15.646  0.00  0.00    +0.000 C 
ATOM     25  C   UNL     1       6.830   6.431  17.490  0.00  0.00    +0.000 C 
ENDBRANCH  21  22
ENDBRANCH  20  21
ENDBRANCH  19  20
ENDBRANCH  18  19
ENDBRANCH  16  18
ENDBRANCH   3  14
BRANCH   4  26
ATOM     26  O   UNL     1      -0.769  10.328  17.289  0.00  0.00    +0.000 OA
ATOM     27  H   UNL     1      -0.185   9.851  16.690  0.00  0.00    +0.000 HD
ENDBRANCH   4  26
TORSDOF 7
ENDMDL
MODEL 7
REMARK VINA RESULT:      -6.4      1.462      1.895
REMARK  Name = 
REMARK  11 active torsions:
REMARK  status: ('A' for Active; 'I' for Inactive)
REMARK    1  A    between atoms: C_1  and  N_2
REMARK    2  A    between atoms: C_3  and  C_4
REMARK    3  A    between atoms: N_6  and  C_7
REMARK    4  A    between atoms: C_7  and  C_8
REMARK    5  A    between atoms: C_8  and  C_9
REMARK    6  A    between atoms: C_9  and  C_10
REMARK    7  A    between atoms: C_10  and  N_11
REMARK    8  A    between atoms: N_11  and  C_12
REMARK    9  A    between atoms: N_11  and  C_13
REMARK   10  A    between atoms: N_11  and  C_14
REMARK   11  A    between atoms: C_15  and  O_16
REMARK                            x       y       z     vdW  Elec       q    Type
REMARK                         _______ _______ _______ _____ _____    ______ ____
ROOT
ATOM      1  C   UNL     1       3.343   3.715  20.652  0.00  0.00    +0.000 C 
ATOM      2  N   UNL     1       2.720   4.274  19.461  0.00  0.00    +0.000 N 
ATOM      3  C   UNL     1       2.656   5.711  19.305  0.00  0.00    +0.000 C 
ATOM      4  C   UNL     1       3.345   6.345  18.273  0.00  0.00    +0.000 C 
ATOM      5  C   UNL     1       4.162   5.624  17.222  0.00  0.00    +0.000 A 
ATOM      6  C   UNL     1       5.065   6.356  16.420  0.00  0.00    +0.000 A 
ATOM      7  C   UNL     1       5.882   5.715  15.486  0.00  0.00    +0.000 A 
ATOM      8  C   UNL     1       5.806   4.330  15.322  0.00  0.00    +0.000 A 
ATOM      9  C   UNL     1       4.900   3.589  16.083  0.00  0.00    +0.000 A 
ATOM     10  C   UNL     1       4.087   4.239  17.018  0.00  0.00    +0.000 A 
ATOM     11  S   UNL     1       2.940   3.355  17.995  0.00  0.00    +0.000 S 
ATOM     12  O   UNL     1       3.326   1.925  18.409  0.00  0.00    +0.000 OA
ATOM     13  O   UNL     1       1.530   3.234  17.397  0.00  0.00    +0.000 OA
ENDROOT
BRANCH   3  14
ATOM     14  C   UNL     1       1.815   6.464  20.320  0.00  0.00    +0.000 C 
ATOM     15  O   UNL     1       0.841   5.904  20.796  0.00  0.00    +0.000 OA
ATOM     16  N   UNL     1       2.020   7.782  20.625  0.00  0.00    +0.000 N 
ATOM     17  H   UNL     1       2.743   8.330  20.144  0.00  0.00    +0.000 HD
BRANCH  16  18
ATOM     18  C   UNL     1       1.172   8.526  21.545  0.00  0.00    +0.000 C 
BRANCH  18  19
ATOM     19  C   UNL     1       0.277   9.498  20.762  0.00  0.00    +0.000 C 
BRANCH  19  20
ATOM     20  C   UNL     1       0.256  10.922  21.353  0.00  0.00    +0.000 C 
BRANCH  20  21
ATOM     21  C   UNL     1      -0.731  11.068  22.540  0.00  0.00    +0.000 C 
BRANCH  21  22
ATOM     22  N   UNL     1      -1.673  12.223  22.450  0.00  0.00    +0.000 N 
ATOM     23  C   UNL     1      -2.128  12.443  21.056  0.00  0.00    +0.000 C 
ATOM     24  C   UNL     1      -2.848  12.036  23.336  0.00  0.00    +0.000 C 
ATOM     25  C   UNL     1      -0.945  13.438  22.899  0.00  0.00    +0.000 C 
ENDBRANCH  21  22
ENDBRANCH  20  21
ENDBRANCH  19  20
ENDBRANCH  18  19
ENDBRANCH  16  18
ENDBRANCH   3  14
BRANCH   4  26
ATOM     26  O   UNL     1       3.429   7.696  18.202  0.00  0.00    +0.000 OA
ATOM     27  H   UNL     1       3.548   8.207  17.394  0.00  0.00    +0.000 HD
ENDBRANCH   4  26
TORSDOF 7
ENDMDL
MODEL 8
REMARK VINA RESULT:      -6.4      1.705      2.195
REMARK  Name = 
REMARK  11 active torsions:
REMARK  status: ('A' for Active; 'I' for Inactive)
REMARK    1  A    between atoms: C_1  and  N_2
REMARK    2  A    between atoms: C_3  and  C_4
REMARK    3  A    between atoms: N_6  and  C_7
REMARK    4  A    between atoms: C_7  and  C_8
REMARK    5  A    between atoms: C_8  and  C_9
REMARK    6  A    between atoms: C_9  and  C_10
REMARK    7  A    between atoms: C_10  and  N_11
REMARK    8  A    between atoms: N_11  and  C_12
REMARK    9  A    between atoms: N_11  and  C_13
REMARK   10  A    between atoms: N_11  and  C_14
REMARK   11  A    between atoms: C_15  and  O_16
REMARK                            x       y       z     vdW  Elec       q    Type
REMARK                         _______ _______ _______ _____ _____    ______ ____
ROOT
ATOM      1  C   UNL     1       2.740   4.966  20.707  0.00  0.00    +0.000 C 
ATOM      2  N   UNL     1       2.347   5.380  19.369  0.00  0.00    +0.000 N 
ATOM      3  C   UNL     1       2.601   6.741  18.946  0.00  0.00    +0.000 C 
ATOM      4  C   UNL     1       3.489   7.008  17.906  0.00  0.00    +0.000 C 
ATOM      5  C   UNL     1       4.217   5.945  17.110  0.00  0.00    +0.000 A 
ATOM      6  C   UNL     1       5.316   6.313  16.302  0.00  0.00    +0.000 A 
ATOM      7  C   UNL     1       6.051   5.350  15.605  0.00  0.00    +0.000 A 
ATOM      8  C   UNL     1       5.697   4.002  15.689  0.00  0.00    +0.000 A 
ATOM      9  C   UNL     1       4.597   3.619  16.458  0.00  0.00    +0.000 A 
ATOM     10  C   UNL     1       3.868   4.588  17.154  0.00  0.00    +0.000 A 
ATOM     11  S   UNL     1       2.485   4.158  18.132  0.00  0.00    +0.000 S 
ATOM     12  O   UNL     1       2.526   2.795  18.843  0.00  0.00    +0.000 OA
ATOM     13  O   UNL     1       1.134   4.191  17.401  0.00  0.00    +0.000 OA
ENDROOT
BRANCH   3  14
ATOM     14  C   UNL     1       1.860   7.831  19.698  0.00  0.00    +0.000 C 
ATOM     15  O   UNL     1       1.434   7.580  20.814  0.00  0.00    +0.000 OA
ATOM     16  N   UNL     1       1.532   9.034  19.134  0.00  0.00    +0.000 N 
ATOM     17  H   UNL     1       1.752   9.235  18.150  0.00  0.00    +0.000 HD
BRANCH  16  18
ATOM     18  C   UNL     1       0.762  10.054  19.828  0.00  0.00    +0.000 C 
BRANCH  18  19
ATOM     19  C   UNL     1      -0.700  10.018  19.356  0.00  0.00    +0.000 C 
BRANCH  19  20
ATOM     20  C   UNL     1      -1.017  11.063  18.267  0.00  0.00    +0.000 C 
BRANCH  20  21
ATOM     21  C   UNL     1      -2.502  11.508  18.273  0.00  0.00    +0.000 C 
BRANCH  21  22
ATOM     22  N   UNL     1      -3.355  10.906  17.206  0.00  0.00    +0.000 N 
ATOM     23  C   UNL     1      -4.630  11.646  17.050  0.00  0.00    +0.000 C 
ATOM     24  C   UNL     1      -2.643  10.856  15.905  0.00  0.00    +0.000 C 
ATOM     25  C   UNL     1      -3.672   9.513  17.613  0.00  0.00    +0.000 C 
ENDBRANCH  21  22
ENDBRANCH  20  21
ENDBRANCH  19  20
ENDBRANCH  18  19
ENDBRANCH  16  18
ENDBRANCH   3  14
BRANCH   4  26
ATOM     26  O   UNL     1       3.863   8.274  17.600  0.00  0.00    +0.000 OA
ATOM     27  H   UNL     1       3.646   8.741  16.786  0.00  0.00    +0.000 HD
ENDBRANCH   4  26
TORSDOF 7
ENDMDL
MODEL 9
REMARK VINA RESULT:      -6.4      3.469      8.889
REMARK  Name = 
REMARK  11 active torsions:
REMARK  status: ('A' for Active; 'I' for Inactive)
REMARK    1  A    between atoms: C_1  and  N_2
REMARK    2  A    between atoms: C_3  and  C_4
REMARK    3  A    between atoms: N_6  and  C_7
REMARK    4  A    between atoms: C_7  and  C_8
REMARK    5  A    between atoms: C_8  and  C_9
REMARK    6  A    between atoms: C_9  and  C_10
REMARK    7  A    between atoms: C_10  and  N_11
REMARK    8  A    between atoms: N_11  and  C_12
REMARK    9  A    between atoms: N_11  and  C_13
REMARK   10  A    between atoms: N_11  and  C_14
REMARK   11  A    between atoms: C_15  and  O_16
REMARK                            x       y       z     vdW  Elec       q    Type
REMARK                         _______ _______ _______ _____ _____    ______ ____
ROOT
ATOM      1  C   UNL     1       0.664   9.485  21.489  0.00  0.00    +0.000 C 
ATOM      2  N   UNL     1       0.591  10.474  20.424  0.00  0.00    +0.000 N 
ATOM      3  C   UNL     1       0.406  10.031  19.059  0.00  0.00    +0.000 C 
ATOM      4  C   UNL     1      -0.753  10.357  18.357  0.00  0.00    +0.000 C 
ATOM      5  C   UNL     1      -1.874  11.212  18.909  0.00  0.00    +0.000 A 
ATOM      6  C   UNL     1      -3.125  11.225  18.254  0.00  0.00    +0.000 A 
ATOM      7  C   UNL     1      -4.201  11.951  18.772  0.00  0.00    +0.000 A 
ATOM      8  C   UNL     1      -4.047  12.691  19.946  0.00  0.00    +0.000 A 
ATOM      9  C   UNL     1      -2.812  12.716  20.594  0.00  0.00    +0.000 A 
ATOM     10  C   UNL     1      -1.741  11.985  20.072  0.00  0.00    +0.000 A 
ATOM     11  S   UNL     1      -0.175  11.982  20.848  0.00  0.00    +0.000 S 
ATOM     12  O   UNL     1      -0.154  12.087  22.382  0.00  0.00    +0.000 OA
ATOM     13  O   UNL     1       0.798  13.065  20.357  0.00  0.00    +0.000 OA
ENDROOT
BRANCH   3  14
ATOM     14  C   UNL     1       1.527   9.202  18.460  0.00  0.00    +0.000 C 
ATOM     15  O   UNL     1       1.971   9.526  17.370  0.00  0.00    +0.000 OA
ATOM     16  N   UNL     1       1.972   8.035  19.021  0.00  0.00    +0.000 N 
ATOM     17  H   UNL     1       1.532   7.654  19.867  0.00  0.00    +0.000 HD
BRANCH  16  18
ATOM     18  C   UNL     1       2.998   7.202  18.413  0.00  0.00    +0.000 C 
BRANCH  18  19
ATOM     19  C   UNL     1       2.437   5.799  18.135  0.00  0.00    +0.000 C 
BRANCH  19  20
ATOM     20  C   UNL     1       3.493   4.682  18.253  0.00  0.00    +0.000 C 
BRANCH  20  21
ATOM     21  C   UNL     1       4.027   4.209  16.877  0.00  0.00    +0.000 C 
BRANCH  21  22
ATOM     22  N   UNL     1       5.390   4.699  16.517  0.00  0.00    +0.000 N 
ATOM     23  C   UNL     1       5.332   6.021  15.849  0.00  0.00    +0.000 C 
ATOM     24  C   UNL     1       6.272   4.778  17.707  0.00  0.00    +0.000 C 
ATOM     25  C   UNL     1       5.986   3.724  15.567  0.00  0.00    +0.000 C 
ENDBRANCH  21  22
ENDBRANCH  20  21
ENDBRANCH  19  20
ENDBRANCH  18  19
ENDBRANCH  16  18
ENDBRANCH   3  14
BRANCH   4  26
ATOM     26  O   UNL     1      -1.019   9.823  17.140  0.00  0.00    +0.000 OA
ATOM     27  H   UNL     1      -0.761  10.203  16.294  0.00  0.00    +0.000 HD
ENDBRANCH   4  26
TORSDOF 7
ENDMDL
