MODEL 1
REMARK VINA RESULT:      -8.7      0.000      0.000
REMARK  Name = 
REMARK  6 active torsions:
REMARK  status: ('A' for Active; 'I' for Inactive)
REMARK    1  A    between atoms: C_1  and  C_2
REMARK    2  A    between atoms: C_2  and  C_3
REMARK    3  A    between atoms: C_3  and  N_4
REMARK    4  A    between atoms: C_19  and  O_20
REMARK    5  A    between atoms: O_20  and  C_21
REMARK    6  A    between atoms: N_23  and  C_24
REMARK                            x       y       z     vdW  Elec       q    Type
REMARK                         _______ _______ _______ _____ _____    ______ ____
ROOT
ATOM      1  N   UNL     1      -1.818  11.987  19.419  0.00  0.00    +0.000 NA
ATOM      2  C   UNL     1      -2.525  11.851  20.700  0.00  0.00    +0.000 C 
ATOM      3  C   UNL     1      -1.555  12.094  21.835  0.00  0.00    +0.000 C 
ATOM      4  C   UNL     1      -0.699  10.864  21.893  0.00  0.00    +0.000 A 
ATOM      5  C   UNL     1      -0.444  10.274  23.120  0.00  0.00    +0.000 A 
ATOM      6  C   UNL     1       0.303   9.111  23.160  0.00  0.00    +0.000 A 
ATOM      7  C   UNL     1       0.808   8.547  21.981  0.00  0.00    +0.000 A 
ATOM      8  C   UNL     1       0.598   9.114  20.714  0.00  0.00    +0.000 A 
ATOM      9  C   UNL     1      -0.210  10.308  20.677  0.00  0.00    +0.000 A 
ATOM     10  C   UNL     1      -0.474  11.189  19.417  0.00  0.00    +0.000 C 
ATOM     11  C   UNL     1       0.266  10.606  18.173  0.00  0.00    +0.000 C 
ATOM     12  C   UNL     1       1.303   9.449  18.376  0.00  0.00    +0.000 A 
ATOM     13  C   UNL     1       2.227   9.245  17.327  0.00  0.00    +0.000 A 
ATOM     14  C   UNL     1       3.165   8.206  17.359  0.00  0.00    +0.000 A 
ATOM     15  C   UNL     1       3.184   7.277  18.403  0.00  0.00    +0.000 A 
ATOM     16  C   UNL     1       2.300   7.421  19.484  0.00  0.00    +0.000 A 
ATOM     17  C   UNL     1       1.361   8.586  19.532  0.00  0.00    +0.000 A 
ENDROOT
BRANCH   1  18
ATOM     18  C   UNL     1      -2.787  12.101  18.311  0.00  0.00    +0.000 C 
BRANCH  18  20
ATOM     19  C   UNL     1      -3.287   9.544  17.626  0.00  0.00    +0.000 C 
ATOM     20  C   UNL     1      -3.824  10.895  18.112  0.00  0.00    +0.000 C 
ENDBRANCH  18  20
ENDBRANCH   1  18
BRANCH  16  21
ATOM     21  O   UNL     1       2.349   6.183  20.447  0.00  0.00    +0.000 OA
BRANCH  21  22
ATOM     22  C   UNL     1       2.126   4.668  20.285  0.00  0.00    +0.000 C 
ATOM     23  O   UNL     1       1.391   4.081  21.089  0.00  0.00    +0.000 OA
ATOM     24  N   UNL     1       2.754   3.854  19.238  0.00  0.00    +0.000 N 
ATOM     25  H   UNL     1       2.479   2.874  19.283  0.00  0.00    +0.000 HD
BRANCH  24  26
ATOM     26  C   UNL     1       3.822   4.160  18.326  0.00  0.00    +0.000 A 
ATOM     27  C   UNL     1       3.468   3.932  17.010  0.00  0.00    +0.000 A 
ATOM     28  C   UNL     1       4.414   3.980  16.033  0.00  0.00    +0.000 A 
ATOM     29  C   UNL     1       5.190   5.101  16.148  0.00  0.00    +0.000 A 
ATOM     30  C   UNL     1       5.729   5.398  17.393  0.00  0.00    +0.000 A 
ATOM     31  C   UNL     1       6.852   6.246  17.290  0.00  0.00    +0.000 A 
ATOM     32  C   UNL     1       7.710   6.408  18.345  0.00  0.00    +0.000 A 
ATOM     33  C   UNL     1       7.401   5.738  19.529  0.00  0.00    +0.000 A 
ATOM     34  C   UNL     1       6.160   5.011  19.674  0.00  0.00    +0.000 A 
ATOM     35  C   UNL     1       5.196   4.805  18.574  0.00  0.00    +0.000 A 
ENDBRANCH  24  26
ENDBRANCH  21  22
ENDBRANCH  16  21
TORSDOF 5
ENDMDL
MODEL 2
REMARK VINA RESULT:      -8.6      2.535      4.413
REMARK  Name = 
REMARK  6 active torsions:
REMARK  status: ('A' for Active; 'I' for Inactive)
REMARK    1  A    between atoms: C_1  and  C_2
REMARK    2  A    between atoms: C_2  and  C_3
REMARK    3  A    between atoms: C_3  and  N_4
REMARK    4  A    between atoms: C_19  and  O_20
REMARK    5  A    between atoms: O_20  and  C_21
REMARK    6  A    between atoms: N_23  and  C_24
REMARK                            x       y       z     vdW  Elec       q    Type
REMARK                         _______ _______ _______ _____ _____    ______ ____
ROOT
ATOM      1  N   UNL     1      -5.370  13.062  20.827  0.00  0.00    +0.000 NA
ATOM      2  C   UNL     1      -5.091  13.612  22.161  0.00  0.00    +0.000 C 
ATOM      3  C   UNL     1      -4.009  14.663  22.052  0.00  0.00    +0.000 C 
ATOM      4  C   UNL     1      -2.738  13.901  21.828  0.00  0.00    +0.000 A 
ATOM      5  C   UNL     1      -1.609  14.237  22.557  0.00  0.00    +0.000 A 
ATOM      6  C   UNL     1      -0.455  13.496  22.382  0.00  0.00    +0.000 A 
ATOM      7  C   UNL     1      -0.422  12.432  21.472  0.00  0.00    +0.000 A 
ATOM      8  C   UNL     1      -1.529  12.060  20.693  0.00  0.00    +0.000 A 
ATOM      9  C   UNL     1      -2.739  12.817  20.904  0.00  0.00    +0.000 A 
ATOM     10  C   UNL     1      -4.053  12.683  20.075  0.00  0.00    +0.000 C 
ATOM     11  C   UNL     1      -3.891  11.606  18.957  0.00  0.00    +0.000 C 
ATOM     12  C   UNL     1      -2.467  11.020  18.665  0.00  0.00    +0.000 A 
ATOM     13  C   UNL     1      -2.296  10.387  17.414  0.00  0.00    +0.000 A 
ATOM     14  C   UNL     1      -1.091   9.771  17.054  0.00  0.00    +0.000 A 
ATOM     15  C   UNL     1      -0.021   9.692  17.951  0.00  0.00    +0.000 A 
ATOM     16  C   UNL     1      -0.117  10.305  19.210  0.00  0.00    +0.000 A 
ATOM     17  C   UNL     1      -1.351  11.067  19.579  0.00  0.00    +0.000 A 
ENDROOT
BRANCH   1  18
ATOM     18  C   UNL     1      -6.636  12.303  20.843  0.00  0.00    +0.000 C 
BRANCH  18  20
ATOM     19  C   UNL     1      -7.277  13.347  18.442  0.00  0.00    +0.000 C 
ATOM     20  C   UNL     1      -7.741  12.691  19.749  0.00  0.00    +0.000 C 
ENDBRANCH  18  20
ENDBRANCH   1  18
BRANCH  16  21
ATOM     21  O   UNL     1       1.103   9.944  20.129  0.00  0.00    +0.000 OA
BRANCH  21  22
ATOM     22  C   UNL     1       1.309   9.042  21.359  0.00  0.00    +0.000 C 
ATOM     23  O   UNL     1       1.276   9.549  22.487  0.00  0.00    +0.000 OA
ATOM     24  N   UNL     1       1.572   7.599  21.284  0.00  0.00    +0.000 N 
ATOM     25  H   UNL     1       1.670   7.168  22.202  0.00  0.00    +0.000 HD
BRANCH  24  26
ATOM     26  C   UNL     1       1.913   6.765  20.164  0.00  0.00    +0.000 A 
ATOM     27  C   UNL     1       2.576   7.466  19.175  0.00  0.00    +0.000 A 
ATOM     28  C   UNL     1       2.799   6.884  17.964  0.00  0.00    +0.000 A 
ATOM     29  C   UNL     1       3.313   5.624  18.105  0.00  0.00    +0.000 A 
ATOM     30  C   UNL     1       2.674   4.753  18.978  0.00  0.00    +0.000 A 
ATOM     31  C   UNL     1       2.973   3.405  18.685  0.00  0.00    +0.000 A 
ATOM     32  C   UNL     1       2.219   2.388  19.209  0.00  0.00    +0.000 A 
ATOM     33  C   UNL     1       1.181   2.740  20.072  0.00  0.00    +0.000 A 
ATOM     34  C   UNL     1       0.995   4.110  20.496  0.00  0.00    +0.000 A 
ATOM     35  C   UNL     1       1.777   5.246  19.969  0.00  0.00    +0.000 A 
ENDBRANCH  24  26
ENDBRANCH  21  22
ENDBRANCH  16  21
TORSDOF 5
ENDMDL
MODEL 3
REMARK VINA RESULT:      -8.5      2.159      8.860
REMARK  Name = 
REMARK  6 active torsions:
REMARK  status: ('A' for Active; 'I' for Inactive)
REMARK    1  A    between atoms: C_1  and  C_2
REMARK    2  A    between atoms: C_2  and  C_3
REMARK    3  A    between atoms: C_3  and  N_4
REMARK    4  A    between atoms: C_19  and  O_20
REMARK    5  A    between atoms: O_20  and  C_21
REMARK    6  A    between atoms: N_23  and  C_24
REMARK                            x       y       z     vdW  Elec       q    Type
REMARK                         _______ _______ _______ _____ _____    ______ ____
ROOT
ATOM      1  N   UNL     1       2.980   3.188  18.860  0.00  0.00    +0.000 NA
ATOM      2  C   UNL     1       3.631   3.036  17.551  0.00  0.00    +0.000 C 
ATOM      3  C   UNL     1       4.935   3.801  17.549  0.00  0.00    +0.000 C 
ATOM      4  C   UNL     1       4.547   5.246  17.466  0.00  0.00    +0.000 A 
ATOM      5  C   UNL     1       5.206   6.075  16.573  0.00  0.00    +0.000 A 
ATOM      6  C   UNL     1       4.807   7.394  16.465  0.00  0.00    +0.000 A 
ATOM      7  C   UNL     1       3.763   7.890  17.256  0.00  0.00    +0.000 A 
ATOM      8  C   UNL     1       3.074   7.102  18.191  0.00  0.00    +0.000 A 
ATOM      9  C   UNL     1       3.474   5.718  18.275  0.00  0.00    +0.000 A 
ATOM     10  C   UNL     1       2.954   4.682  19.319  0.00  0.00    +0.000 C 
ATOM     11  C   UNL     1       1.926   5.346  20.288  0.00  0.00    +0.000 C 
ATOM     12  C   UNL     1       1.747   6.902  20.258  0.00  0.00    +0.000 A 
ATOM     13  C   UNL     1       1.143   7.483  21.396  0.00  0.00    +0.000 A 
ATOM     14  C   UNL     1       0.872   8.855  21.470  0.00  0.00    +0.000 A 
ATOM     15  C   UNL     1       1.122   9.704  20.387  0.00  0.00    +0.000 A 
ATOM     16  C   UNL     1       1.728   9.197  19.227  0.00  0.00    +0.000 A 
ATOM     17  C   UNL     1       2.131   7.757  19.161  0.00  0.00    +0.000 A 
ENDROOT
BRANCH   1  18
ATOM     18  C   UNL     1       1.902   2.191  19.012  0.00  0.00    +0.000 C 
BRANCH  18  20
ATOM     19  C   UNL     1       1.739   2.401  21.694  0.00  0.00    +0.000 C 
ATOM     20  C   UNL     1       1.018   2.260  20.348  0.00  0.00    +0.000 C 
ENDBRANCH  18  20
ENDBRANCH   1  18
BRANCH  16  21
ATOM     21  O   UNL     1       1.749  10.257  18.069  0.00  0.00    +0.000 OA
BRANCH  21  22
ATOM     22  C   UNL     1       1.845  11.792  18.001  0.00  0.00    +0.000 C 
ATOM     23  O   UNL     1       2.927  12.312  17.702  0.00  0.00    +0.000 OA
ATOM     24  N   UNL     1       0.728  12.698  18.295  0.00  0.00    +0.000 N 
ATOM     25  H   UNL     1       0.978  13.680  18.187  0.00  0.00    +0.000 HD
BRANCH  24  26
ATOM     26  C   UNL     1      -0.552  12.444  18.898  0.00  0.00    +0.000 A 
ATOM     27  C   UNL     1      -0.741  13.178  20.053  0.00  0.00    +0.000 A 
ATOM     28  C   UNL     1      -1.809  12.917  20.857  0.00  0.00    +0.000 A 
ATOM     29  C   UNL     1      -2.966  12.830  20.132  0.00  0.00    +0.000 A 
ATOM     30  C   UNL     1      -2.970  12.021  19.003  0.00  0.00    +0.000 A 
ATOM     31  C   UNL     1      -4.277  11.634  18.640  0.00  0.00    +0.000 A 
ATOM     32  C   UNL     1      -4.488  10.602  17.763  0.00  0.00    +0.000 A 
ATOM     33  C   UNL     1      -3.361   9.988  17.217  0.00  0.00    +0.000 A 
ATOM     34  C   UNL     1      -2.034  10.505  17.466  0.00  0.00    +0.000 A 
ATOM     35  C   UNL     1      -1.746  11.614  18.398  0.00  0.00    +0.000 A 
ENDBRANCH  24  26
ENDBRANCH  21  22
ENDBRANCH  16  21
TORSDOF 5
ENDMDL
MODEL 4
REMARK VINA RESULT:      -8.5      2.192      8.284
REMARK  Name = 
REMARK  6 active torsions:
REMARK  status: ('A' for Active; 'I' for Inactive)
REMARK    1  A    between atoms: C_1  and  C_2
REMARK    2  A    between atoms: C_2  and  C_3
REMARK    3  A    between atoms: C_3  and  N_4
REMARK    4  A    between atoms: C_19  and  O_20
REMARK    5  A    between atoms: O_20  and  C_21
REMARK    6  A    between atoms: N_23  and  C_24
REMARK                            x       y       z     vdW  Elec       q    Type
REMARK                         _______ _______ _______ _____ _____    ______ ____
ROOT
ATOM      1  N   UNL     1       5.414   5.217  17.621  0.00  0.00    +0.000 NA
ATOM      2  C   UNL     1       5.600   4.145  18.609  0.00  0.00    +0.000 C 
ATOM      3  C   UNL     1       4.334   3.323  18.701  0.00  0.00    +0.000 C 
ATOM      4  C   UNL     1       3.359   4.182  19.449  0.00  0.00    +0.000 A 
ATOM      5  C   UNL     1       2.614   3.625  20.475  0.00  0.00    +0.000 A 
ATOM      6  C   UNL     1       1.755   4.436  21.193  0.00  0.00    +0.000 A 
ATOM      7  C   UNL     1       1.627   5.795  20.880  0.00  0.00    +0.000 A 
ATOM      8  C   UNL     1       2.342   6.407  19.838  0.00  0.00    +0.000 A 
ATOM      9  C   UNL     1       3.260   5.563  19.114  0.00  0.00    +0.000 A 
ATOM     10  C   UNL     1       4.065   5.973  17.842  0.00  0.00    +0.000 C 
ATOM     11  C   UNL     1       3.739   7.445  17.437  0.00  0.00    +0.000 C 
ATOM     12  C   UNL     1       2.555   8.186  18.146  0.00  0.00    +0.000 A 
ATOM     13  C   UNL     1       2.042   9.323  17.482  0.00  0.00    +0.000 A 
ATOM     14  C   UNL     1       1.024  10.108  18.038  0.00  0.00    +0.000 A 
ATOM     15  C   UNL     1       0.517   9.842  19.314  0.00  0.00    +0.000 A 
ATOM     16  C   UNL     1       0.975   8.725  20.029  0.00  0.00    +0.000 A 
ATOM     17  C   UNL     1       1.982   7.803  19.414  0.00  0.00    +0.000 A 
ENDROOT
BRANCH   1  18
ATOM     18  C   UNL     1       6.717   5.808  17.257  0.00  0.00    +0.000 C 
BRANCH  18  20
ATOM     19  C   UNL     1       8.134   7.891  18.214  0.00  0.00    +0.000 C 
ATOM     20  C   UNL     1       7.575   6.479  18.433  0.00  0.00    +0.000 C 
ENDBRANCH  18  20
ENDBRANCH   1  18
BRANCH  16  21
ATOM     21  O   UNL     1       0.428   8.710  21.500  0.00  0.00    +0.000 OA
BRANCH  21  22
ATOM     22  C   UNL     1       0.419   9.713  22.668  0.00  0.00    +0.000 C 
ATOM     23  O   UNL     1       0.593   9.294  23.819  0.00  0.00    +0.000 OA
ATOM     24  N   UNL     1       0.190  11.154  22.510  0.00  0.00    +0.000 N 
ATOM     25  H   UNL     1       0.231  11.659  23.394  0.00  0.00    +0.000 HD
BRANCH  24  26
ATOM     26  C   UNL     1      -0.279  11.911  21.382  0.00  0.00    +0.000 A 
ATOM     27  C   UNL     1      -1.641  11.776  21.192  0.00  0.00    +0.000 A 
ATOM     28  C   UNL     1      -2.221  12.261  20.060  0.00  0.00    +0.000 A 
ATOM     29  C   UNL     1      -1.811  13.541  19.801  0.00  0.00    +0.000 A 
ATOM     30  C   UNL     1      -0.448  13.808  19.829  0.00  0.00    +0.000 A 
ATOM     31  C   UNL     1      -0.127  14.972  19.100  0.00  0.00    +0.000 A 
ATOM     32  C   UNL     1       1.167  15.241  18.739  0.00  0.00    +0.000 A 
ATOM     33  C   UNL     1       2.148  14.343  19.160  0.00  0.00    +0.000 A 
ATOM     34  C   UNL     1       1.828  13.250  20.049  0.00  0.00    +0.000 A 
ATOM     35  C   UNL     1       0.453  12.912  20.473  0.00  0.00    +0.000 A 
ENDBRANCH  24  26
ENDBRANCH  21  22
ENDBRANCH  16  21
TORSDOF 5
ENDMDL
MODEL 5
REMARK VINA RESULT:      -8.4      0.823      1.863
REMARK  Name = 
REMARK  6 active torsions:
REMARK  status: ('A' for Active; 'I' for Inactive)
REMARK    1  A    between atoms: C_1  and  C_2
REMARK    2  A    between atoms: C_2  and  C_3
REMARK    3  A    between atoms: C_3  and  N_4
REMARK    4  A    between atoms: C_19  and  O_20
REMARK    5  A    between atoms: O_20  and  C_21
REMARK    6  A    between atoms: N_23  and  C_24
REMARK                            x       y       z     vdW  Elec       q    Type
REMARK                         _______ _______ _______ _____ _____    ______ ____
ROOT
ATOM      1  N   UNL     1      -1.573  12.023  19.394  0.00  0.00    +0.000 NA
ATOM      2  C   UNL     1      -2.303  11.912  20.664  0.00  0.00    +0.000 C 
ATOM      3  C   UNL     1      -1.338  12.100  21.813  0.00  0.00    +0.000 C 
ATOM      4  C   UNL     1      -0.544  10.830  21.874  0.00  0.00    +0.000 A 
ATOM      5  C   UNL     1      -0.335  10.219  23.099  0.00  0.00    +0.000 A 
ATOM      6  C   UNL     1       0.354   9.022  23.141  0.00  0.00    +0.000 A 
ATOM      7  C   UNL     1       0.848   8.442  21.965  0.00  0.00    +0.000 A 
ATOM      8  C   UNL     1       0.683   9.026  20.699  0.00  0.00    +0.000 A 
ATOM      9  C   UNL     1      -0.065  10.259  20.660  0.00  0.00    +0.000 A 
ATOM     10  C   UNL     1      -0.269  11.161  19.404  0.00  0.00    +0.000 C 
ATOM     11  C   UNL     1       0.459  10.551  18.165  0.00  0.00    +0.000 C 
ATOM     12  C   UNL     1       1.435   9.343  18.374  0.00  0.00    +0.000 A 
ATOM     13  C   UNL     1       2.362   9.102  17.335  0.00  0.00    +0.000 A 
ATOM     14  C   UNL     1       3.249   8.019  17.372  0.00  0.00    +0.000 A 
ATOM     15  C   UNL     1       3.208   7.082  18.409  0.00  0.00    +0.000 A 
ATOM     16  C   UNL     1       2.318   7.262  19.479  0.00  0.00    +0.000 A 
ATOM     17  C   UNL     1       1.435   8.470  19.524  0.00  0.00    +0.000 A 
ENDROOT
BRANCH   1  18
ATOM     18  C   UNL     1      -2.520  12.192  18.274  0.00  0.00    +0.000 C 
BRANCH  18  20
ATOM     19  C   UNL     1      -3.874  10.809  16.398  0.00  0.00    +0.000 C 
ATOM     20  C   UNL     1      -3.397  10.918  17.852  0.00  0.00    +0.000 C 
ENDBRANCH  18  20
ENDBRANCH   1  18
BRANCH  16  21
ATOM     21  O   UNL     1       2.294   6.016  20.434  0.00  0.00    +0.000 OA
BRANCH  21  22
ATOM     22  C   UNL     1       2.425   4.494  20.241  0.00  0.00    +0.000 C 
ATOM     23  O   UNL     1       1.642   3.745  20.837  0.00  0.00    +0.000 OA
ATOM     24  N   UNL     1       3.449   3.859  19.402  0.00  0.00    +0.000 N 
ATOM     25  H   UNL     1       3.372   2.843  19.388  0.00  0.00    +0.000 HD
BRANCH  24  26
ATOM     26  C   UNL     1       4.631   4.403  18.791  0.00  0.00    +0.000 A 
ATOM     27  C   UNL     1       5.541   4.855  19.726  0.00  0.00    +0.000 A 
ATOM     28  C   UNL     1       6.625   5.577  19.327  0.00  0.00    +0.000 A 
ATOM     29  C   UNL     1       7.257   4.980  18.271  0.00  0.00    +0.000 A 
ATOM     30  C   UNL     1       6.484   4.581  17.188  0.00  0.00    +0.000 A 
ATOM     31  C   UNL     1       7.257   4.442  16.016  0.00  0.00    +0.000 A 
ATOM     32  C   UNL     1       6.660   4.364  14.785  0.00  0.00    +0.000 A 
ATOM     33  C   UNL     1       5.265   4.383  14.748  0.00  0.00    +0.000 A 
ATOM     34  C   UNL     1       4.486   4.354  15.965  0.00  0.00    +0.000 A 
ATOM     35  C   UNL     1       5.073   4.434  17.319  0.00  0.00    +0.000 A 
ENDBRANCH  24  26
ENDBRANCH  21  22
ENDBRANCH  16  21
TORSDOF 5
ENDMDL
MODEL 6
REMARK VINA RESULT:      -8.4      8.803     12.086
REMARK  Name = 
REMARK  6 active torsions:
REMARK  status: ('A' for Active; 'I' for Inactive)
REMARK    1  A    between atoms: C_1  and  C_2
REMARK    2  A    between atoms: C_2  and  C_3
REMARK    3  A    between atoms: C_3  and  N_4
REMARK    4  A    between atoms: C_19  and  O_20
REMARK    5  A    between atoms: O_20  and  C_21
REMARK    6  A    between atoms: N_23  and  C_24
REMARK                            x       y       z     vdW  Elec       q    Type
REMARK                         _______ _______ _______ _____ _____    ______ ____
ROOT
ATOM      1  N   UNL     1       9.850  10.870  18.738  0.00  0.00    +0.000 NA
ATOM      2  C   UNL     1      10.476  11.644  17.657  0.00  0.00    +0.000 C 
ATOM      3  C   UNL     1      11.837  12.125  18.108  0.00  0.00    +0.000 C 
ATOM      4  C   UNL     1      11.562  13.234  19.078  0.00  0.00    +0.000 A 
ATOM      5  C   UNL     1      12.278  14.415  18.977  0.00  0.00    +0.000 A 
ATOM      6  C   UNL     1      11.983  15.452  19.843  0.00  0.00    +0.000 A 
ATOM      7  C   UNL     1      10.988  15.306  20.818  0.00  0.00    +0.000 A 
ATOM      8  C   UNL     1      10.247  14.125  20.979  0.00  0.00    +0.000 A 
ATOM      9  C   UNL     1      10.537  13.059  20.051  0.00  0.00    +0.000 A 
ATOM     10  C   UNL     1       9.946  11.616  20.108  0.00  0.00    +0.000 C 
ATOM     11  C   UNL     1       8.982  11.465  21.326  0.00  0.00    +0.000 C 
ATOM     12  C   UNL     1       8.926  12.604  22.400  0.00  0.00    +0.000 A 
ATOM     13  C   UNL     1       8.380  12.254  23.655  0.00  0.00    +0.000 A 
ATOM     14  C   UNL     1       8.218  13.195  24.680  0.00  0.00    +0.000 A 
ATOM     15  C   UNL     1       8.526  14.544  24.481  0.00  0.00    +0.000 A 
ATOM     16  C   UNL     1       9.079  14.963  23.261  0.00  0.00    +0.000 A 
ATOM     17  C   UNL     1       9.367  13.962  22.187  0.00  0.00    +0.000 A 
ENDROOT
BRANCH   1  18
ATOM     18  C   UNL     1       8.698  10.107  18.219  0.00  0.00    +0.000 C 
BRANCH  18  20
ATOM     19  C   UNL     1       7.726   7.644  17.718  0.00  0.00    +0.000 C 
ATOM     20  C   UNL     1       8.634   8.543  18.566  0.00  0.00    +0.000 C 
ENDBRANCH  18  20
ENDBRANCH   1  18
BRANCH  16  21
ATOM     21  O   UNL     1       9.174  16.528  23.170  0.00  0.00    +0.000 OA
BRANCH  21  22
ATOM     22  C   UNL     1       8.155  17.674  23.036  0.00  0.00    +0.000 C 
ATOM     23  O   UNL     1       7.717  18.210  24.061  0.00  0.00    +0.000 OA
ATOM     24  N   UNL     1       7.640  18.167  21.752  0.00  0.00    +0.000 N 
ATOM     25  H   UNL     1       6.982  18.937  21.862  0.00  0.00    +0.000 HD
BRANCH  24  26
ATOM     26  C   UNL     1       7.744  17.619  20.427  0.00  0.00    +0.000 A 
ATOM     27  C   UNL     1       8.972  17.878  19.850  0.00  0.00    +0.000 A 
ATOM     28  C   UNL     1       9.174  17.606  18.531  0.00  0.00    +0.000 A 
ATOM     29  C   UNL     1       8.731  16.353  18.210  0.00  0.00    +0.000 A 
ATOM     30  C   UNL     1       7.453  15.987  18.615  0.00  0.00    +0.000 A 
ATOM     31  C   UNL     1       6.944  14.922  17.842  0.00  0.00    +0.000 A 
ATOM     32  C   UNL     1       5.608  14.616  17.861  0.00  0.00    +0.000 A 
ATOM     33  C   UNL     1       4.791  15.370  18.705  0.00  0.00    +0.000 A 
ATOM     34  C   UNL     1       5.353  16.342  19.615  0.00  0.00    +0.000 A 
ATOM     35  C   UNL     1       6.783  16.712  19.641  0.00  0.00    +0.000 A 
ENDBRANCH  24  26
ENDBRANCH  21  22
ENDBRANCH  16  21
TORSDOF 5
ENDMDL
MODEL 7
REMARK VINA RESULT:      -8.4      2.229      8.282
REMARK  Name = 
REMARK  6 active torsions:
REMARK  status: ('A' for Active; 'I' for Inactive)
REMARK    1  A    between atoms: C_1  and  C_2
REMARK    2  A    between atoms: C_2  and  C_3
REMARK    3  A    between atoms: C_3  and  N_4
REMARK    4  A    between atoms: C_19  and  O_20
REMARK    5  A    between atoms: O_20  and  C_21
REMARK    6  A    between atoms: N_23  and  C_24
REMARK                            x       y       z     vdW  Elec       q    Type
REMARK                         _______ _______ _______ _____ _____    ______ ____
ROOT
ATOM      1  N   UNL     1       5.264   4.381  17.686  0.00  0.00    +0.000 NA
ATOM      2  C   UNL     1       5.233   3.285  18.665  0.00  0.00    +0.000 C 
ATOM      3  C   UNL     1       3.851   2.670  18.683  0.00  0.00    +0.000 C 
ATOM      4  C   UNL     1       2.986   3.664  19.396  0.00  0.00    +0.000 A 
ATOM      5  C   UNL     1       2.113   3.222  20.377  0.00  0.00    +0.000 A 
ATOM      6  C   UNL     1       1.355   4.151  21.066  0.00  0.00    +0.000 A 
ATOM      7  C   UNL     1       1.456   5.516  20.768  0.00  0.00    +0.000 A 
ATOM      8  C   UNL     1       2.308   6.018  19.772  0.00  0.00    +0.000 A 
ATOM      9  C   UNL     1       3.119   5.046  19.079  0.00  0.00    +0.000 A 
ATOM     10  C   UNL     1       4.039   5.336  17.854  0.00  0.00    +0.000 C 
ATOM     11  C   UNL     1       3.967   6.844  17.457  0.00  0.00    +0.000 C 
ATOM     12  C   UNL     1       2.879   7.755  18.120  0.00  0.00    +0.000 A 
ATOM     13  C   UNL     1       2.581   8.963  17.450  0.00  0.00    +0.000 A 
ATOM     14  C   UNL     1       1.672   9.893  17.968  0.00  0.00    +0.000 A 
ATOM     15  C   UNL     1       1.067   9.699  19.214  0.00  0.00    +0.000 A 
ATOM     16  C   UNL     1       1.309   8.518  19.933  0.00  0.00    +0.000 A 
ATOM     17  C   UNL     1       2.190   7.456  19.353  0.00  0.00    +0.000 A 
ENDROOT
BRANCH   1  18
ATOM     18  C   UNL     1       6.660   4.765  17.395  0.00  0.00    +0.000 C 
BRANCH  18  20
ATOM     19  C   UNL     1       6.187   4.126  14.820  0.00  0.00    +0.000 C 
ATOM     20  C   UNL     1       7.121   4.757  15.859  0.00  0.00    +0.000 C 
ENDBRANCH  18  20
ENDBRANCH   1  18
BRANCH  16  21
ATOM     21  O   UNL     1       0.694   8.576  21.376  0.00  0.00    +0.000 OA
BRANCH  21  22
ATOM     22  C   UNL     1       0.659   9.625  22.502  0.00  0.00    +0.000 C 
ATOM     23  O   UNL     1       0.809   9.253  23.673  0.00  0.00    +0.000 OA
ATOM     24  N   UNL     1       0.431  11.059  22.282  0.00  0.00    +0.000 N 
ATOM     25  H   UNL     1       0.453  11.599  23.146  0.00  0.00    +0.000 HD
BRANCH  24  26
ATOM     26  C   UNL     1      -0.015  11.769  21.114  0.00  0.00    +0.000 A 
ATOM     27  C   UNL     1      -1.338  11.505  20.816  0.00  0.00    +0.000 A 
ATOM     28  C   UNL     1      -1.868  11.934  19.637  0.00  0.00    +0.000 A 
ATOM     29  C   UNL     1      -1.561  13.247  19.405  0.00  0.00    +0.000 A 
ATOM     30  C   UNL     1      -0.237  13.643  19.541  0.00  0.00    +0.000 A 
ATOM     31  C   UNL     1       0.030  14.833  18.832  0.00  0.00    +0.000 A 
ATOM     32  C   UNL     1       1.318  15.225  18.575  0.00  0.00    +0.000 A 
ATOM     33  C   UNL     1       2.342  14.424  19.080  0.00  0.00    +0.000 A 
ATOM     34  C   UNL     1       2.056  13.304  19.947  0.00  0.00    +0.000 A 
ATOM     35  C   UNL     1       0.690  12.836  20.261  0.00  0.00    +0.000 A 
ENDBRANCH  24  26
ENDBRANCH  21  22
ENDBRANCH  16  21
TORSDOF 5
ENDMDL
MODEL 8
REMARK VINA RESULT:      -8.3      2.805      9.746
REMARK  Name = 
REMARK  6 active torsions:
REMARK  status: ('A' for Active; 'I' for Inactive)
REMARK    1  A    between atoms: C_1  and  C_2
REMARK    2  A    between atoms: C_2  and  C_3
REMARK    3  A    between atoms: C_3  and  N_4
REMARK    4  A    between atoms: C_19  and  O_20
REMARK    5  A    between atoms: O_20  and  C_21
REMARK    6  A    between atoms: N_23  and  C_24
REMARK                            x       y       z     vdW  Elec       q    Type
REMARK                         _______ _______ _______ _____ _____    ______ ____
ROOT
ATOM      1  N   UNL     1       1.871   5.439  20.086  0.00  0.00    +0.000 NA
ATOM      2  C   UNL     1       2.278   5.389  18.675  0.00  0.00    +0.000 C 
ATOM      3  C   UNL     1       3.388   6.390  18.440  0.00  0.00    +0.000 C 
ATOM      4  C   UNL     1       2.721   7.732  18.458  0.00  0.00    +0.000 A 
ATOM      5  C   UNL     1       3.028   8.654  17.471  0.00  0.00    +0.000 A 
ATOM      6  C   UNL     1       2.370   9.870  17.464  0.00  0.00    +0.000 A 
ATOM      7  C   UNL     1       1.419  10.172  18.448  0.00  0.00    +0.000 A 
ATOM      8  C   UNL     1       1.084   9.284  19.482  0.00  0.00    +0.000 A 
ATOM      9  C   UNL     1       1.750   8.005  19.464  0.00  0.00    +0.000 A 
ATOM     10  C   UNL     1       1.646   6.908  20.568  0.00  0.00    +0.000 C 
ATOM     11  C   UNL     1       0.713   7.381  21.726  0.00  0.00    +0.000 C 
ATOM     12  C   UNL     1       0.236   8.873  21.759  0.00  0.00    +0.000 A 
ATOM     13  C   UNL     1      -0.241   9.350  23.001  0.00  0.00    +0.000 A 
ATOM     14  C   UNL     1      -0.752  10.646  23.149  0.00  0.00    +0.000 A 
ATOM     15  C   UNL     1      -0.879  11.506  22.054  0.00  0.00    +0.000 A 
ATOM     16  C   UNL     1      -0.418  11.102  20.791  0.00  0.00    +0.000 A 
ATOM     17  C   UNL     1       0.234   9.765  20.624  0.00  0.00    +0.000 A 
ENDROOT
BRANCH   1  18
ATOM     18  C   UNL     1       1.053   4.257  20.423  0.00  0.00    +0.000 C 
BRANCH  18  20
ATOM     19  C   UNL     1       2.931   2.496  21.218  0.00  0.00    +0.000 C 
ATOM     20  C   UNL     1       1.632   3.249  21.527  0.00  0.00    +0.000 C 
ENDBRANCH  18  20
ENDBRANCH   1  18
BRANCH  16  21
ATOM     21  O   UNL     1      -0.820  12.124  19.669  0.00  0.00    +0.000 OA
BRANCH  21  22
ATOM     22  C   UNL     1      -1.237  13.606  19.646  0.00  0.00    +0.000 C 
ATOM     23  O   UNL     1      -0.409  14.457  19.298  0.00  0.00    +0.000 OA
ATOM     24  N   UNL     1      -2.566  14.091  20.039  0.00  0.00    +0.000 N 
ATOM     25  H   UNL     1      -2.660  15.101  19.948  0.00  0.00    +0.000 HD
BRANCH  24  26
ATOM     26  C   UNL     1      -3.647  13.422  20.710  0.00  0.00    +0.000 A 
ATOM     27  C   UNL     1      -3.711  13.748  22.051  0.00  0.00    +0.000 A 
ATOM     28  C   UNL     1      -4.545  13.060  22.879  0.00  0.00    +0.000 A 
ATOM     29  C   UNL     1      -5.797  12.946  22.339  0.00  0.00    +0.000 A 
ATOM     30  C   UNL     1      -5.904  12.504  21.027  0.00  0.00    +0.000 A 
ATOM     31  C   UNL     1      -7.184  11.977  20.755  0.00  0.00    +0.000 A 
ATOM     32  C   UNL     1      -7.407  11.212  19.640  0.00  0.00    +0.000 A 
ATOM     33  C   UNL     1      -6.332  11.018  18.772  0.00  0.00    +0.000 A 
ATOM     34  C   UNL     1      -5.076  11.703  18.975  0.00  0.00    +0.000 A 
ATOM     35  C   UNL     1      -4.778  12.541  20.155  0.00  0.00    +0.000 A 
ENDBRANCH  24  26
ENDBRANCH  21  22
ENDBRANCH  16  21
TORSDOF 5
ENDMDL
MODEL 9
REMARK VINA RESULT:      -8.3      2.863      9.482
REMARK  Name = 
REMARK  6 active torsions:
REMARK  status: ('A' for Active; 'I' for Inactive)
REMARK    1  A    between atoms: C_1  and  C_2
REMARK    2  A    between atoms: C_2  and  C_3
REMARK    3  A    between atoms: C_3  and  N_4
REMARK    4  A    between atoms: C_19  and  O_20
REMARK    5  A    between atoms: O_20  and  C_21
REMARK    6  A    between atoms: N_23  and  C_24
REMARK                            x       y       z     vdW  Elec       q    Type
REMARK                         _______ _______ _______ _____ _____    ______ ____
ROOT
ATOM      1  N   UNL     1       1.830   5.604  20.173  0.00  0.00    +0.000 NA
ATOM      2  C   UNL     1       2.228   5.566  18.759  0.00  0.00    +0.000 C 
ATOM      3  C   UNL     1       3.280   6.623  18.507  0.00  0.00    +0.000 C 
ATOM      4  C   UNL     1       2.541   7.928  18.522  0.00  0.00    +0.000 A 
ATOM      5  C   UNL     1       2.789   8.858  17.527  0.00  0.00    +0.000 A 
ATOM      6  C   UNL     1       2.067  10.037  17.518  0.00  0.00    +0.000 A 
ATOM      7  C   UNL     1       1.110  10.294  18.508  0.00  0.00    +0.000 A 
ATOM      8  C   UNL     1       0.832   9.397  19.551  0.00  0.00    +0.000 A 
ATOM      9  C   UNL     1       1.566   8.155  19.535  0.00  0.00    +0.000 A 
ATOM     10  C   UNL     1       1.531   7.062  20.647  0.00  0.00    +0.000 C 
ATOM     11  C   UNL     1       0.584   7.492  21.811  0.00  0.00    +0.000 C 
ATOM     12  C   UNL     1       0.027   8.956  21.839  0.00  0.00    +0.000 A 
ATOM     13  C   UNL     1      -0.464   9.415  23.082  0.00  0.00    +0.000 A 
ATOM     14  C   UNL     1      -1.043  10.682  23.226  0.00  0.00    +0.000 A 
ATOM     15  C   UNL     1      -1.225  11.527  22.127  0.00  0.00    +0.000 A 
ATOM     16  C   UNL     1      -0.754  11.140  20.862  0.00  0.00    +0.000 A 
ATOM     17  C   UNL     1      -0.032   9.839  20.698  0.00  0.00    +0.000 A 
ENDROOT
BRANCH   1  18
ATOM     18  C   UNL     1       1.080   4.381  20.524  0.00  0.00    +0.000 C 
BRANCH  18  20
ATOM     19  C   UNL     1       0.927   2.224  18.917  0.00  0.00    +0.000 C 
ATOM     20  C   UNL     1       1.676   2.981  20.021  0.00  0.00    +0.000 C 
ENDBRANCH  18  20
ENDBRANCH   1  18
BRANCH  16  21
ATOM     21  O   UNL     1      -1.221  12.131  19.738  0.00  0.00    +0.000 OA
BRANCH  21  22
ATOM     22  C   UNL     1      -2.121  12.020  18.494  0.00  0.00    +0.000 C 
ATOM     23  O   UNL     1      -1.594  11.902  17.381  0.00  0.00    +0.000 OA
ATOM     24  N   UNL     1      -3.588  12.069  18.536  0.00  0.00    +0.000 N 
ATOM     25  H   UNL     1      -4.012  11.968  17.615  0.00  0.00    +0.000 HD
BRANCH  24  26
ATOM     26  C   UNL     1      -4.484  12.437  19.598  0.00  0.00    +0.000 A 
ATOM     27  C   UNL     1      -5.722  11.835  19.470  0.00  0.00    +0.000 A 
ATOM     28  C   UNL     1      -6.752  12.222  20.272  0.00  0.00    +0.000 A 
ATOM     29  C   UNL     1      -6.365  12.281  21.582  0.00  0.00    +0.000 A 
ATOM     30  C   UNL     1      -5.196  12.968  21.888  0.00  0.00    +0.000 A 
ATOM     31  C   UNL     1      -5.163  13.368  23.241  0.00  0.00    +0.000 A 
ATOM     32  C   UNL     1      -4.267  14.310  23.673  0.00  0.00    +0.000 A 
ATOM     33  C   UNL     1      -3.370  14.818  22.734  0.00  0.00    +0.000 A 
ATOM     34  C   UNL     1      -3.303  14.276  21.395  0.00  0.00    +0.000 A 
ATOM     35  C   UNL     1      -4.240  13.259  20.874  0.00  0.00    +0.000 A 
ENDBRANCH  24  26
ENDBRANCH  21  22
ENDBRANCH  16  21
TORSDOF 5
ENDMDL
