MODEL 1
REMARK VINA RESULT:      -7.8      0.000      0.000
REMARK  Name = 
REMARK  5 active torsions:
REMARK  status: ('A' for Active; 'I' for Inactive)
REMARK    1  A    between atoms: C_1  and  O_2
REMARK    2  A    between atoms: O_2  and  C_3
REMARK    3  A    between atoms: C_7  and  S_8
REMARK    4  A    between atoms: S_8  and  C_11
REMARK    5  A    between atoms: C_12  and  C_13
REMARK                            x       y       z     vdW  Elec       q    Type
REMARK                         _______ _______ _______ _____ _____    ______ ____
ROOT
ATOM      1  S   UNL     1       6.841   5.099  16.276  0.00  0.00    +0.000 S 
ATOM      2  O   UNL     1       7.911   4.350  16.910  0.00  0.00    +0.000 OA
ATOM      3  O   UNL     1       6.790   6.546  16.378  0.00  0.00    +0.000 OA
ENDROOT
BRANCH   1   8
ATOM      4  C   UNL     1       6.084   3.497  12.631  0.00  0.00    +0.000 A 
ATOM      5  C   UNL     1       6.980   4.198  11.817  0.00  0.00    +0.000 A 
ATOM      6  C   UNL     1       7.829   5.169  12.352  0.00  0.00    +0.000 A 
ATOM      7  C   UNL     1       7.795   5.442  13.717  0.00  0.00    +0.000 A 
ATOM      8  C   UNL     1       6.905   4.738  14.533  0.00  0.00    +0.000 A 
ATOM      9  C   UNL     1       6.038   3.774  13.997  0.00  0.00    +0.000 A 
BRANCH   4  11
ATOM     10  C   UNL     1       6.005   1.523  11.304  0.00  0.00    +0.000 C 
ATOM     11  O   UNL     1       5.320   2.576  11.970  0.00  0.00    +0.000 OA
ENDBRANCH   4  11
ENDBRANCH   1   8
BRANCH   1  12
ATOM     12  C   UNL     1       5.326   4.448  16.793  0.00  0.00    +0.000 C 
ATOM     13  C   UNL     1       4.856   4.684  18.028  0.00  0.00    +0.000 C 
BRANCH  13  14
ATOM     14  C   UNL     1       3.557   4.163  18.474  0.00  0.00    +0.000 A 
ATOM     15  C   UNL     1       2.460   4.146  17.617  0.00  0.00    +0.000 A 
ATOM     16  C   UNL     1       1.246   3.648  18.089  0.00  0.00    +0.000 A 
ATOM     17  C   UNL     1       1.163   3.176  19.395  0.00  0.00    +0.000 A 
ATOM     18  C   UNL     1       2.305   3.229  20.168  0.00  0.00    +0.000 A 
ATOM     19 CL   UNL     1       2.305   2.665  21.787  0.00  0.00    +0.000 Cl
ATOM     20  N   UNL     1       3.491   3.712  19.747  0.00  0.00    +0.000 NA
ENDBRANCH  13  14
ENDBRANCH   1  12
TORSDOF 4
ENDMDL
MODEL 2
REMARK VINA RESULT:      -7.8      1.110      1.117
REMARK  Name = 
REMARK  5 active torsions:
REMARK  status: ('A' for Active; 'I' for Inactive)
REMARK    1  A    between atoms: C_1  and  O_2
REMARK    2  A    between atoms: O_2  and  C_3
REMARK    3  A    between atoms: C_7  and  S_8
REMARK    4  A    between atoms: S_8  and  C_11
REMARK    5  A    between atoms: C_12  and  C_13
REMARK                            x       y       z     vdW  Elec       q    Type
REMARK                         _______ _______ _______ _____ _____    ______ ____
ROOT
ATOM      1  S   UNL     1       7.093   5.179  16.290  0.00  0.00    +0.000 S 
ATOM      2  O   UNL     1       7.958   4.198  16.920  0.00  0.00    +0.000 OA
ATOM      3  O   UNL     1       7.392   6.596  16.381  0.00  0.00    +0.000 OA
ENDROOT
BRANCH   1   8
ATOM      4  C   UNL     1       6.101   3.554  12.712  0.00  0.00    +0.000 A 
ATOM      5  C   UNL     1       6.951   4.240  11.839  0.00  0.00    +0.000 A 
ATOM      6  C   UNL     1       7.839   5.209  12.313  0.00  0.00    +0.000 A 
ATOM      7  C   UNL     1       7.890   5.493  13.674  0.00  0.00    +0.000 A 
ATOM      8  C   UNL     1       7.046   4.803  14.549  0.00  0.00    +0.000 A 
ATOM      9  C   UNL     1       6.141   3.842  14.076  0.00  0.00    +0.000 A 
BRANCH   4  11
ATOM     10  C   UNL     1       4.262   3.132  11.261  0.00  0.00    +0.000 C 
ATOM     11  O   UNL     1       5.291   2.634  12.107  0.00  0.00    +0.000 OA
ENDBRANCH   4  11
ENDBRANCH   1   8
BRANCH   1  12
ATOM     12  C   UNL     1       5.472   4.914  16.829  0.00  0.00    +0.000 C 
ATOM     13  C   UNL     1       5.187   3.953  17.721  0.00  0.00    +0.000 C 
BRANCH  13  14
ATOM     14  C   UNL     1       3.820   3.733  18.212  0.00  0.00    +0.000 A 
ATOM     15  C   UNL     1       3.057   2.663  17.749  0.00  0.00    +0.000 A 
ATOM     16  C   UNL     1       1.763   2.500  18.240  0.00  0.00    +0.000 A 
ATOM     17  C   UNL     1       1.270   3.400  19.179  0.00  0.00    +0.000 A 
ATOM     18  C   UNL     1       2.101   4.425  19.581  0.00  0.00    +0.000 A 
ATOM     19 CL   UNL     1       1.587   5.580  20.739  0.00  0.00    +0.000 Cl
ATOM     20  N   UNL     1       3.353   4.618  19.120  0.00  0.00    +0.000 NA
ENDBRANCH  13  14
ENDBRANCH   1  12
TORSDOF 4
ENDMDL
MODEL 3
REMARK VINA RESULT:      -7.4      1.279      1.422
REMARK  Name = 
REMARK  5 active torsions:
REMARK  status: ('A' for Active; 'I' for Inactive)
REMARK    1  A    between atoms: C_1  and  O_2
REMARK    2  A    between atoms: O_2  and  C_3
REMARK    3  A    between atoms: C_7  and  S_8
REMARK    4  A    between atoms: S_8  and  C_11
REMARK    5  A    between atoms: C_12  and  C_13
REMARK                            x       y       z     vdW  Elec       q    Type
REMARK                         _______ _______ _______ _____ _____    ______ ____
ROOT
ATOM      1  S   UNL     1       7.181   5.230  16.474  0.00  0.00    +0.000 S 
ATOM      2  O   UNL     1       7.989   4.195  17.093  0.00  0.00    +0.000 OA
ATOM      3  O   UNL     1       7.593   6.620  16.527  0.00  0.00    +0.000 OA
ENDROOT
BRANCH   1   8
ATOM      4  C   UNL     1       5.968   3.599  12.967  0.00  0.00    +0.000 A 
ATOM      5  C   UNL     1       6.813   4.230  12.049  0.00  0.00    +0.000 A 
ATOM      6  C   UNL     1       7.764   5.163  12.470  0.00  0.00    +0.000 A 
ATOM      7  C   UNL     1       7.884   5.465  13.823  0.00  0.00    +0.000 A 
ATOM      8  C   UNL     1       7.046   4.830  14.743  0.00  0.00    +0.000 A 
ATOM      9  C   UNL     1       6.078   3.906  14.324  0.00  0.00    +0.000 A 
BRANCH   4  11
ATOM     10  C   UNL     1       4.296   3.173  11.328  0.00  0.00    +0.000 C 
ATOM     11  O   UNL     1       5.091   2.709  12.412  0.00  0.00    +0.000 OA
ENDBRANCH   4  11
ENDBRANCH   1   8
BRANCH   1  12
ATOM     12  C   UNL     1       5.565   5.103  17.070  0.00  0.00    +0.000 C 
ATOM     13  C   UNL     1       5.321   4.748  18.342  0.00  0.00    +0.000 C 
BRANCH  13  14
ATOM     14  C   UNL     1       3.955   4.663  18.873  0.00  0.00    +0.000 A 
ATOM     15  C   UNL     1       3.411   5.705  19.622  0.00  0.00    +0.000 A 
ATOM     16  C   UNL     1       2.112   5.575  20.110  0.00  0.00    +0.000 A 
ATOM     17  C   UNL     1       1.392   4.417  19.835  0.00  0.00    +0.000 A 
ATOM     18  C   UNL     1       2.012   3.441  19.081  0.00  0.00    +0.000 A 
ATOM     19 CL   UNL     1       1.203   1.984  18.684  0.00  0.00    +0.000 Cl
ATOM     20  N   UNL     1       3.268   3.531  18.602  0.00  0.00    +0.000 NA
ENDBRANCH  13  14
ENDBRANCH   1  12
TORSDOF 4
ENDMDL
MODEL 4
REMARK VINA RESULT:      -7.3      2.896      4.811
REMARK  Name = 
REMARK  5 active torsions:
REMARK  status: ('A' for Active; 'I' for Inactive)
REMARK    1  A    between atoms: C_1  and  O_2
REMARK    2  A    between atoms: O_2  and  C_3
REMARK    3  A    between atoms: C_7  and  S_8
REMARK    4  A    between atoms: S_8  and  C_11
REMARK    5  A    between atoms: C_12  and  C_13
REMARK                            x       y       z     vdW  Elec       q    Type
REMARK                         _______ _______ _______ _____ _____    ______ ____
ROOT
ATOM      1  S   UNL     1       5.932   5.131  15.809  0.00  0.00    +0.000 S 
ATOM      2  O   UNL     1       5.269   6.152  15.018  0.00  0.00    +0.000 OA
ATOM      3  O   UNL     1       6.833   4.181  15.185  0.00  0.00    +0.000 OA
ENDROOT
BRANCH   1   8
ATOM      4  C   UNL     1       7.895   7.998  17.897  0.00  0.00    +0.000 A 
ATOM      5  C   UNL     1       8.366   7.279  19.000  0.00  0.00    +0.000 A 
ATOM      6  C   UNL     1       8.098   5.914  19.136  0.00  0.00    +0.000 A 
ATOM      7  C   UNL     1       7.361   5.253  18.159  0.00  0.00    +0.000 A 
ATOM      8  C   UNL     1       6.895   5.969  17.052  0.00  0.00    +0.000 A 
ATOM      9  C   UNL     1       7.146   7.342  16.919  0.00  0.00    +0.000 A 
BRANCH   4  11
ATOM     10  C   UNL     1       9.037   9.785  18.976  0.00  0.00    +0.000 C 
ATOM     11  O   UNL     1       8.237   9.321  17.896  0.00  0.00    +0.000 OA
ENDBRANCH   4  11
ENDBRANCH   1   8
BRANCH   1  12
ATOM     12  C   UNL     1       4.738   4.263  16.706  0.00  0.00    +0.000 C 
ATOM     13  C   UNL     1       3.867   4.903  17.501  0.00  0.00    +0.000 C 
BRANCH  13  14
ATOM     14  C   UNL     1       2.827   4.184  18.249  0.00  0.00    +0.000 A 
ATOM     15  C   UNL     1       1.570   3.959  17.691  0.00  0.00    +0.000 A 
ATOM     16  C   UNL     1       0.614   3.277  18.442  0.00  0.00    +0.000 A 
ATOM     17  C   UNL     1       0.938   2.835  19.720  0.00  0.00    +0.000 A 
ATOM     18  C   UNL     1       2.210   3.100  20.186  0.00  0.00    +0.000 A 
ATOM     19 CL   UNL     1       2.706   2.589  21.745  0.00  0.00    +0.000 Cl
ATOM     20  N   UNL     1       3.155   3.764  19.491  0.00  0.00    +0.000 NA
ENDBRANCH  13  14
ENDBRANCH   1  12
TORSDOF 4
ENDMDL
MODEL 5
REMARK VINA RESULT:      -7.2      4.071      7.505
REMARK  Name = 
REMARK  5 active torsions:
REMARK  status: ('A' for Active; 'I' for Inactive)
REMARK    1  A    between atoms: C_1  and  O_2
REMARK    2  A    between atoms: O_2  and  C_3
REMARK    3  A    between atoms: C_7  and  S_8
REMARK    4  A    between atoms: S_8  and  C_11
REMARK    5  A    between atoms: C_12  and  C_13
REMARK                            x       y       z     vdW  Elec       q    Type
REMARK                         _______ _______ _______ _____ _____    ______ ____
ROOT
ATOM      1  S   UNL     1       4.610   4.118  18.074  0.00  0.00    +0.000 S 
ATOM      2  O   UNL     1       5.847   4.199  18.829  0.00  0.00    +0.000 OA
ATOM      3  O   UNL     1       3.675   3.033  18.299  0.00  0.00    +0.000 OA
ENDROOT
BRANCH   1   8
ATOM      4  C   UNL     1       2.237   6.905  19.814  0.00  0.00    +0.000 A 
ATOM      5  C   UNL     1       2.309   7.959  18.896  0.00  0.00    +0.000 A 
ATOM      6  C   UNL     1       3.078   7.849  17.735  0.00  0.00    +0.000 A 
ATOM      7  C   UNL     1       3.777   6.673  17.477  0.00  0.00    +0.000 A 
ATOM      8  C   UNL     1       3.700   5.617  18.389  0.00  0.00    +0.000 A 
ATOM      9  C   UNL     1       2.944   5.729  19.565  0.00  0.00    +0.000 A 
BRANCH   4  11
ATOM     10  C   UNL     1       0.993   8.491  21.081  0.00  0.00    +0.000 C 
ATOM     11  O   UNL     1       1.445   7.154  20.900  0.00  0.00    +0.000 OA
ENDBRANCH   4  11
ENDBRANCH   1   8
BRANCH   1  12
ATOM     12  C   UNL     1       4.985   4.193  16.389  0.00  0.00    +0.000 C 
ATOM     13  C   UNL     1       6.257   4.231  15.962  0.00  0.00    +0.000 C 
BRANCH  13  14
ATOM     14  C   UNL     1       6.595   4.265  14.533  0.00  0.00    +0.000 A 
ATOM     15  C   UNL     1       7.519   5.181  14.037  0.00  0.00    +0.000 A 
ATOM     16  C   UNL     1       7.801   5.178  12.672  0.00  0.00    +0.000 A 
ATOM     17  C   UNL     1       7.161   4.262  11.844  0.00  0.00    +0.000 A 
ATOM     18  C   UNL     1       6.264   3.390  12.427  0.00  0.00    +0.000 A 
ATOM     19 CL   UNL     1       5.431   2.220  11.492  0.00  0.00    +0.000 Cl
ATOM     20  N   UNL     1       5.961   3.372  13.741  0.00  0.00    +0.000 NA
ENDBRANCH  13  14
ENDBRANCH   1  12
TORSDOF 4
ENDMDL
MODEL 6
REMARK VINA RESULT:      -7.1      3.993      5.034
REMARK  Name = 
REMARK  5 active torsions:
REMARK  status: ('A' for Active; 'I' for Inactive)
REMARK    1  A    between atoms: C_1  and  O_2
REMARK    2  A    between atoms: O_2  and  C_3
REMARK    3  A    between atoms: C_7  and  S_8
REMARK    4  A    between atoms: S_8  and  C_11
REMARK    5  A    between atoms: C_12  and  C_13
REMARK                            x       y       z     vdW  Elec       q    Type
REMARK                         _______ _______ _______ _____ _____    ______ ____
ROOT
ATOM      1  S   UNL     1       3.299   3.864  18.685  0.00  0.00    +0.000 S 
ATOM      2  O   UNL     1       2.596   3.342  17.527  0.00  0.00    +0.000 OA
ATOM      3  O   UNL     1       3.488   3.045  19.867  0.00  0.00    +0.000 OA
ENDROOT
BRANCH   1   8
ATOM      4  C   UNL     1       6.540   4.600  16.365  0.00  0.00    +0.000 A 
ATOM      5  C   UNL     1       7.465   5.071  17.303  0.00  0.00    +0.000 A 
ATOM      6  C   UNL     1       7.126   5.177  18.655  0.00  0.00    +0.000 A 
ATOM      7  C   UNL     1       5.856   4.802  19.081  0.00  0.00    +0.000 A 
ATOM      8  C   UNL     1       4.934   4.325  18.146  0.00  0.00    +0.000 A 
ATOM      9  C   UNL     1       5.262   4.232  16.786  0.00  0.00    +0.000 A 
BRANCH   4  11
ATOM     10  C   UNL     1       6.196   3.895  14.118  0.00  0.00    +0.000 C 
ATOM     11  O   UNL     1       7.012   4.546  15.083  0.00  0.00    +0.000 OA
ENDBRANCH   4  11
ENDBRANCH   1   8
BRANCH   1  12
ATOM     12  C   UNL     1       2.565   5.357  19.151  0.00  0.00    +0.000 C 
ATOM     13  C   UNL     1       2.753   6.476  18.432  0.00  0.00    +0.000 C 
BRANCH  13  14
ATOM     14  C   UNL     1       2.114   7.747  18.797  0.00  0.00    +0.000 A 
ATOM     15  C   UNL     1       1.908   8.744  17.847  0.00  0.00    +0.000 A 
ATOM     16  C   UNL     1       1.303   9.935  18.243  0.00  0.00    +0.000 A 
ATOM     17  C   UNL     1       0.917  10.097  19.569  0.00  0.00    +0.000 A 
ATOM     18  C   UNL     1       1.158   9.052  20.438  0.00  0.00    +0.000 A 
ATOM     19 CL   UNL     1       0.712   9.153  22.090  0.00  0.00    +0.000 Cl
ATOM     20  N   UNL     1       1.749   7.891  20.091  0.00  0.00    +0.000 NA
ENDBRANCH  13  14
ENDBRANCH   1  12
TORSDOF 4
ENDMDL
MODEL 7
REMARK VINA RESULT:      -7.1      3.532      7.204
REMARK  Name = 
REMARK  5 active torsions:
REMARK  status: ('A' for Active; 'I' for Inactive)
REMARK    1  A    between atoms: C_1  and  O_2
REMARK    2  A    between atoms: O_2  and  C_3
REMARK    3  A    between atoms: C_7  and  S_8
REMARK    4  A    between atoms: S_8  and  C_11
REMARK    5  A    between atoms: C_12  and  C_13
REMARK                            x       y       z     vdW  Elec       q    Type
REMARK                         _______ _______ _______ _____ _____    ______ ____
ROOT
ATOM      1  S   UNL     1       4.683   5.965  17.693  0.00  0.00    +0.000 S 
ATOM      2  O   UNL     1       3.730   7.060  17.743  0.00  0.00    +0.000 OA
ATOM      3  O   UNL     1       5.881   5.989  18.511  0.00  0.00    +0.000 OA
ENDROOT
BRANCH   1   8
ATOM      4  C   UNL     1       3.010   2.986  19.874  0.00  0.00    +0.000 A 
ATOM      5  C   UNL     1       2.423   2.196  18.880  0.00  0.00    +0.000 A 
ATOM      6  C   UNL     1       2.519   2.549  17.531  0.00  0.00    +0.000 A 
ATOM      7  C   UNL     1       3.216   3.696  17.165  0.00  0.00    +0.000 A 
ATOM      8  C   UNL     1       3.809   4.483  18.156  0.00  0.00    +0.000 A 
ATOM      9  C   UNL     1       3.700   4.143  19.512  0.00  0.00    +0.000 A 
BRANCH   4  11
ATOM     10  C   UNL     1       1.532   2.615  21.703  0.00  0.00    +0.000 C 
ATOM     11  O   UNL     1       2.837   2.515  21.146  0.00  0.00    +0.000 OA
ENDBRANCH   4  11
ENDBRANCH   1   8
BRANCH   1  12
ATOM     12  C   UNL     1       5.135   5.698  16.047  0.00  0.00    +0.000 C 
ATOM     13  C   UNL     1       6.227   4.981  15.736  0.00  0.00    +0.000 C 
BRANCH  13  14
ATOM     14  C   UNL     1       6.610   4.720  14.342  0.00  0.00    +0.000 A 
ATOM     15  C   UNL     1       7.628   5.448  13.731  0.00  0.00    +0.000 A 
ATOM     16  C   UNL     1       7.951   5.167  12.404  0.00  0.00    +0.000 A 
ATOM     17  C   UNL     1       7.257   4.169  11.729  0.00  0.00    +0.000 A 
ATOM     18  C   UNL     1       6.267   3.498  12.419  0.00  0.00    +0.000 A 
ATOM     19 CL   UNL     1       5.362   2.247  11.675  0.00  0.00    +0.000 Cl
ATOM     20  N   UNL     1       5.924   3.750  13.698  0.00  0.00    +0.000 NA
ENDBRANCH  13  14
ENDBRANCH   1  12
TORSDOF 4
ENDMDL
MODEL 8
REMARK VINA RESULT:      -7.1      4.059      7.303
REMARK  Name = 
REMARK  5 active torsions:
REMARK  status: ('A' for Active; 'I' for Inactive)
REMARK    1  A    between atoms: C_1  and  O_2
REMARK    2  A    between atoms: O_2  and  C_3
REMARK    3  A    between atoms: C_7  and  S_8
REMARK    4  A    between atoms: S_8  and  C_11
REMARK    5  A    between atoms: C_12  and  C_13
REMARK                            x       y       z     vdW  Elec       q    Type
REMARK                         _______ _______ _______ _____ _____    ______ ____
ROOT
ATOM      1  S   UNL     1       4.499   3.781  18.468  0.00  0.00    +0.000 S 
ATOM      2  O   UNL     1       5.749   3.870  19.202  0.00  0.00    +0.000 OA
ATOM      3  O   UNL     1       3.582   2.681  18.700  0.00  0.00    +0.000 OA
ENDROOT
BRANCH   1   8
ATOM      4  C   UNL     1       2.837   7.463  18.142  0.00  0.00    +0.000 A 
ATOM      5  C   UNL     1       2.114   7.559  19.336  0.00  0.00    +0.000 A 
ATOM      6  C   UNL     1       2.113   6.513  20.262  0.00  0.00    +0.000 A 
ATOM      7  C   UNL     1       2.848   5.359  20.003  0.00  0.00    +0.000 A 
ATOM      8  C   UNL     1       3.576   5.264  18.814  0.00  0.00    +0.000 A 
ATOM      9  C   UNL     1       3.566   6.304  17.873  0.00  0.00    +0.000 A 
BRANCH   4  11
ATOM     10  C   UNL     1       1.892   9.615  17.767  0.00  0.00    +0.000 C 
ATOM     11  O   UNL     1       2.747   8.563  17.337  0.00  0.00    +0.000 OA
ENDBRANCH   4  11
ENDBRANCH   1   8
BRANCH   1  12
ATOM     12  C   UNL     1       4.843   3.875  16.777  0.00  0.00    +0.000 C 
ATOM     13  C   UNL     1       6.066   4.209  16.336  0.00  0.00    +0.000 C 
BRANCH  13  14
ATOM     14  C   UNL     1       6.383   4.266  14.903  0.00  0.00    +0.000 A 
ATOM     15  C   UNL     1       5.636   3.543  13.975  0.00  0.00    +0.000 A 
ATOM     16  C   UNL     1       5.981   3.624  12.627  0.00  0.00    +0.000 A 
ATOM     17  C   UNL     1       7.051   4.425  12.242  0.00  0.00    +0.000 A 
ATOM     18  C   UNL     1       7.728   5.107  13.232  0.00  0.00    +0.000 A 
ATOM     19 CL   UNL     1       9.055   6.125  12.856  0.00  0.00    +0.000 Cl
ATOM     20  N   UNL     1       7.428   5.044  14.545  0.00  0.00    +0.000 NA
ENDBRANCH  13  14
ENDBRANCH   1  12
TORSDOF 4
ENDMDL
MODEL 9
REMARK VINA RESULT:      -7.1      4.143      5.241
REMARK  Name = 
REMARK  5 active torsions:
REMARK  status: ('A' for Active; 'I' for Inactive)
REMARK    1  A    between atoms: C_1  and  O_2
REMARK    2  A    between atoms: O_2  and  C_3
REMARK    3  A    between atoms: C_7  and  S_8
REMARK    4  A    between atoms: S_8  and  C_11
REMARK    5  A    between atoms: C_12  and  C_13
REMARK                            x       y       z     vdW  Elec       q    Type
REMARK                         _______ _______ _______ _____ _____    ______ ____
ROOT
ATOM      1  S   UNL     1       3.449   4.355  18.062  0.00  0.00    +0.000 S 
ATOM      2  O   UNL     1       2.526   3.469  17.374  0.00  0.00    +0.000 OA
ATOM      3  O   UNL     1       4.013   3.983  19.346  0.00  0.00    +0.000 OA
ENDROOT
BRANCH   1   8
ATOM      4  C   UNL     1       6.837   5.847  16.412  0.00  0.00    +0.000 A 
ATOM      5  C   UNL     1       7.017   5.002  15.312  0.00  0.00    +0.000 A 
ATOM      6  C   UNL     1       6.121   3.964  15.048  0.00  0.00    +0.000 A 
ATOM      7  C   UNL     1       5.024   3.768  15.882  0.00  0.00    +0.000 A 
ATOM      8  C   UNL     1       4.839   4.615  16.978  0.00  0.00    +0.000 A 
ATOM      9  C   UNL     1       5.745   5.648  17.258  0.00  0.00    +0.000 A 
BRANCH   4  11
ATOM     10  C   UNL     1       7.615   7.762  17.591  0.00  0.00    +0.000 C 
ATOM     11  O   UNL     1       7.790   6.818  16.542  0.00  0.00    +0.000 OA
ENDBRANCH   4  11
ENDBRANCH   1   8
BRANCH   1  12
ATOM     12  C   UNL     1       2.718   5.914  18.203  0.00  0.00    +0.000 C 
ATOM     13  C   UNL     1       2.511   6.476  19.405  0.00  0.00    +0.000 C 
BRANCH  13  14
ATOM     14  C   UNL     1       1.918   7.813  19.542  0.00  0.00    +0.000 A 
ATOM     15  C   UNL     1       1.847   8.680  18.454  0.00  0.00    +0.000 A 
ATOM     16  C   UNL     1       1.281   9.941  18.636  0.00  0.00    +0.000 A 
ATOM     17  C   UNL     1       0.799  10.298  19.891  0.00  0.00    +0.000 A 
ATOM     18  C   UNL     1       0.908   9.371  20.907  0.00  0.00    +0.000 A 
ATOM     19 CL   UNL     1       0.335   9.715  22.485  0.00  0.00    +0.000 Cl
ATOM     20  N   UNL     1       1.457   8.147  20.768  0.00  0.00    +0.000 NA
ENDBRANCH  13  14
ENDBRANCH   1  12
TORSDOF 4
ENDMDL
