MODEL 1
REMARK VINA RESULT:      -9.4      0.000      0.000
REMARK  Name = 
REMARK  6 active torsions:
REMARK  status: ('A' for Active; 'I' for Inactive)
REMARK    1  A    between atoms: C_1  and  C_2
REMARK    2  A    between atoms: C_5  and  N_6
REMARK    3  A    between atoms: C_7  and  C_9
REMARK    4  A    between atoms: C_13  and  S_14
REMARK    5  A    between atoms: S_14  and  N_17
REMARK    6  A    between atoms: N_20  and  C_21
REMARK                            x       y       z     vdW  Elec       q    Type
REMARK                         _______ _______ _______ _____ _____    ______ ____
ROOT
ATOM      1  C   UNL     1       1.755   7.805  19.854  0.00  0.00    +0.000 A 
ATOM      2  C   UNL     1       2.386   8.309  18.692  0.00  0.00    +0.000 A 
ATOM      3  C   UNL     1       2.856   7.450  17.688  0.00  0.00    +0.000 A 
ATOM      4  C   UNL     1       2.679   6.071  17.820  0.00  0.00    +0.000 A 
ATOM      5  C   UNL     1       2.113   5.556  18.993  0.00  0.00    +0.000 A 
ATOM      6  C   UNL     1       1.668   6.428  20.008  0.00  0.00    +0.000 A 
ENDROOT
BRANCH   1   8
ATOM      7  N   UNL     1       0.120   9.661  20.586  0.00  0.00    +0.000 N 
ATOM      8  C   UNL     1       1.147   8.783  20.799  0.00  0.00    +0.000 C 
ATOM      9  O   UNL     1       1.646   8.849  21.930  0.00  0.00    +0.000 OA
ATOM     10  H   UNL     1       0.075  10.190  21.448  0.00  0.00    +0.000 HD
BRANCH   7  15
ATOM     11  C   UNL     1      -3.924  11.547  16.786  0.00  0.00    +0.000 C 
ATOM     12  C   UNL     1      -2.588  11.441  17.538  0.00  0.00    +0.000 C 
ATOM     13  C   UNL     1      -2.751  11.793  19.027  0.00  0.00    +0.000 C 
ATOM     14  C   UNL     1      -1.467  11.563  19.858  0.00  0.00    +0.000 C 
ATOM     15  C   UNL     1      -0.915  10.148  19.640  0.00  0.00    +0.000 C 
ATOM     16  C   UNL     1      -0.678   9.860  18.156  0.00  0.00    +0.000 C 
ATOM     17  C   UNL     1      -1.984  10.039  17.361  0.00  0.00    +0.000 C 
ENDBRANCH   7  15
ENDBRANCH   1   8
BRANCH   5  18
ATOM     18  S   UNL     1       1.589   3.842  19.087  0.00  0.00    +0.000 S 
ATOM     19  O   UNL     1       0.973   3.698  20.398  0.00  0.00    +0.000 OA
ATOM     20  O   UNL     1       0.830   3.567  17.889  0.00  0.00    +0.000 OA
BRANCH  18  21
ATOM     21  N   UNL     1       2.931   2.828  19.091  0.00  0.00    +0.000 NA
ATOM     22  C   UNL     1       3.559   2.413  17.814  0.00  0.00    +0.000 C 
ATOM     23  C   UNL     1       4.485   3.508  17.277  0.00  0.00    +0.000 C 
ATOM     24  N   UNL     1       5.422   4.013  18.307  0.00  0.00    +0.000 N 
ATOM     25  C   UNL     1       4.971   4.071  19.730  0.00  0.00    +0.000 C 
ATOM     26  C   UNL     1       3.970   2.985  20.128  0.00  0.00    +0.000 C 
BRANCH  24  27
ATOM     27  C   UNL     1       6.237   5.121  18.004  0.00  0.00    +0.000 A 
ATOM     28  C   UNL     1       6.100   5.936  16.870  0.00  0.00    +0.000 A 
ATOM     29  C   UNL     1       6.856   7.109  16.729  0.00  0.00    +0.000 A 
ATOM     30  C   UNL     1       7.777   7.461  17.710  0.00  0.00    +0.000 A 
ATOM     31  F   UNL     1       8.475   8.596  17.596  0.00  0.00    +0.000 F 
ATOM     32  C   UNL     1       7.971   6.646  18.815  0.00  0.00    +0.000 A 
ATOM     33  C   UNL     1       7.221   5.485  18.942  0.00  0.00    +0.000 A 
ENDBRANCH  24  27
ENDBRANCH  18  21
ENDBRANCH   5  18
TORSDOF 5
ENDMDL
MODEL 2
REMARK VINA RESULT:      -8.8      1.356      1.839
REMARK  Name = 
REMARK  6 active torsions:
REMARK  status: ('A' for Active; 'I' for Inactive)
REMARK    1  A    between atoms: C_1  and  C_2
REMARK    2  A    between atoms: C_5  and  N_6
REMARK    3  A    between atoms: C_7  and  C_9
REMARK    4  A    between atoms: C_13  and  S_14
REMARK    5  A    between atoms: S_14  and  N_17
REMARK    6  A    between atoms: N_20  and  C_21
REMARK                            x       y       z     vdW  Elec       q    Type
REMARK                         _______ _______ _______ _____ _____    ______ ____
ROOT
ATOM      1  C   UNL     1       1.749   7.802  19.956  0.00  0.00    +0.000 A 
ATOM      2  C   UNL     1       2.381   8.213  18.758  0.00  0.00    +0.000 A 
ATOM      3  C   UNL     1       2.834   7.277  17.816  0.00  0.00    +0.000 A 
ATOM      4  C   UNL     1       2.638   5.914  18.047  0.00  0.00    +0.000 A 
ATOM      5  C   UNL     1       2.071   5.492  19.257  0.00  0.00    +0.000 A 
ATOM      6  C   UNL     1       1.643   6.441  20.208  0.00  0.00    +0.000 A 
ENDROOT
BRANCH   1   8
ATOM      7  N   UNL     1       0.151   9.737  20.556  0.00  0.00    +0.000 N 
ATOM      8  C   UNL     1       1.160   8.853  20.831  0.00  0.00    +0.000 C 
ATOM      9  O   UNL     1       1.658   8.985  21.957  0.00  0.00    +0.000 OA
ATOM     10  H   UNL     1       0.116  10.323  21.380  0.00  0.00    +0.000 HD
BRANCH   7  15
ATOM     11  C   UNL     1      -3.841  11.453  16.623  0.00  0.00    +0.000 C 
ATOM     12  C   UNL     1      -2.527  11.405  17.421  0.00  0.00    +0.000 C 
ATOM     13  C   UNL     1      -2.758  11.743  18.905  0.00  0.00    +0.000 C 
ATOM     14  C   UNL     1      -1.494  11.567  19.779  0.00  0.00    +0.000 C 
ATOM     15  C   UNL     1      -0.871  10.180  19.576  0.00  0.00    +0.000 C 
ATOM     16  C   UNL     1      -0.570   9.910  18.100  0.00  0.00    +0.000 C 
ATOM     17  C   UNL     1      -1.855  10.033  17.261  0.00  0.00    +0.000 C 
ENDBRANCH   7  15
ENDBRANCH   1   8
BRANCH   5  18
ATOM     18  S   UNL     1       1.524   3.797  19.475  0.00  0.00    +0.000 S 
ATOM     19  O   UNL     1       0.836   3.775  20.757  0.00  0.00    +0.000 OA
ATOM     20  O   UNL     1       0.827   3.420  18.266  0.00  0.00    +0.000 OA
BRANCH  18  21
ATOM     21  N   UNL     1       2.851   2.779  19.642  0.00  0.00    +0.000 NA
ATOM     22  C   UNL     1       3.116   1.722  18.637  0.00  0.00    +0.000 C 
ATOM     23  C   UNL     1       3.813   2.300  17.403  0.00  0.00    +0.000 C 
ATOM     24  N   UNL     1       4.979   3.144  17.754  0.00  0.00    +0.000 N 
ATOM     25  C   UNL     1       4.940   3.947  19.014  0.00  0.00    +0.000 C 
ATOM     26  C   UNL     1       4.131   3.314  20.149  0.00  0.00    +0.000 C 
BRANCH  24  27
ATOM     27  C   UNL     1       5.635   3.861  16.735  0.00  0.00    +0.000 A 
ATOM     28  C   UNL     1       6.560   4.895  16.945  0.00  0.00    +0.000 A 
ATOM     29  C   UNL     1       7.280   5.447  15.874  0.00  0.00    +0.000 A 
ATOM     30  C   UNL     1       7.058   4.987  14.581  0.00  0.00    +0.000 A 
ATOM     31  F   UNL     1       7.766   5.487  13.563  0.00  0.00    +0.000 F 
ATOM     32  C   UNL     1       6.109   4.005  14.338  0.00  0.00    +0.000 A 
ATOM     33  C   UNL     1       5.399   3.469  15.404  0.00  0.00    +0.000 A 
ENDBRANCH  24  27
ENDBRANCH  18  21
ENDBRANCH   5  18
TORSDOF 5
ENDMDL
MODEL 3
REMARK VINA RESULT:      -8.7      2.833      3.667
REMARK  Name = 
REMARK  6 active torsions:
REMARK  status: ('A' for Active; 'I' for Inactive)
REMARK    1  A    between atoms: C_1  and  C_2
REMARK    2  A    between atoms: C_5  and  N_6
REMARK    3  A    between atoms: C_7  and  C_9
REMARK    4  A    between atoms: C_13  and  S_14
REMARK    5  A    between atoms: S_14  and  N_17
REMARK    6  A    between atoms: N_20  and  C_21
REMARK                            x       y       z     vdW  Elec       q    Type
REMARK                         _______ _______ _______ _____ _____    ______ ____
ROOT
ATOM      1  C   UNL     1       1.551   8.703  18.949  0.00  0.00    +0.000 A 
ATOM      2  C   UNL     1       1.106   8.678  20.292  0.00  0.00    +0.000 A 
ATOM      3  C   UNL     1       1.362   7.578  21.123  0.00  0.00    +0.000 A 
ATOM      4  C   UNL     1       2.090   6.493  20.630  0.00  0.00    +0.000 A 
ATOM      5  C   UNL     1       2.482   6.479  19.285  0.00  0.00    +0.000 A 
ATOM      6  C   UNL     1       2.197   7.579  18.451  0.00  0.00    +0.000 A 
ENDROOT
BRANCH   1   8
ATOM      7  N   UNL     1       0.223  10.632  17.866  0.00  0.00    +0.000 N 
ATOM      8  C   UNL     1       1.377   9.966  18.178  0.00  0.00    +0.000 C 
ATOM      9  O   UNL     1       2.403  10.484  17.719  0.00  0.00    +0.000 OA
ATOM     10  H   UNL     1       0.537  11.388  17.271  0.00  0.00    +0.000 HD
BRANCH   7  15
ATOM     11  C   UNL     1      -5.606  10.830  18.444  0.00  0.00    +0.000 C 
ATOM     12  C   UNL     1      -4.202  11.094  17.877  0.00  0.00    +0.000 C 
ATOM     13  C   UNL     1      -3.332  11.883  18.873  0.00  0.00    +0.000 C 
ATOM     14  C   UNL     1      -1.865  12.048  18.412  0.00  0.00    +0.000 C 
ATOM     15  C   UNL     1      -1.251  10.695  18.029  0.00  0.00    +0.000 C 
ATOM     16  C   UNL     1      -2.090   9.975  16.972  0.00  0.00    +0.000 C 
ATOM     17  C   UNL     1      -3.529   9.771  17.479  0.00  0.00    +0.000 C 
ENDBRANCH   7  15
ENDBRANCH   1   8
BRANCH   5  18
ATOM     18  S   UNL     1       3.666   5.271  18.684  0.00  0.00    +0.000 S 
ATOM     19  O   UNL     1       3.767   4.272  19.738  0.00  0.00    +0.000 OA
ATOM     20  O   UNL     1       3.243   4.891  17.356  0.00  0.00    +0.000 OA
BRANCH  18  21
ATOM     21  N   UNL     1       5.191   5.970  18.560  0.00  0.00    +0.000 NA
ATOM     22  C   UNL     1       6.409   5.132  18.662  0.00  0.00    +0.000 C 
ATOM     23  C   UNL     1       6.707   4.430  17.335  0.00  0.00    +0.000 C 
ATOM     24  N   UNL     1       6.676   5.362  16.183  0.00  0.00    +0.000 N 
ATOM     25  C   UNL     1       5.721   6.510  16.205  0.00  0.00    +0.000 C 
ATOM     26  C   UNL     1       5.422   7.067  17.598  0.00  0.00    +0.000 C 
BRANCH  24  27
ATOM     27  C   UNL     1       6.789   4.841  14.880  0.00  0.00    +0.000 A 
ATOM     28  C   UNL     1       5.970   3.836  14.341  0.00  0.00    +0.000 A 
ATOM     29  C   UNL     1       6.054   3.489  12.984  0.00  0.00    +0.000 A 
ATOM     30  C   UNL     1       6.977   4.126  12.162  0.00  0.00    +0.000 A 
ATOM     31  F   UNL     1       7.036   3.822  10.861  0.00  0.00    +0.000 F 
ATOM     32  C   UNL     1       7.835   5.083  12.680  0.00  0.00    +0.000 A 
ATOM     33  C   UNL     1       7.748   5.416  14.026  0.00  0.00    +0.000 A 
ENDBRANCH  24  27
ENDBRANCH  18  21
ENDBRANCH   5  18
TORSDOF 5
ENDMDL
MODEL 4
REMARK VINA RESULT:      -8.4      1.737      2.300
REMARK  Name = 
REMARK  6 active torsions:
REMARK  status: ('A' for Active; 'I' for Inactive)
REMARK    1  A    between atoms: C_1  and  C_2
REMARK    2  A    between atoms: C_5  and  N_6
REMARK    3  A    between atoms: C_7  and  C_9
REMARK    4  A    between atoms: C_13  and  S_14
REMARK    5  A    between atoms: S_14  and  N_17
REMARK    6  A    between atoms: N_20  and  C_21
REMARK                            x       y       z     vdW  Elec       q    Type
REMARK                         _______ _______ _______ _____ _____    ______ ____
ROOT
ATOM      1  C   UNL     1       1.612   7.704  20.114  0.00  0.00    +0.000 A 
ATOM      2  C   UNL     1       2.229   8.321  18.999  0.00  0.00    +0.000 A 
ATOM      3  C   UNL     1       2.715   7.563  17.924  0.00  0.00    +0.000 A 
ATOM      4  C   UNL     1       2.570   6.174  17.936  0.00  0.00    +0.000 A 
ATOM      5  C   UNL     1       2.019   5.547  19.061  0.00  0.00    +0.000 A 
ATOM      6  C   UNL     1       1.557   6.317  20.148  0.00  0.00    +0.000 A 
ENDROOT
BRANCH   1   8
ATOM      7  N   UNL     1       0.932   9.948  21.189  0.00  0.00    +0.000 N 
ATOM      8  C   UNL     1       0.984   8.581  21.141  0.00  0.00    +0.000 C 
ATOM      9  O   UNL     1       0.459   8.018  22.110  0.00  0.00    +0.000 OA
ATOM     10  H   UNL     1       0.492  10.139  22.081  0.00  0.00    +0.000 HD
BRANCH   7  15
ATOM     11  C   UNL     1       2.163  15.025  18.533  0.00  0.00    +0.000 C 
ATOM     12  C   UNL     1       1.350  13.834  19.065  0.00  0.00    +0.000 C 
ATOM     13  C   UNL     1       1.761  12.520  18.376  0.00  0.00    +0.000 C 
ATOM     14  C   UNL     1       1.076  11.270  18.977  0.00  0.00    +0.000 C 
ATOM     15  C   UNL     1       1.253  11.223  20.501  0.00  0.00    +0.000 C 
ATOM     16  C   UNL     1       0.753  12.507  21.165  0.00  0.00    +0.000 C 
ATOM     17  C   UNL     1       1.492  13.729  20.591  0.00  0.00    +0.000 C 
ENDBRANCH   7  15
ENDBRANCH   1   8
BRANCH   5  18
ATOM     18  S   UNL     1       1.535   3.819  19.006  0.00  0.00    +0.000 S 
ATOM     19  O   UNL     1       0.813   3.581  20.247  0.00  0.00    +0.000 OA
ATOM     20  O   UNL     1       0.889   3.603  17.732  0.00  0.00    +0.000 OA
BRANCH  18  21
ATOM     21  N   UNL     1       2.898   2.836  19.067  0.00  0.00    +0.000 NA
ATOM     22  C   UNL     1       3.568   2.408  17.816  0.00  0.00    +0.000 C 
ATOM     23  C   UNL     1       4.483   3.511  17.278  0.00  0.00    +0.000 C 
ATOM     24  N   UNL     1       5.382   4.059  18.320  0.00  0.00    +0.000 N 
ATOM     25  C   UNL     1       4.894   4.138  19.730  0.00  0.00    +0.000 C 
ATOM     26  C   UNL     1       3.906   3.038  20.127  0.00  0.00    +0.000 C 
BRANCH  24  27
ATOM     27  C   UNL     1       6.180   5.178  18.014  0.00  0.00    +0.000 A 
ATOM     28  C   UNL     1       5.965   6.050  16.936  0.00  0.00    +0.000 A 
ATOM     29  C   UNL     1       6.717   7.227  16.799  0.00  0.00    +0.000 A 
ATOM     30  C   UNL     1       7.712   7.524  17.725  0.00  0.00    +0.000 A 
ATOM     31  F   UNL     1       8.407   8.661  17.616  0.00  0.00    +0.000 F 
ATOM     32  C   UNL     1       7.983   6.652  18.768  0.00  0.00    +0.000 A 
ATOM     33  C   UNL     1       7.235   5.489  18.893  0.00  0.00    +0.000 A 
ENDBRANCH  24  27
ENDBRANCH  18  21
ENDBRANCH   5  18
TORSDOF 5
ENDMDL
MODEL 5
REMARK VINA RESULT:      -8.4      1.419      1.783
REMARK  Name = 
REMARK  6 active torsions:
REMARK  status: ('A' for Active; 'I' for Inactive)
REMARK    1  A    between atoms: C_1  and  C_2
REMARK    2  A    between atoms: C_5  and  N_6
REMARK    3  A    between atoms: C_7  and  C_9
REMARK    4  A    between atoms: C_13  and  S_14
REMARK    5  A    between atoms: S_14  and  N_17
REMARK    6  A    between atoms: N_20  and  C_21
REMARK                            x       y       z     vdW  Elec       q    Type
REMARK                         _______ _______ _______ _____ _____    ______ ____
ROOT
ATOM      1  C   UNL     1       1.747   7.946  20.119  0.00  0.00    +0.000 A 
ATOM      2  C   UNL     1       2.232   8.687  19.015  0.00  0.00    +0.000 A 
ATOM      3  C   UNL     1       2.628   8.051  17.829  0.00  0.00    +0.000 A 
ATOM      4  C   UNL     1       2.523   6.663  17.721  0.00  0.00    +0.000 A 
ATOM      5  C   UNL     1       2.104   5.913  18.827  0.00  0.00    +0.000 A 
ATOM      6  C   UNL     1       1.733   6.561  20.024  0.00  0.00    +0.000 A 
ENDROOT
BRANCH   1   8
ATOM      7  N   UNL     1       0.799  10.006  21.348  0.00  0.00    +0.000 N 
ATOM      8  C   UNL     1       1.202   8.700  21.282  0.00  0.00    +0.000 C 
ATOM      9  O   UNL     1       1.124   8.089  22.356  0.00  0.00    +0.000 OA
ATOM     10  H   UNL     1       0.576  10.138  22.327  0.00  0.00    +0.000 HD
BRANCH   7  15
ATOM     11  C   UNL     1      -0.158  14.953  18.355  0.00  0.00    +0.000 C 
ATOM     12  C   UNL     1       0.366  13.548  18.692  0.00  0.00    +0.000 C 
ATOM     13  C   UNL     1       1.338  13.582  19.885  0.00  0.00    +0.000 C 
ATOM     14  C   UNL     1       1.782  12.177  20.357  0.00  0.00    +0.000 C 
ATOM     15  C   UNL     1       0.570  11.269  20.603  0.00  0.00    +0.000 C 
ATOM     16  C   UNL     1      -0.330  11.185  19.369  0.00  0.00    +0.000 C 
ATOM     17  C   UNL     1      -0.805  12.589  18.956  0.00  0.00    +0.000 C 
ENDBRANCH   7  15
ENDBRANCH   1   8
BRANCH   5  18
ATOM     18  S   UNL     1       1.664   4.182  18.653  0.00  0.00    +0.000 S 
ATOM     19  O   UNL     1       0.839   3.875  19.811  0.00  0.00    +0.000 OA
ATOM     20  O   UNL     1       1.139   4.014  17.317  0.00  0.00    +0.000 OA
BRANCH  18  21
ATOM     21  N   UNL     1       3.036   3.221  18.792  0.00  0.00    +0.000 NA
ATOM     22  C   UNL     1       3.798   2.824  17.584  0.00  0.00    +0.000 C 
ATOM     23  C   UNL     1       4.728   3.950  17.127  0.00  0.00    +0.000 C 
ATOM     24  N   UNL     1       5.544   4.497  18.236  0.00  0.00    +0.000 N 
ATOM     25  C   UNL     1       4.959   4.545  19.610  0.00  0.00    +0.000 C 
ATOM     26  C   UNL     1       3.966   3.422  19.921  0.00  0.00    +0.000 C 
BRANCH  24  27
ATOM     27  C   UNL     1       6.342   5.633  18.002  0.00  0.00    +0.000 A 
ATOM     28  C   UNL     1       6.064   6.631  17.055  0.00  0.00    +0.000 A 
ATOM     29  C   UNL     1       6.830   7.805  16.999  0.00  0.00    +0.000 A 
ATOM     30  C   UNL     1       7.899   7.977  17.872  0.00  0.00    +0.000 A 
ATOM     31  F   UNL     1       8.610   9.109  17.845  0.00  0.00    +0.000 F 
ATOM     32  C   UNL     1       8.229   6.983  18.781  0.00  0.00    +0.000 A 
ATOM     33  C   UNL     1       7.467   5.823  18.826  0.00  0.00    +0.000 A 
ENDBRANCH  24  27
ENDBRANCH  18  21
ENDBRANCH   5  18
TORSDOF 5
ENDMDL
MODEL 6
REMARK VINA RESULT:      -8.3      4.751     10.012
REMARK  Name = 
REMARK  6 active torsions:
REMARK  status: ('A' for Active; 'I' for Inactive)
REMARK    1  A    between atoms: C_1  and  C_2
REMARK    2  A    between atoms: C_5  and  N_6
REMARK    3  A    between atoms: C_7  and  C_9
REMARK    4  A    between atoms: C_13  and  S_14
REMARK    5  A    between atoms: S_14  and  N_17
REMARK    6  A    between atoms: N_20  and  C_21
REMARK                            x       y       z     vdW  Elec       q    Type
REMARK                         _______ _______ _______ _____ _____    ______ ____
ROOT
ATOM      1  C   UNL     1       0.632  10.286  20.832  0.00  0.00    +0.000 A 
ATOM      2  C   UNL     1      -0.404   9.953  19.926  0.00  0.00    +0.000 A 
ATOM      3  C   UNL     1      -0.812  10.849  18.927  0.00  0.00    +0.000 A 
ATOM      4  C   UNL     1      -0.172  12.084  18.803  0.00  0.00    +0.000 A 
ATOM      5  C   UNL     1       0.811  12.450  19.732  0.00  0.00    +0.000 A 
ATOM      6  C   UNL     1       1.195  11.552  20.748  0.00  0.00    +0.000 A 
ENDROOT
BRANCH   1   8
ATOM      7  N   UNL     1       1.452   7.929  21.489  0.00  0.00    +0.000 N 
ATOM      8  C   UNL     1       1.113   9.227  21.763  0.00  0.00    +0.000 C 
ATOM      9  O   UNL     1       1.194   9.532  22.960  0.00  0.00    +0.000 OA
ATOM     10  H   UNL     1       1.644   7.535  22.402  0.00  0.00    +0.000 HD
BRANCH   7  15
ATOM     11  C   UNL     1       2.191   3.784  17.412  0.00  0.00    +0.000 C 
ATOM     12  C   UNL     1       2.514   4.756  18.559  0.00  0.00    +0.000 C 
ATOM     13  C   UNL     1       2.384   6.222  18.108  0.00  0.00    +0.000 C 
ATOM     14  C   UNL     1       2.557   7.238  19.262  0.00  0.00    +0.000 C 
ATOM     15  C   UNL     1       1.638   6.895  20.442  0.00  0.00    +0.000 C 
ATOM     16  C   UNL     1       1.856   5.460  20.925  0.00  0.00    +0.000 C 
ATOM     17  C   UNL     1       1.619   4.466  19.773  0.00  0.00    +0.000 C 
ENDBRANCH   7  15
ENDBRANCH   1   8
BRANCH   5  18
ATOM     18  S   UNL     1       1.865  13.873  19.443  0.00  0.00    +0.000 S 
ATOM     19  O   UNL     1       3.072  13.623  20.217  0.00  0.00    +0.000 OA
ATOM     20  O   UNL     1       1.940  14.059  18.012  0.00  0.00    +0.000 OA
BRANCH  18  21
ATOM     21  N   UNL     1       1.167  15.252  20.106  0.00  0.00    +0.000 NA
ATOM     22  C   UNL     1      -0.146  15.736  19.616  0.00  0.00    +0.000 C 
ATOM     23  C   UNL     1      -1.293  14.945  20.249  0.00  0.00    +0.000 C 
ATOM     24  N   UNL     1      -1.167  14.844  21.722  0.00  0.00    +0.000 N 
ATOM     25  C   UNL     1       0.196  14.766  22.329  0.00  0.00    +0.000 C 
ATOM     26  C   UNL     1       1.284  15.514  21.555  0.00  0.00    +0.000 C 
BRANCH  24  27
ATOM     27  C   UNL     1      -2.067  14.025  22.430  0.00  0.00    +0.000 A 
ATOM     28  C   UNL     1      -1.925  12.642  22.614  0.00  0.00    +0.000 A 
ATOM     29  C   UNL     1      -2.788  11.934  23.465  0.00  0.00    +0.000 A 
ATOM     30  C   UNL     1      -3.818  12.602  24.117  0.00  0.00    +0.000 A 
ATOM     31  F   UNL     1      -4.621  11.938  24.955  0.00  0.00    +0.000 F 
ATOM     32  C   UNL     1      -4.016  13.960  23.911  0.00  0.00    +0.000 A 
ATOM     33  C   UNL     1      -3.159  14.649  23.063  0.00  0.00    +0.000 A 
ENDBRANCH  24  27
ENDBRANCH  18  21
ENDBRANCH   5  18
TORSDOF 5
ENDMDL
MODEL 7
REMARK VINA RESULT:      -8.2      1.621      2.224
REMARK  Name = 
REMARK  6 active torsions:
REMARK  status: ('A' for Active; 'I' for Inactive)
REMARK    1  A    between atoms: C_1  and  C_2
REMARK    2  A    between atoms: C_5  and  N_6
REMARK    3  A    between atoms: C_7  and  C_9
REMARK    4  A    between atoms: C_13  and  S_14
REMARK    5  A    between atoms: S_14  and  N_17
REMARK    6  A    between atoms: N_20  and  C_21
REMARK                            x       y       z     vdW  Elec       q    Type
REMARK                         _______ _______ _______ _____ _____    ______ ____
ROOT
ATOM      1  C   UNL     1       2.063   7.192  18.763  0.00  0.00    +0.000 A 
ATOM      2  C   UNL     1       1.973   7.344  20.168  0.00  0.00    +0.000 A 
ATOM      3  C   UNL     1       1.718   6.247  21.004  0.00  0.00    +0.000 A 
ATOM      4  C   UNL     1       1.573   4.974  20.449  0.00  0.00    +0.000 A 
ATOM      5  C   UNL     1       1.598   4.820  19.056  0.00  0.00    +0.000 A 
ATOM      6  C   UNL     1       1.829   5.934  18.224  0.00  0.00    +0.000 A 
ENDROOT
BRANCH   1   8
ATOM      7  N   UNL     1       2.030   9.659  18.010  0.00  0.00    +0.000 N 
ATOM      8  C   UNL     1       2.488   8.370  17.958  0.00  0.00    +0.000 C 
ATOM      9  O   UNL     1       3.352   8.173  17.094  0.00  0.00    +0.000 OA
ATOM     10  H   UNL     1       2.519  10.117  17.251  0.00  0.00    +0.000 HD
BRANCH   7  15
ATOM     11  C   UNL     1      -1.571  13.438  20.675  0.00  0.00    +0.000 C 
ATOM     12  C   UNL     1      -0.809  12.717  19.551  0.00  0.00    +0.000 C 
ATOM     13  C   UNL     1       0.711  12.930  19.675  0.00  0.00    +0.000 C 
ATOM     14  C   UNL     1       1.532  12.108  18.655  0.00  0.00    +0.000 C 
ATOM     15  C   UNL     1       1.135  10.627  18.692  0.00  0.00    +0.000 C 
ATOM     16  C   UNL     1      -0.368  10.442  18.476  0.00  0.00    +0.000 C 
ATOM     17  C   UNL     1      -1.161  11.222  19.540  0.00  0.00    +0.000 C 
ENDBRANCH   7  15
ENDBRANCH   1   8
BRANCH   5  18
ATOM     18  S   UNL     1       1.721   3.192  18.313  0.00  0.00    +0.000 S 
ATOM     19  O   UNL     1       0.644   2.413  18.906  0.00  0.00    +0.000 OA
ATOM     20  O   UNL     1       1.780   3.385  16.882  0.00  0.00    +0.000 OA
BRANCH  18  21
ATOM     21  N   UNL     1       3.151   2.446  18.790  0.00  0.00    +0.000 NA
ATOM     22  C   UNL     1       4.119   1.964  17.777  0.00  0.00    +0.000 C 
ATOM     23  C   UNL     1       4.984   3.114  17.254  0.00  0.00    +0.000 C 
ATOM     24  N   UNL     1       5.566   3.927  18.347  0.00  0.00    +0.000 N 
ATOM     25  C   UNL     1       4.784   4.115  19.606  0.00  0.00    +0.000 C 
ATOM     26  C   UNL     1       3.878   2.939  19.977  0.00  0.00    +0.000 C 
BRANCH  24  27
ATOM     27  C   UNL     1       6.267   5.104  18.024  0.00  0.00    +0.000 A 
ATOM     28  C   UNL     1       5.908   6.002  17.007  0.00  0.00    +0.000 A 
ATOM     29  C   UNL     1       6.575   7.228  16.858  0.00  0.00    +0.000 A 
ATOM     30  C   UNL     1       7.625   7.552  17.710  0.00  0.00    +0.000 A 
ATOM     31  F   UNL     1       8.240   8.734  17.593  0.00  0.00    +0.000 F 
ATOM     32  C   UNL     1       8.037   6.660  18.688  0.00  0.00    +0.000 A 
ATOM     33  C   UNL     1       7.373   5.448  18.824  0.00  0.00    +0.000 A 
ENDBRANCH  24  27
ENDBRANCH  18  21
ENDBRANCH   5  18
TORSDOF 5
ENDMDL
MODEL 8
REMARK VINA RESULT:      -8.2      4.152     10.038
REMARK  Name = 
REMARK  6 active torsions:
REMARK  status: ('A' for Active; 'I' for Inactive)
REMARK    1  A    between atoms: C_1  and  C_2
REMARK    2  A    between atoms: C_5  and  N_6
REMARK    3  A    between atoms: C_7  and  C_9
REMARK    4  A    between atoms: C_13  and  S_14
REMARK    5  A    between atoms: S_14  and  N_17
REMARK    6  A    between atoms: N_20  and  C_21
REMARK                            x       y       z     vdW  Elec       q    Type
REMARK                         _______ _______ _______ _____ _____    ______ ____
ROOT
ATOM      1  C   UNL     1       2.323   6.899  19.470  0.00  0.00    +0.000 A 
ATOM      2  C   UNL     1       2.470   7.382  18.147  0.00  0.00    +0.000 A 
ATOM      3  C   UNL     1       1.951   8.628  17.766  0.00  0.00    +0.000 A 
ATOM      4  C   UNL     1       1.298   9.423  18.710  0.00  0.00    +0.000 A 
ATOM      5  C   UNL     1       1.092   8.930  20.005  0.00  0.00    +0.000 A 
ATOM      6  C   UNL     1       1.594   7.665  20.370  0.00  0.00    +0.000 A 
ENDROOT
BRANCH   1   8
ATOM      7  N   UNL     1       3.972   4.945  19.128  0.00  0.00    +0.000 N 
ATOM      8  C   UNL     1       3.032   5.642  19.838  0.00  0.00    +0.000 C 
ATOM      9  O   UNL     1       2.719   5.120  20.916  0.00  0.00    +0.000 OA
ATOM     10  H   UNL     1       4.132   4.119  19.692  0.00  0.00    +0.000 HD
BRANCH   7  15
ATOM     11  C   UNL     1       7.350   4.837  14.340  0.00  0.00    +0.000 C 
ATOM     12  C   UNL     1       6.213   5.231  15.296  0.00  0.00    +0.000 C 
ATOM     13  C   UNL     1       5.264   4.047  15.559  0.00  0.00    +0.000 C 
ATOM     14  C   UNL     1       4.185   4.349  16.627  0.00  0.00    +0.000 C 
ATOM     15  C   UNL     1       4.819   4.899  17.911  0.00  0.00    +0.000 C 
ATOM     16  C   UNL     1       5.685   6.129  17.629  0.00  0.00    +0.000 C 
ATOM     17  C   UNL     1       6.785   5.786  16.609  0.00  0.00    +0.000 C 
ENDBRANCH   7  15
ENDBRANCH   1   8
BRANCH   5  18
ATOM     18  S   UNL     1       0.538  10.013  21.324  0.00  0.00    +0.000 S 
ATOM     19  O   UNL     1      -0.779   9.523  21.700  0.00  0.00    +0.000 OA
ATOM     20  O   UNL     1       1.603  10.066  22.300  0.00  0.00    +0.000 OA
BRANCH  18  21
ATOM     21  N   UNL     1       0.304  11.570  20.733  0.00  0.00    +0.000 NA
ATOM     22  C   UNL     1      -0.715  11.828  19.688  0.00  0.00    +0.000 C 
ATOM     23  C   UNL     1      -2.115  11.933  20.300  0.00  0.00    +0.000 C 
ATOM     24  N   UNL     1      -2.157  12.849  21.463  0.00  0.00    +0.000 N 
ATOM     25  C   UNL     1      -0.962  12.945  22.354  0.00  0.00    +0.000 C 
ATOM     26  C   UNL     1       0.379  12.726  21.650  0.00  0.00    +0.000 C 
BRANCH  24  27
ATOM     27  C   UNL     1      -3.342  12.938  22.220  0.00  0.00    +0.000 A 
ATOM     28  C   UNL     1      -4.619  13.175  21.690  0.00  0.00    +0.000 A 
ATOM     29  C   UNL     1      -5.762  13.092  22.500  0.00  0.00    +0.000 A 
ATOM     30  C   UNL     1      -5.632  12.799  23.853  0.00  0.00    +0.000 A 
ATOM     31  F   UNL     1      -6.721  12.685  24.621  0.00  0.00    +0.000 F 
ATOM     32  C   UNL     1      -4.377  12.614  24.414  0.00  0.00    +0.000 A 
ATOM     33  C   UNL     1      -3.252  12.702  23.605  0.00  0.00    +0.000 A 
ENDBRANCH  24  27
ENDBRANCH  18  21
ENDBRANCH   5  18
TORSDOF 5
ENDMDL
MODEL 9
REMARK VINA RESULT:      -8.2      2.557      3.286
REMARK  Name = 
REMARK  6 active torsions:
REMARK  status: ('A' for Active; 'I' for Inactive)
REMARK    1  A    between atoms: C_1  and  C_2
REMARK    2  A    between atoms: C_5  and  N_6
REMARK    3  A    between atoms: C_7  and  C_9
REMARK    4  A    between atoms: C_13  and  S_14
REMARK    5  A    between atoms: S_14  and  N_17
REMARK    6  A    between atoms: N_20  and  C_21
REMARK                            x       y       z     vdW  Elec       q    Type
REMARK                         _______ _______ _______ _____ _____    ______ ____
ROOT
ATOM      1  C   UNL     1       1.413   8.924  20.220  0.00  0.00    +0.000 A 
ATOM      2  C   UNL     1       1.570   9.639  19.008  0.00  0.00    +0.000 A 
ATOM      3  C   UNL     1       2.014   9.002  17.840  0.00  0.00    +0.000 A 
ATOM      4  C   UNL     1       2.286   7.633  17.860  0.00  0.00    +0.000 A 
ATOM      5  C   UNL     1       2.195   6.928  19.067  0.00  0.00    +0.000 A 
ATOM      6  C   UNL     1       1.772   7.584  20.242  0.00  0.00    +0.000 A 
ENDROOT
BRANCH   1   8
ATOM      7  N   UNL     1       0.385  10.936  21.466  0.00  0.00    +0.000 N 
ATOM      8  C   UNL     1       0.792   9.633  21.374  0.00  0.00    +0.000 C 
ATOM      9  O   UNL     1       0.643   8.979  22.415  0.00  0.00    +0.000 OA
ATOM     10  H   UNL     1       0.098  11.029  22.432  0.00  0.00    +0.000 HD
BRANCH   7  15
ATOM     11  C   UNL     1      -0.241  16.053  18.677  0.00  0.00    +0.000 C 
ATOM     12  C   UNL     1       0.003  15.049  19.816  0.00  0.00    +0.000 C 
ATOM     13  C   UNL     1      -1.251  14.202  20.098  0.00  0.00    +0.000 C 
ATOM     14  C   UNL     1      -1.014  13.080  21.136  0.00  0.00    +0.000 C 
ATOM     15  C   UNL     1       0.206  12.228  20.759  0.00  0.00    +0.000 C 
ATOM     16  C   UNL     1       1.457  13.089  20.573  0.00  0.00    +0.000 C 
ATOM     17  C   UNL     1       1.214  14.160  19.494  0.00  0.00    +0.000 C 
ENDBRANCH   7  15
ENDBRANCH   1   8
BRANCH   5  18
ATOM     18  S   UNL     1       2.234   5.134  19.090  0.00  0.00    +0.000 S 
ATOM     19  O   UNL     1       1.374   4.742  20.196  0.00  0.00    +0.000 OA
ATOM     20  O   UNL     1       1.944   4.689  17.746  0.00  0.00    +0.000 OA
BRANCH  18  21
ATOM     21  N   UNL     1       3.777   4.595  19.489  0.00  0.00    +0.000 NA
ATOM     22  C   UNL     1       4.211   3.227  19.120  0.00  0.00    +0.000 C 
ATOM     23  C   UNL     1       4.653   3.168  17.655  0.00  0.00    +0.000 C 
ATOM     24  N   UNL     1       5.605   4.248  17.307  0.00  0.00    +0.000 N 
ATOM     25  C   UNL     1       5.469   5.577  17.976  0.00  0.00    +0.000 C 
ATOM     26  C   UNL     1       4.925   5.520  19.405  0.00  0.00    +0.000 C 
BRANCH  24  27
ATOM     27  C   UNL     1       5.990   4.412  15.962  0.00  0.00    +0.000 A 
ATOM     28  C   UNL     1       7.138   5.092  15.531  0.00  0.00    +0.000 A 
ATOM     29  C   UNL     1       7.525   5.071  14.181  0.00  0.00    +0.000 A 
ATOM     30  C   UNL     1       6.748   4.392  13.249  0.00  0.00    +0.000 A 
ATOM     31  F   UNL     1       7.131   4.341  11.969  0.00  0.00    +0.000 F 
ATOM     32  C   UNL     1       5.578   3.757  13.640  0.00  0.00    +0.000 A 
ATOM     33  C   UNL     1       5.203   3.788  14.976  0.00  0.00    +0.000 A 
ENDBRANCH  24  27
ENDBRANCH  18  21
ENDBRANCH   5  18
TORSDOF 5
ENDMDL
