MODEL 1
REMARK VINA RESULT:      -7.6      0.000      0.000
REMARK  Name = 
REMARK  3 active torsions:
REMARK  status: ('A' for Active; 'I' for Inactive)
REMARK    1  A    between atoms: C_2  and  C_3
REMARK    2  A    between atoms: C_6  and  C_7
REMARK    3  A    between atoms: C_18  and  O_19
REMARK                            x       y       z     vdW  Elec       q    Type
REMARK                         _______ _______ _______ _____ _____    ______ ____
ROOT
ATOM      1  C   UNL     1       6.717   4.955  14.949  0.00  0.00    +0.000 A 
ATOM      2  C   UNL     1       5.821   3.920  14.699  0.00  0.00    +0.000 A 
ATOM      3  C   UNL     1       4.913   3.537  15.690  0.00  0.00    +0.000 A 
ATOM      4  C   UNL     1       4.872   4.230  16.906  0.00  0.00    +0.000 A 
ATOM      5  N   UNL     1       5.754   5.234  17.162  0.00  0.00    +0.000 NA
ATOM      6  C   UNL     1       6.642   5.552  16.194  0.00  0.00    +0.000 A 
ENDROOT
BRANCH   4   7
ATOM      7  C   UNL     1       3.803   3.896  17.963  0.00  0.00    +0.000 C 
ATOM      8  C   UNL     1       3.659   2.359  18.135  0.00  0.00    +0.000 C 
ATOM      9  C   UNL     1       2.581   2.016  19.180  0.00  0.00    +0.000 C 
ATOM     10  C   UNL     1       2.964   2.626  20.534  0.00  0.00    +0.000 C 
ATOM     11  C   UNL     1       3.071   4.153  20.405  0.00  0.00    +0.000 C 
ATOM     12  C   UNL     1       1.724   4.730  19.945  0.00  0.00    +0.000 C 
ATOM     13  C   UNL     1       1.335   4.124  18.589  0.00  0.00    +0.000 C 
ATOM     14  C   UNL     1       1.230   2.597  18.732  0.00  0.00    +0.000 C 
ATOM     15  C   UNL     1       2.415   4.466  17.543  0.00  0.00    +0.000 C 
ATOM     16  C   UNL     1       4.151   4.494  19.361  0.00  0.00    +0.000 C 
ENDBRANCH   4   7
BRANCH   1  18
ATOM     17  N   UNL     1       8.446   5.730  13.180  0.00  0.00    +0.000 NA
ATOM     18  C   UNL     1       7.672   5.345  13.961  0.00  0.00    +0.000 C 
ENDBRANCH   1  18
BRANCH   6  19
ATOM     19  O   UNL     1       7.504   6.538  16.557  0.00  0.00    +0.000 OA
ATOM     20  H   UNL     1       8.211   6.414  15.897  0.00  0.00    +0.000 HD
ENDBRANCH   6  19
TORSDOF 3
ENDMDL
MODEL 2
REMARK VINA RESULT:      -7.6      0.144      1.770
REMARK  Name = 
REMARK  3 active torsions:
REMARK  status: ('A' for Active; 'I' for Inactive)
REMARK    1  A    between atoms: C_2  and  C_3
REMARK    2  A    between atoms: C_6  and  C_7
REMARK    3  A    between atoms: C_18  and  O_19
REMARK                            x       y       z     vdW  Elec       q    Type
REMARK                         _______ _______ _______ _____ _____    ______ ____
ROOT
ATOM      1  C   UNL     1       6.649   5.010  15.028  0.00  0.00    +0.000 A 
ATOM      2  C   UNL     1       5.715   4.015  14.752  0.00  0.00    +0.000 A 
ATOM      3  C   UNL     1       4.808   3.625  15.741  0.00  0.00    +0.000 A 
ATOM      4  C   UNL     1       4.806   4.273  16.983  0.00  0.00    +0.000 A 
ATOM      5  N   UNL     1       5.725   5.236  17.263  0.00  0.00    +0.000 NA
ATOM      6  C   UNL     1       6.610   5.561  16.295  0.00  0.00    +0.000 A 
ENDROOT
BRANCH   4   7
ATOM      7  C   UNL     1       3.741   3.934  18.042  0.00  0.00    +0.000 C 
ATOM      8  C   UNL     1       4.062   4.633  19.391  0.00  0.00    +0.000 C 
ATOM      9  C   UNL     1       3.009   4.288  20.460  0.00  0.00    +0.000 C 
ATOM     10  C   UNL     1       1.624   4.749  19.987  0.00  0.00    +0.000 C 
ATOM     11  C   UNL     1       1.260   4.040  18.674  0.00  0.00    +0.000 C 
ATOM     12  C   UNL     1       1.247   2.520  18.893  0.00  0.00    +0.000 C 
ATOM     13  C   UNL     1       2.630   2.051  19.365  0.00  0.00    +0.000 C 
ATOM     14  C   UNL     1       2.983   2.766  20.680  0.00  0.00    +0.000 C 
ATOM     15  C   UNL     1       3.685   2.398  18.296  0.00  0.00    +0.000 C 
ATOM     16  C   UNL     1       2.313   4.388  17.606  0.00  0.00    +0.000 C 
ENDBRANCH   4   7
BRANCH   1  18
ATOM     17  N   UNL     1       8.431   5.730  13.290  0.00  0.00    +0.000 NA
ATOM     18  C   UNL     1       7.603   5.405  14.042  0.00  0.00    +0.000 C 
ENDBRANCH   1  18
BRANCH   6  19
ATOM     19  O   UNL     1       7.510   6.503  16.683  0.00  0.00    +0.000 OA
ATOM     20  H   UNL     1       8.333   5.980  16.683  0.00  0.00    +0.000 HD
ENDBRANCH   6  19
TORSDOF 3
ENDMDL
MODEL 3
REMARK VINA RESULT:      -7.6      0.050      1.710
REMARK  Name = 
REMARK  3 active torsions:
REMARK  status: ('A' for Active; 'I' for Inactive)
REMARK    1  A    between atoms: C_2  and  C_3
REMARK    2  A    between atoms: C_6  and  C_7
REMARK    3  A    between atoms: C_18  and  O_19
REMARK                            x       y       z     vdW  Elec       q    Type
REMARK                         _______ _______ _______ _____ _____    ______ ____
ROOT
ATOM      1  C   UNL     1       6.703   4.992  14.937  0.00  0.00    +0.000 A 
ATOM      2  C   UNL     1       5.808   3.956  14.682  0.00  0.00    +0.000 A 
ATOM      3  C   UNL     1       4.904   3.564  15.672  0.00  0.00    +0.000 A 
ATOM      4  C   UNL     1       4.864   4.248  16.893  0.00  0.00    +0.000 A 
ATOM      5  N   UNL     1       5.744   5.252  17.155  0.00  0.00    +0.000 NA
ATOM      6  C   UNL     1       6.629   5.579  16.187  0.00  0.00    +0.000 A 
ENDROOT
BRANCH   4   7
ATOM      7  C   UNL     1       3.798   3.904  17.950  0.00  0.00    +0.000 C 
ATOM      8  C   UNL     1       2.401   4.425  17.516  0.00  0.00    +0.000 C 
ATOM      9  C   UNL     1       1.332   4.098  18.575  0.00  0.00    +0.000 C 
ATOM     10  C   UNL     1       1.249   2.578  18.770  0.00  0.00    +0.000 C 
ATOM     11  C   UNL     1       2.607   2.039  19.243  0.00  0.00    +0.000 C 
ATOM     12  C   UNL     1       2.995   2.706  20.571  0.00  0.00    +0.000 C 
ATOM     13  C   UNL     1       3.082   4.227  20.383  0.00  0.00    +0.000 C 
ATOM     14  C   UNL     1       1.717   4.754  19.911  0.00  0.00    +0.000 C 
ATOM     15  C   UNL     1       4.151   4.555  19.321  0.00  0.00    +0.000 C 
ATOM     16  C   UNL     1       3.675   2.366  18.181  0.00  0.00    +0.000 C 
ENDBRANCH   4   7
BRANCH   1  18
ATOM     17  N   UNL     1       8.479   5.723  13.198  0.00  0.00    +0.000 NA
ATOM     18  C   UNL     1       7.655   5.391  13.951  0.00  0.00    +0.000 C 
ENDBRANCH   1  18
BRANCH   6  19
ATOM     19  O   UNL     1       7.491   6.564  16.556  0.00  0.00    +0.000 OA
ATOM     20  H   UNL     1       6.913   7.107  17.124  0.00  0.00    +0.000 HD
ENDBRANCH   6  19
TORSDOF 3
ENDMDL
MODEL 4
REMARK VINA RESULT:      -7.5      1.027      1.208
REMARK  Name = 
REMARK  3 active torsions:
REMARK  status: ('A' for Active; 'I' for Inactive)
REMARK    1  A    between atoms: C_2  and  C_3
REMARK    2  A    between atoms: C_6  and  C_7
REMARK    3  A    between atoms: C_18  and  O_19
REMARK                            x       y       z     vdW  Elec       q    Type
REMARK                         _______ _______ _______ _____ _____    ______ ____
ROOT
ATOM      1  C   UNL     1       6.195   4.945  15.608  0.00  0.00    +0.000 A 
ATOM      2  C   UNL     1       5.589   3.694  15.683  0.00  0.00    +0.000 A 
ATOM      3  C   UNL     1       4.720   3.408  16.739  0.00  0.00    +0.000 A 
ATOM      4  C   UNL     1       4.421   4.397  17.685  0.00  0.00    +0.000 A 
ATOM      5  N   UNL     1       5.020   5.617  17.626  0.00  0.00    +0.000 NA
ATOM      6  C   UNL     1       5.883   5.844  16.611  0.00  0.00    +0.000 A 
ENDROOT
BRANCH   4   7
ATOM      7  C   UNL     1       3.380   4.136  18.790  0.00  0.00    +0.000 C 
ATOM      8  C   UNL     1       3.840   2.981  19.720  0.00  0.00    +0.000 C 
ATOM      9  C   UNL     1       2.797   2.702  20.818  0.00  0.00    +0.000 C 
ATOM     10  C   UNL     1       2.596   3.965  21.668  0.00  0.00    +0.000 C 
ATOM     11  C   UNL     1       2.097   5.115  20.780  0.00  0.00    +0.000 C 
ATOM     12  C   UNL     1       0.767   4.722  20.121  0.00  0.00    +0.000 C 
ATOM     13  C   UNL     1       0.962   3.460  19.268  0.00  0.00    +0.000 C 
ATOM     14  C   UNL     1       1.459   2.317  20.168  0.00  0.00    +0.000 C 
ATOM     15  C   UNL     1       2.007   3.737  18.169  0.00  0.00    +0.000 C 
ATOM     16  C   UNL     1       3.142   5.392  19.683  0.00  0.00    +0.000 C 
ENDBRANCH   4   7
BRANCH   1  18
ATOM     17  N   UNL     1       7.885   5.541  13.737  0.00  0.00    +0.000 NA
ATOM     18  C   UNL     1       7.107   5.249  14.553  0.00  0.00    +0.000 C 
ENDBRANCH   1  18
BRANCH   6  19
ATOM     19  O   UNL     1       6.458   7.075  16.659  0.00  0.00    +0.000 OA
ATOM     20  H   UNL     1       6.258   7.405  15.764  0.00  0.00    +0.000 HD
ENDBRANCH   6  19
TORSDOF 3
ENDMDL
MODEL 5
REMARK VINA RESULT:      -7.5      1.032      1.627
REMARK  Name = 
REMARK  3 active torsions:
REMARK  status: ('A' for Active; 'I' for Inactive)
REMARK    1  A    between atoms: C_2  and  C_3
REMARK    2  A    between atoms: C_6  and  C_7
REMARK    3  A    between atoms: C_18  and  O_19
REMARK                            x       y       z     vdW  Elec       q    Type
REMARK                         _______ _______ _______ _____ _____    ______ ____
ROOT
ATOM      1  C   UNL     1       6.223   4.916  15.620  0.00  0.00    +0.000 A 
ATOM      2  C   UNL     1       5.652   3.650  15.717  0.00  0.00    +0.000 A 
ATOM      3  C   UNL     1       4.779   3.364  16.769  0.00  0.00    +0.000 A 
ATOM      4  C   UNL     1       4.440   4.366  17.688  0.00  0.00    +0.000 A 
ATOM      5  N   UNL     1       5.004   5.601  17.607  0.00  0.00    +0.000 NA
ATOM      6  C   UNL     1       5.873   5.829  16.597  0.00  0.00    +0.000 A 
ENDROOT
BRANCH   4   7
ATOM      7  C   UNL     1       3.392   4.101  18.786  0.00  0.00    +0.000 C 
ATOM      8  C   UNL     1       2.014   3.752  18.161  0.00  0.00    +0.000 C 
ATOM      9  C   UNL     1       0.957   3.501  19.252  0.00  0.00    +0.000 C 
ATOM     10  C   UNL     1       1.402   2.330  20.140  0.00  0.00    +0.000 C 
ATOM     11  C   UNL     1       2.745   2.666  20.807  0.00  0.00    +0.000 C 
ATOM     12  C   UNL     1       2.596   3.931  21.664  0.00  0.00    +0.000 C 
ATOM     13  C   UNL     1       2.152   5.107  20.781  0.00  0.00    +0.000 C 
ATOM     14  C   UNL     1       0.807   4.760  20.121  0.00  0.00    +0.000 C 
ATOM     15  C   UNL     1       3.209   5.358  19.687  0.00  0.00    +0.000 C 
ATOM     16  C   UNL     1       3.800   2.915  19.714  0.00  0.00    +0.000 C 
ENDBRANCH   4   7
BRANCH   1  18
ATOM     17  N   UNL     1       7.875   5.540  13.723  0.00  0.00    +0.000 NA
ATOM     18  C   UNL     1       7.139   5.221  14.568  0.00  0.00    +0.000 C 
ENDBRANCH   1  18
BRANCH   6  19
ATOM     19  O   UNL     1       6.413   7.076  16.624  0.00  0.00    +0.000 OA
ATOM     20  H   UNL     1       7.058   6.981  17.349  0.00  0.00    +0.000 HD
ENDBRANCH   6  19
TORSDOF 3
ENDMDL
MODEL 6
REMARK VINA RESULT:      -7.5      1.030      2.205
REMARK  Name = 
REMARK  3 active torsions:
REMARK  status: ('A' for Active; 'I' for Inactive)
REMARK    1  A    between atoms: C_2  and  C_3
REMARK    2  A    between atoms: C_6  and  C_7
REMARK    3  A    between atoms: C_18  and  O_19
REMARK                            x       y       z     vdW  Elec       q    Type
REMARK                         _______ _______ _______ _____ _____    ______ ____
ROOT
ATOM      1  C   UNL     1       6.191   4.959  15.613  0.00  0.00    +0.000 A 
ATOM      2  C   UNL     1       5.565   3.716  15.665  0.00  0.00    +0.000 A 
ATOM      3  C   UNL     1       4.692   3.424  16.715  0.00  0.00    +0.000 A 
ATOM      4  C   UNL     1       4.408   4.399  17.680  0.00  0.00    +0.000 A 
ATOM      5  N   UNL     1       5.026   5.611  17.644  0.00  0.00    +0.000 NA
ATOM      6  C   UNL     1       5.893   5.844  16.633  0.00  0.00    +0.000 A 
ENDROOT
BRANCH   4   7
ATOM      7  C   UNL     1       3.362   4.134  18.779  0.00  0.00    +0.000 C 
ATOM      8  C   UNL     1       3.122   5.409  19.632  0.00  0.00    +0.000 C 
ATOM      9  C   UNL     1       2.088   5.148  20.743  0.00  0.00    +0.000 C 
ATOM     10  C   UNL     1       0.755   4.719  20.116  0.00  0.00    +0.000 C 
ATOM     11  C   UNL     1       0.954   3.433  19.301  0.00  0.00    +0.000 C 
ATOM     12  C   UNL     1       1.472   2.314  20.216  0.00  0.00    +0.000 C 
ATOM     13  C   UNL     1       2.808   2.736  20.846  0.00  0.00    +0.000 C 
ATOM     14  C   UNL     1       2.596   4.023  21.660  0.00  0.00    +0.000 C 
ATOM     15  C   UNL     1       3.842   3.000  19.734  0.00  0.00    +0.000 C 
ATOM     16  C   UNL     1       1.986   3.697  18.189  0.00  0.00    +0.000 C 
ENDBRANCH   4   7
BRANCH   1  18
ATOM     17  N   UNL     1       7.903   5.542  13.758  0.00  0.00    +0.000 NA
ATOM     18  C   UNL     1       7.108   5.268  14.564  0.00  0.00    +0.000 C 
ENDBRANCH   1  18
BRANCH   6  19
ATOM     19  O   UNL     1       6.488   7.064  16.705  0.00  0.00    +0.000 OA
ATOM     20  H   UNL     1       7.028   7.051  15.893  0.00  0.00    +0.000 HD
ENDBRANCH   6  19
TORSDOF 3
ENDMDL
MODEL 7
REMARK VINA RESULT:      -7.3      1.503      1.876
REMARK  Name = 
REMARK  3 active torsions:
REMARK  status: ('A' for Active; 'I' for Inactive)
REMARK    1  A    between atoms: C_2  and  C_3
REMARK    2  A    between atoms: C_6  and  C_7
REMARK    3  A    between atoms: C_18  and  O_19
REMARK                            x       y       z     vdW  Elec       q    Type
REMARK                         _______ _______ _______ _____ _____    ______ ____
ROOT
ATOM      1  C   UNL     1       6.103   5.131  15.626  0.00  0.00    +0.000 A 
ATOM      2  C   UNL     1       5.557   6.173  16.370  0.00  0.00    +0.000 A 
ATOM      3  C   UNL     1       4.592   5.896  17.342  0.00  0.00    +0.000 A 
ATOM      4  C   UNL     1       4.220   4.571  17.600  0.00  0.00    +0.000 A 
ATOM      5  N   UNL     1       4.740   3.549  16.867  0.00  0.00    +0.000 NA
ATOM      6  C   UNL     1       5.643   3.859  15.911  0.00  0.00    +0.000 A 
ENDROOT
BRANCH   4   7
ATOM      7  C   UNL     1       3.243   4.239  18.744  0.00  0.00    +0.000 C 
ATOM      8  C   UNL     1       3.818   3.120  19.654  0.00  0.00    +0.000 C 
ATOM      9  C   UNL     1       2.840   2.771  20.792  0.00  0.00    +0.000 C 
ATOM     10  C   UNL     1       2.585   4.017  21.650  0.00  0.00    +0.000 C 
ATOM     11  C   UNL     1       1.974   5.130  20.785  0.00  0.00    +0.000 C 
ATOM     12  C   UNL     1       0.649   4.646  20.178  0.00  0.00    +0.000 C 
ATOM     13  C   UNL     1       0.897   3.399  19.316  0.00  0.00    +0.000 C 
ATOM     14  C   UNL     1       1.506   2.294  20.193  0.00  0.00    +0.000 C 
ATOM     15  C   UNL     1       1.878   3.747  18.177  0.00  0.00    +0.000 C 
ATOM     16  C   UNL     1       2.954   5.477  19.649  0.00  0.00    +0.000 C 
ENDBRANCH   4   7
BRANCH   1  18
ATOM     17  N   UNL     1       7.859   5.538  13.764  0.00  0.00    +0.000 NA
ATOM     18  C   UNL     1       7.071   5.394  14.609  0.00  0.00    +0.000 C 
ENDBRANCH   1  18
BRANCH   6  19
ATOM     19  O   UNL     1       6.074   2.778  15.208  0.00  0.00    +0.000 OA
ATOM     20  H   UNL     1       5.777   3.014  14.310  0.00  0.00    +0.000 HD
ENDBRANCH   6  19
TORSDOF 3
ENDMDL
MODEL 8
REMARK VINA RESULT:      -7.3      1.238      2.252
REMARK  Name = 
REMARK  3 active torsions:
REMARK  status: ('A' for Active; 'I' for Inactive)
REMARK    1  A    between atoms: C_2  and  C_3
REMARK    2  A    between atoms: C_6  and  C_7
REMARK    3  A    between atoms: C_18  and  O_19
REMARK                            x       y       z     vdW  Elec       q    Type
REMARK                         _______ _______ _______ _____ _____    ______ ____
ROOT
ATOM      1  C   UNL     1       6.635   5.103  15.083  0.00  0.00    +0.000 A 
ATOM      2  C   UNL     1       6.353   5.949  16.152  0.00  0.00    +0.000 A 
ATOM      3  C   UNL     1       5.352   5.601  17.062  0.00  0.00    +0.000 A 
ATOM      4  C   UNL     1       4.676   4.382  16.927  0.00  0.00    +0.000 A 
ATOM      5  N   UNL     1       4.938   3.557  15.877  0.00  0.00    +0.000 NA
ATOM      6  C   UNL     1       5.887   3.944  14.996  0.00  0.00    +0.000 A 
ENDROOT
BRANCH   4   7
ATOM      7  C   UNL     1       3.651   3.932  17.985  0.00  0.00    +0.000 C 
ATOM      8  C   UNL     1       2.206   4.286  17.538  0.00  0.00    +0.000 C 
ATOM      9  C   UNL     1       1.175   3.854  18.598  0.00  0.00    +0.000 C 
ATOM     10  C   UNL     1       1.264   2.337  18.812  0.00  0.00    +0.000 C 
ATOM     11  C   UNL     1       2.672   1.962  19.298  0.00  0.00    +0.000 C 
ATOM     12  C   UNL     1       2.975   2.685  20.618  0.00  0.00    +0.000 C 
ATOM     13  C   UNL     1       2.889   4.204  20.410  0.00  0.00    +0.000 C 
ATOM     14  C   UNL     1       1.476   4.567  19.926  0.00  0.00    +0.000 C 
ATOM     15  C   UNL     1       3.920   4.638  19.348  0.00  0.00    +0.000 C 
ATOM     16  C   UNL     1       3.701   2.394  18.236  0.00  0.00    +0.000 C 
ENDBRANCH   4   7
BRANCH   1  18
ATOM     17  N   UNL     1       8.401   5.772  13.309  0.00  0.00    +0.000 NA
ATOM     18  C   UNL     1       7.635   5.451  14.125  0.00  0.00    +0.000 C 
ENDBRANCH   1  18
BRANCH   6  19
ATOM     19  O   UNL     1       6.048   3.075  13.964  0.00  0.00    +0.000 OA
ATOM     20  H   UNL     1       6.142   2.233  14.447  0.00  0.00    +0.000 HD
ENDBRANCH   6  19
TORSDOF 3
ENDMDL
MODEL 9
REMARK VINA RESULT:      -7.3      1.247      2.354
REMARK  Name = 
REMARK  3 active torsions:
REMARK  status: ('A' for Active; 'I' for Inactive)
REMARK    1  A    between atoms: C_2  and  C_3
REMARK    2  A    between atoms: C_6  and  C_7
REMARK    3  A    between atoms: C_18  and  O_19
REMARK                            x       y       z     vdW  Elec       q    Type
REMARK                         _______ _______ _______ _____ _____    ______ ____
ROOT
ATOM      1  C   UNL     1       6.573   5.116  15.074  0.00  0.00    +0.000 A 
ATOM      2  C   UNL     1       6.246   5.992  16.105  0.00  0.00    +0.000 A 
ATOM      3  C   UNL     1       5.254   5.639  17.024  0.00  0.00    +0.000 A 
ATOM      4  C   UNL     1       4.634   4.386  16.936  0.00  0.00    +0.000 A 
ATOM      5  N   UNL     1       4.940   3.531  15.924  0.00  0.00    +0.000 NA
ATOM      6  C   UNL     1       5.877   3.922  15.032  0.00  0.00    +0.000 A 
ENDROOT
BRANCH   4   7
ATOM      7  C   UNL     1       3.622   3.937  18.007  0.00  0.00    +0.000 C 
ATOM      8  C   UNL     1       3.877   4.671  19.351  0.00  0.00    +0.000 C 
ATOM      9  C   UNL     1       2.878   4.216  20.431  0.00  0.00    +0.000 C 
ATOM     10  C   UNL     1       1.447   4.521  19.970  0.00  0.00    +0.000 C 
ATOM     11  C   UNL     1       1.151   3.771  18.662  0.00  0.00    +0.000 C 
ATOM     12  C   UNL     1       1.306   2.260  18.885  0.00  0.00    +0.000 C 
ATOM     13  C   UNL     1       2.737   1.947  19.345  0.00  0.00    +0.000 C 
ATOM     14  C   UNL     1       3.021   2.701  20.655  0.00  0.00    +0.000 C 
ATOM     15  C   UNL     1       3.738   2.404  18.265  0.00  0.00    +0.000 C 
ATOM     16  C   UNL     1       2.149   4.230  17.583  0.00  0.00    +0.000 C 
ENDBRANCH   4   7
BRANCH   1  18
ATOM     17  N   UNL     1       8.413   5.778  13.373  0.00  0.00    +0.000 NA
ATOM     18  C   UNL     1       7.564   5.467  14.108  0.00  0.00    +0.000 C 
ENDBRANCH   1  18
BRANCH   6  19
ATOM     19  O   UNL     1       6.084   3.018  14.038  0.00  0.00    +0.000 OA
ATOM     20  H   UNL     1       5.455   3.340  13.366  0.00  0.00    +0.000 HD
ENDBRANCH   6  19
TORSDOF 3
ENDMDL
