MODEL 1
REMARK VINA RESULT:      -8.7      0.000      0.000
REMARK  Name = 
REMARK  8 active torsions:
REMARK  status: ('A' for Active; 'I' for Inactive)
REMARK    1  A    between atoms: C_1  and  O_2
REMARK    2  A    between atoms: O_2  and  C_3
REMARK    3  A    between atoms: C_6  and  C_7
REMARK    4  A    between atoms: N_8  and  C_9
REMARK    5  A    between atoms: C_15  and  O_16
REMARK    6  A    between atoms: O_16  and  C_17
REMARK    7  A    between atoms: C_26  and  O_27
REMARK    8  A    between atoms: O_27  and  C_28
REMARK                            x       y       z     vdW  Elec       q    Type
REMARK                         _______ _______ _______ _____ _____    ______ ____
ROOT
ATOM      1  C   UNL     1       3.080   5.425  19.503  0.00  0.00    +0.000 C 
ATOM      2  N   UNL     1       3.294   4.643  18.312  0.00  0.00    +0.000 N 
ATOM      3  C   UNL     1       2.388   3.613  18.173  0.00  0.00    +0.000 C 
ATOM      4  O   UNL     1       2.335   2.769  17.294  0.00  0.00    +0.000 OA
ATOM      5  C   UNL     1       1.470   3.683  19.379  0.00  0.00    +0.000 C 
ATOM      6  C   UNL     1       1.465   2.356  20.114  0.00  0.00    +0.000 C 
ATOM      7  C   UNL     1       2.698   2.464  20.990  0.00  0.00    +0.000 C 
ATOM      8  C   UNL     1       2.664   3.921  21.418  0.00  0.00    +0.000 C 
ATOM      9  N   UNL     1       2.083   4.676  20.300  0.00  0.00    +0.000 NA
ENDROOT
BRANCH   2  10
ATOM     10  C   UNL     1       4.477   4.724  17.553  0.00  0.00    +0.000 A 
ATOM     11  C   UNL     1       4.386   4.463  16.174  0.00  0.00    +0.000 A 
ATOM     12  C   UNL     1       5.531   4.380  15.389  0.00  0.00    +0.000 A 
ATOM     13 CL   UNL     1       5.409   4.008  13.714  0.00  0.00    +0.000 Cl
ATOM     14  C   UNL     1       6.787   4.561  15.961  0.00  0.00    +0.000 A 
ATOM     15  C   UNL     1       6.889   4.822  17.328  0.00  0.00    +0.000 A 
ATOM     16  C   UNL     1       5.743   4.911  18.136  0.00  0.00    +0.000 A 
BRANCH  16  17
ATOM     17  O   UNL     1       6.063   4.999  19.465  0.00  0.00    +0.000 OA
ATOM     18  C   UNL     1       7.336   5.508  19.829  0.00  0.00    +0.000 C 
ENDBRANCH  16  17
ENDBRANCH   2  10
BRANCH   1  22
ATOM     19  C   UNL     1       1.607   9.430  18.586  0.00  0.00    +0.000 A 
ATOM     20  C   UNL     1       2.401   8.741  17.657  0.00  0.00    +0.000 A 
ATOM     21  C   UNL     1       2.878   7.456  17.928  0.00  0.00    +0.000 A 
ATOM     22  C   UNL     1       2.596   6.833  19.148  0.00  0.00    +0.000 A 
ATOM     23  C   UNL     1       1.860   7.570  20.095  0.00  0.00    +0.000 A 
ATOM     24  C   UNL     1       1.384   8.867  19.845  0.00  0.00    +0.000 A 
BRANCH  19  26
ATOM     25  C   UNL     1       1.926  11.763  18.558  0.00  0.00    +0.000 C 
ATOM     26  O   UNL     1       1.075  10.652  18.273  0.00  0.00    +0.000 OA
ENDBRANCH  19  26
BRANCH  24  27
ATOM     27  O   UNL     1       0.728   9.388  20.926  0.00  0.00    +0.000 OA
ATOM     28  C   UNL     1       1.257   9.175  22.224  0.00  0.00    +0.000 C 
ENDBRANCH  24  27
ENDBRANCH   1  22
TORSDOF 5
ENDMDL
MODEL 2
REMARK VINA RESULT:      -8.6      2.069      2.638
REMARK  Name = 
REMARK  8 active torsions:
REMARK  status: ('A' for Active; 'I' for Inactive)
REMARK    1  A    between atoms: C_1  and  O_2
REMARK    2  A    between atoms: O_2  and  C_3
REMARK    3  A    between atoms: C_6  and  C_7
REMARK    4  A    between atoms: N_8  and  C_9
REMARK    5  A    between atoms: C_15  and  O_16
REMARK    6  A    between atoms: O_16  and  C_17
REMARK    7  A    between atoms: C_26  and  O_27
REMARK    8  A    between atoms: O_27  and  C_28
REMARK                            x       y       z     vdW  Elec       q    Type
REMARK                         _______ _______ _______ _____ _____    ______ ____
ROOT
ATOM      1  C   UNL     1       3.074   5.454  19.314  0.00  0.00    +0.000 C 
ATOM      2  N   UNL     1       3.972   5.161  18.226  0.00  0.00    +0.000 N 
ATOM      3  C   UNL     1       3.495   4.180  17.382  0.00  0.00    +0.000 C 
ATOM      4  O   UNL     1       4.038   3.699  16.402  0.00  0.00    +0.000 OA
ATOM      5  C   UNL     1       2.152   3.748  17.941  0.00  0.00    +0.000 C 
ATOM      6  C   UNL     1       2.140   2.251  18.186  0.00  0.00    +0.000 C 
ATOM      7  C   UNL     1       2.795   2.138  19.549  0.00  0.00    +0.000 C 
ATOM      8  C   UNL     1       2.228   3.343  20.280  0.00  0.00    +0.000 C 
ATOM      9  N   UNL     1       2.039   4.396  19.275  0.00  0.00    +0.000 NA
ENDROOT
BRANCH   2  10
ATOM     10  C   UNL     1       5.311   5.595  18.207  0.00  0.00    +0.000 A 
ATOM     11  C   UNL     1       6.131   5.227  19.288  0.00  0.00    +0.000 A 
ATOM     12  C   UNL     1       7.418   5.741  19.410  0.00  0.00    +0.000 A 
ATOM     13 CL   UNL     1       8.392   5.324  20.766  0.00  0.00    +0.000 Cl
ATOM     14  C   UNL     1       7.913   6.625  18.456  0.00  0.00    +0.000 A 
ATOM     15  C   UNL     1       7.108   6.995  17.379  0.00  0.00    +0.000 A 
ATOM     16  C   UNL     1       5.807   6.486  17.237  0.00  0.00    +0.000 A 
BRANCH  16  17
ATOM     17  O   UNL     1       5.127   7.100  16.219  0.00  0.00    +0.000 OA
ATOM     18  C   UNL     1       5.217   6.558  14.912  0.00  0.00    +0.000 C 
ENDBRANCH  16  17
ENDBRANCH   2  10
BRANCH   1  22
ATOM     19  C   UNL     1       1.301   9.429  18.997  0.00  0.00    +0.000 A 
ATOM     20  C   UNL     1       1.873   8.820  17.870  0.00  0.00    +0.000 A 
ATOM     21  C   UNL     1       2.441   7.546  17.948  0.00  0.00    +0.000 A 
ATOM     22  C   UNL     1       2.476   6.854  19.163  0.00  0.00    +0.000 A 
ATOM     23  C   UNL     1       1.963   7.512  20.297  0.00  0.00    +0.000 A 
ATOM     24  C   UNL     1       1.402   8.797  20.239  0.00  0.00    +0.000 A 
BRANCH  19  26
ATOM     25  C   UNL     1      -0.700  10.568  18.500  0.00  0.00    +0.000 C 
ATOM     26  O   UNL     1       0.673  10.641  18.888  0.00  0.00    +0.000 OA
ENDBRANCH  19  26
BRANCH  24  27
ATOM     27  O   UNL     1       1.004   9.238  21.473  0.00  0.00    +0.000 OA
ATOM     28  C   UNL     1      -0.321   8.979  21.904  0.00  0.00    +0.000 C 
ENDBRANCH  24  27
ENDBRANCH   1  22
TORSDOF 5
ENDMDL
MODEL 3
REMARK VINA RESULT:      -8.2      0.905      1.091
REMARK  Name = 
REMARK  8 active torsions:
REMARK  status: ('A' for Active; 'I' for Inactive)
REMARK    1  A    between atoms: C_1  and  O_2
REMARK    2  A    between atoms: O_2  and  C_3
REMARK    3  A    between atoms: C_6  and  C_7
REMARK    4  A    between atoms: N_8  and  C_9
REMARK    5  A    between atoms: C_15  and  O_16
REMARK    6  A    between atoms: O_16  and  C_17
REMARK    7  A    between atoms: C_26  and  O_27
REMARK    8  A    between atoms: O_27  and  C_28
REMARK                            x       y       z     vdW  Elec       q    Type
REMARK                         _______ _______ _______ _____ _____    ______ ____
ROOT
ATOM      1  C   UNL     1       2.570   5.420  19.562  0.00  0.00    +0.000 C 
ATOM      2  N   UNL     1       3.016   4.740  18.372  0.00  0.00    +0.000 N 
ATOM      3  C   UNL     1       2.121   3.790  17.926  0.00  0.00    +0.000 C 
ATOM      4  O   UNL     1       2.234   3.038  16.972  0.00  0.00    +0.000 OA
ATOM      5  C   UNL     1       0.956   3.807  18.897  0.00  0.00    +0.000 C 
ATOM      6  C   UNL     1       0.726   2.420  19.468  0.00  0.00    +0.000 C 
ATOM      7  C   UNL     1       1.730   2.363  20.602  0.00  0.00    +0.000 C 
ATOM      8  C   UNL     1       1.662   3.773  21.165  0.00  0.00    +0.000 C 
ATOM      9  N   UNL     1       1.385   4.666  20.033  0.00  0.00    +0.000 NA
ENDROOT
BRANCH   2  10
ATOM     10  C   UNL     1       4.343   4.813  17.908  0.00  0.00    +0.000 A 
ATOM     11  C   UNL     1       4.548   5.224  16.579  0.00  0.00    +0.000 A 
ATOM     12  C   UNL     1       5.815   5.179  16.009  0.00  0.00    +0.000 A 
ATOM     13 CL   UNL     1       6.043   5.635  14.366  0.00  0.00    +0.000 Cl
ATOM     14  C   UNL     1       6.903   4.730  16.752  0.00  0.00    +0.000 A 
ATOM     15  C   UNL     1       6.711   4.321  18.072  0.00  0.00    +0.000 A 
ATOM     16  C   UNL     1       5.439   4.360  18.666  0.00  0.00    +0.000 A 
BRANCH  16  17
ATOM     17  O   UNL     1       5.432   3.759  19.897  0.00  0.00    +0.000 OA
ATOM     18  C   UNL     1       4.936   2.435  20.008  0.00  0.00    +0.000 C 
ENDBRANCH  16  17
ENDBRANCH   2  10
BRANCH   1  22
ATOM     19  C   UNL     1       1.549   9.595  18.805  0.00  0.00    +0.000 A 
ATOM     20  C   UNL     1       2.153   8.823  17.801  0.00  0.00    +0.000 A 
ATOM     21  C   UNL     1       2.482   7.483  18.020  0.00  0.00    +0.000 A 
ATOM     22  C   UNL     1       2.241   6.883  19.260  0.00  0.00    +0.000 A 
ATOM     23  C   UNL     1       1.702   7.694  20.277  0.00  0.00    +0.000 A 
ATOM     24  C   UNL     1       1.378   9.045  20.078  0.00  0.00    +0.000 A 
BRANCH  19  26
ATOM     25  C   UNL     1       2.218  11.783  18.245  0.00  0.00    +0.000 C 
ATOM     26  O   UNL     1       1.154  10.881  18.550  0.00  0.00    +0.000 OA
ENDBRANCH  19  26
BRANCH  24  27
ATOM     27  O   UNL     1       0.903   9.631  21.220  0.00  0.00    +0.000 OA
ATOM     28  C   UNL     1      -0.186   9.031  21.902  0.00  0.00    +0.000 C 
ENDBRANCH  24  27
ENDBRANCH   1  22
TORSDOF 5
ENDMDL
MODEL 4
REMARK VINA RESULT:      -7.6      1.768      1.968
REMARK  Name = 
REMARK  8 active torsions:
REMARK  status: ('A' for Active; 'I' for Inactive)
REMARK    1  A    between atoms: C_1  and  O_2
REMARK    2  A    between atoms: O_2  and  C_3
REMARK    3  A    between atoms: C_6  and  C_7
REMARK    4  A    between atoms: N_8  and  C_9
REMARK    5  A    between atoms: C_15  and  O_16
REMARK    6  A    between atoms: O_16  and  C_17
REMARK    7  A    between atoms: C_26  and  O_27
REMARK    8  A    between atoms: O_27  and  C_28
REMARK                            x       y       z     vdW  Elec       q    Type
REMARK                         _______ _______ _______ _____ _____    ______ ____
ROOT
ATOM      1  C   UNL     1       2.428   5.563  19.562  0.00  0.00    +0.000 C 
ATOM      2  N   UNL     1       3.292   5.065  18.522  0.00  0.00    +0.000 N 
ATOM      3  C   UNL     1       2.677   4.139  17.706  0.00  0.00    +0.000 C 
ATOM      4  O   UNL     1       3.157   3.522  16.770  0.00  0.00    +0.000 OA
ATOM      5  C   UNL     1       1.263   3.974  18.233  0.00  0.00    +0.000 C 
ATOM      6  C   UNL     1       0.984   2.516  18.545  0.00  0.00    +0.000 C 
ATOM      7  C   UNL     1       1.570   2.361  19.935  0.00  0.00    +0.000 C 
ATOM      8  C   UNL     1       1.200   3.682  20.589  0.00  0.00    +0.000 C 
ATOM      9  N   UNL     1       1.226   4.699  19.531  0.00  0.00    +0.000 NA
ENDROOT
BRANCH   2  10
ATOM     10  C   UNL     1       4.686   5.261  18.534  0.00  0.00    +0.000 A 
ATOM     11  C   UNL     1       5.178   6.480  18.033  0.00  0.00    +0.000 A 
ATOM     12  C   UNL     1       6.544   6.684  17.877  0.00  0.00    +0.000 A 
ATOM     13 CL   UNL     1       7.130   8.159  17.213  0.00  0.00    +0.000 Cl
ATOM     14  C   UNL     1       7.447   5.682  18.223  0.00  0.00    +0.000 A 
ATOM     15  C   UNL     1       6.970   4.471  18.723  0.00  0.00    +0.000 A 
ATOM     16  C   UNL     1       5.593   4.246  18.889  0.00  0.00    +0.000 A 
BRANCH  16  17
ATOM     17  O   UNL     1       5.326   2.945  19.224  0.00  0.00    +0.000 OA
ATOM     18  C   UNL     1       4.766   2.669  20.498  0.00  0.00    +0.000 C 
ENDBRANCH  16  17
ENDBRANCH   2  10
BRANCH   1  22
ATOM     19  C   UNL     1       1.382   9.763  18.999  0.00  0.00    +0.000 A 
ATOM     20  C   UNL     1       1.877   9.009  17.924  0.00  0.00    +0.000 A 
ATOM     21  C   UNL     1       2.211   7.662  18.081  0.00  0.00    +0.000 A 
ATOM     22  C   UNL     1       2.087   7.036  19.325  0.00  0.00    +0.000 A 
ATOM     23  C   UNL     1       1.659   7.828  20.407  0.00  0.00    +0.000 A 
ATOM     24  C   UNL     1       1.331   9.186  20.271  0.00  0.00    +0.000 A 
BRANCH  19  26
ATOM     25  C   UNL     1      -0.431  11.223  18.643  0.00  0.00    +0.000 C 
ATOM     26  O   UNL     1       0.977  11.057  18.812  0.00  0.00    +0.000 OA
ENDBRANCH  19  26
BRANCH  24  27
ATOM     27  O   UNL     1       0.977   9.750  21.467  0.00  0.00    +0.000 OA
ATOM     28  C   UNL     1      -0.067   9.161  22.224  0.00  0.00    +0.000 C 
ENDBRANCH  24  27
ENDBRANCH   1  22
TORSDOF 5
ENDMDL
MODEL 5
REMARK VINA RESULT:      -7.6      2.230      4.416
REMARK  Name = 
REMARK  8 active torsions:
REMARK  status: ('A' for Active; 'I' for Inactive)
REMARK    1  A    between atoms: C_1  and  O_2
REMARK    2  A    between atoms: O_2  and  C_3
REMARK    3  A    between atoms: C_6  and  C_7
REMARK    4  A    between atoms: N_8  and  C_9
REMARK    5  A    between atoms: C_15  and  O_16
REMARK    6  A    between atoms: O_16  and  C_17
REMARK    7  A    between atoms: C_26  and  O_27
REMARK    8  A    between atoms: O_27  and  C_28
REMARK                            x       y       z     vdW  Elec       q    Type
REMARK                         _______ _______ _______ _____ _____    ______ ____
ROOT
ATOM      1  C   UNL     1       3.666   6.504  17.639  0.00  0.00    +0.000 C 
ATOM      2  N   UNL     1       3.944   5.466  18.599  0.00  0.00    +0.000 N 
ATOM      3  C   UNL     1       5.250   5.476  19.041  0.00  0.00    +0.000 C 
ATOM      4  O   UNL     1       5.788   4.708  19.822  0.00  0.00    +0.000 OA
ATOM      5  C   UNL     1       5.941   6.616  18.317  0.00  0.00    +0.000 C 
ATOM      6  C   UNL     1       7.165   6.107  17.579  0.00  0.00    +0.000 C 
ATOM      7  C   UNL     1       6.573   5.583  16.286  0.00  0.00    +0.000 C 
ATOM      8  C   UNL     1       5.496   6.612  15.983  0.00  0.00    +0.000 C 
ATOM      9  N   UNL     1       4.982   7.077  17.277  0.00  0.00    +0.000 NA
ENDROOT
BRANCH   2  10
ATOM     10  C   UNL     1       3.076   4.379  18.817  0.00  0.00    +0.000 A 
ATOM     11  C   UNL     1       2.623   4.160  20.130  0.00  0.00    +0.000 A 
ATOM     12  C   UNL     1       1.884   3.025  20.446  0.00  0.00    +0.000 A 
ATOM     13 CL   UNL     1       1.381   2.741  22.067  0.00  0.00    +0.000 Cl
ATOM     14  C   UNL     1       1.577   2.091  19.460  0.00  0.00    +0.000 A 
ATOM     15  C   UNL     1       2.020   2.300  18.154  0.00  0.00    +0.000 A 
ATOM     16  C   UNL     1       2.766   3.442  17.816  0.00  0.00    +0.000 A 
BRANCH  16  17
ATOM     17  O   UNL     1       3.248   3.374  16.535  0.00  0.00    +0.000 OA
ATOM     18  C   UNL     1       4.600   2.996  16.333  0.00  0.00    +0.000 C 
ENDBRANCH  16  17
ENDBRANCH   2  10
BRANCH   1  22
ATOM     19  C   UNL     1       0.938   9.406  19.423  0.00  0.00    +0.000 A 
ATOM     20  C   UNL     1       1.374   9.569  18.100  0.00  0.00    +0.000 A 
ATOM     21  C   UNL     1       2.242   8.648  17.507  0.00  0.00    +0.000 A 
ATOM     22  C   UNL     1       2.721   7.552  18.231  0.00  0.00    +0.000 A 
ATOM     23  C   UNL     1       2.330   7.447  19.579  0.00  0.00    +0.000 A 
ATOM     24  C   UNL     1       1.470   8.369  20.194  0.00  0.00    +0.000 A 
BRANCH  19  26
ATOM     25  C   UNL     1      -1.055  10.616  19.092  0.00  0.00    +0.000 C 
ATOM     26  O   UNL     1       0.021  10.267  19.963  0.00  0.00    +0.000 OA
ENDBRANCH  19  26
BRANCH  24  27
ATOM     27  O   UNL     1       1.264   8.076  21.515  0.00  0.00    +0.000 OA
ATOM     28  C   UNL     1       1.422   9.101  22.482  0.00  0.00    +0.000 C 
ENDBRANCH  24  27
ENDBRANCH   1  22
TORSDOF 5
ENDMDL
MODEL 6
REMARK VINA RESULT:      -7.6      2.249      4.668
REMARK  Name = 
REMARK  8 active torsions:
REMARK  status: ('A' for Active; 'I' for Inactive)
REMARK    1  A    between atoms: C_1  and  O_2
REMARK    2  A    between atoms: O_2  and  C_3
REMARK    3  A    between atoms: C_6  and  C_7
REMARK    4  A    between atoms: N_8  and  C_9
REMARK    5  A    between atoms: C_15  and  O_16
REMARK    6  A    between atoms: O_16  and  C_17
REMARK    7  A    between atoms: C_26  and  O_27
REMARK    8  A    between atoms: O_27  and  C_28
REMARK                            x       y       z     vdW  Elec       q    Type
REMARK                         _______ _______ _______ _____ _____    ______ ____
ROOT
ATOM      1  C   UNL     1       3.307   6.559  17.913  0.00  0.00    +0.000 C 
ATOM      2  N   UNL     1       3.748   5.409  18.661  0.00  0.00    +0.000 N 
ATOM      3  C   UNL     1       5.106   5.408  18.897  0.00  0.00    +0.000 C 
ATOM      4  O   UNL     1       5.771   4.560  19.469  0.00  0.00    +0.000 OA
ATOM      5  C   UNL     1       5.657   6.663  18.247  0.00  0.00    +0.000 C 
ATOM      6  C   UNL     1       6.760   6.307  17.267  0.00  0.00    +0.000 C 
ATOM      7  C   UNL     1       5.983   5.945  16.017  0.00  0.00    +0.000 C 
ATOM      8  C   UNL     1       4.856   6.965  16.031  0.00  0.00    +0.000 C 
ATOM      9  N   UNL     1       4.541   7.227  17.441  0.00  0.00    +0.000 NA
ENDROOT
BRANCH   2  10
ATOM     10  C   UNL     1       2.941   4.271  18.851  0.00  0.00    +0.000 A 
ATOM     11  C   UNL     1       2.484   4.005  20.154  0.00  0.00    +0.000 A 
ATOM     12  C   UNL     1       1.808   2.825  20.443  0.00  0.00    +0.000 A 
ATOM     13 CL   UNL     1       1.302   2.487  22.052  0.00  0.00    +0.000 Cl
ATOM     14  C   UNL     1       1.570   1.890  19.439  0.00  0.00    +0.000 A 
ATOM     15  C   UNL     1       2.017   2.145  18.143  0.00  0.00    +0.000 A 
ATOM     16  C   UNL     1       2.700   3.333  17.832  0.00  0.00    +0.000 A 
BRANCH  16  17
ATOM     17  O   UNL     1       3.201   3.312  16.557  0.00  0.00    +0.000 OA
ATOM     18  C   UNL     1       4.568   2.981  16.365  0.00  0.00    +0.000 C 
ENDBRANCH  16  17
ENDBRANCH   2  10
BRANCH   1  22
ATOM     19  C   UNL     1       0.871   9.277  20.306  0.00  0.00    +0.000 A 
ATOM     20  C   UNL     1       1.475   8.160  20.903  0.00  0.00    +0.000 A 
ATOM     21  C   UNL     1       2.264   7.281  20.157  0.00  0.00    +0.000 A 
ATOM     22  C   UNL     1       2.449   7.479  18.784  0.00  0.00    +0.000 A 
ATOM     23  C   UNL     1       1.776   8.563  18.191  0.00  0.00    +0.000 A 
ATOM     24  C   UNL     1       0.968   9.448  18.922  0.00  0.00    +0.000 A 
BRANCH  19  26
ATOM     25  C   UNL     1      -0.166   9.719  22.374  0.00  0.00    +0.000 C 
ATOM     26  O   UNL     1       0.172  10.177  21.064  0.00  0.00    +0.000 OA
ENDBRANCH  19  26
BRANCH  24  27
ATOM     27  O   UNL     1       0.394  10.397  18.122  0.00  0.00    +0.000 OA
ATOM     28  C   UNL     1      -0.988  10.300  17.819  0.00  0.00    +0.000 C 
ENDBRANCH  24  27
ENDBRANCH   1  22
TORSDOF 5
ENDMDL
MODEL 7
REMARK VINA RESULT:      -7.5      2.150      3.113
REMARK  Name = 
REMARK  8 active torsions:
REMARK  status: ('A' for Active; 'I' for Inactive)
REMARK    1  A    between atoms: C_1  and  O_2
REMARK    2  A    between atoms: O_2  and  C_3
REMARK    3  A    between atoms: C_6  and  C_7
REMARK    4  A    between atoms: N_8  and  C_9
REMARK    5  A    between atoms: C_15  and  O_16
REMARK    6  A    between atoms: O_16  and  C_17
REMARK    7  A    between atoms: C_26  and  O_27
REMARK    8  A    between atoms: O_27  and  C_28
REMARK                            x       y       z     vdW  Elec       q    Type
REMARK                         _______ _______ _______ _____ _____    ______ ____
ROOT
ATOM      1  C   UNL     1       3.187   5.027  19.499  0.00  0.00    +0.000 C 
ATOM      2  N   UNL     1       3.987   5.013  18.300  0.00  0.00    +0.000 N 
ATOM      3  C   UNL     1       3.476   4.188  17.320  0.00  0.00    +0.000 C 
ATOM      4  O   UNL     1       3.944   3.946  16.220  0.00  0.00    +0.000 OA
ATOM      5  C   UNL     1       2.217   3.567  17.894  0.00  0.00    +0.000 C 
ATOM      6  C   UNL     1       2.300   2.054  17.832  0.00  0.00    +0.000 C 
ATOM      7  C   UNL     1       3.090   1.719  19.082  0.00  0.00    +0.000 C 
ATOM      8  C   UNL     1       2.541   2.716  20.088  0.00  0.00    +0.000 C 
ATOM      9  N   UNL     1       2.204   3.932  19.336  0.00  0.00    +0.000 NA
ENDROOT
BRANCH   2  10
ATOM     10  C   UNL     1       5.295   5.531  18.254  0.00  0.00    +0.000 A 
ATOM     11  C   UNL     1       6.182   5.156  19.279  0.00  0.00    +0.000 A 
ATOM     12  C   UNL     1       7.439   5.741  19.379  0.00  0.00    +0.000 A 
ATOM     13 CL   UNL     1       8.494   5.311  20.669  0.00  0.00    +0.000 Cl
ATOM     14  C   UNL     1       7.840   6.705  18.459  0.00  0.00    +0.000 A 
ATOM     15  C   UNL     1       6.969   7.083  17.438  0.00  0.00    +0.000 A 
ATOM     16  C   UNL     1       5.695   6.503  17.318  0.00  0.00    +0.000 A 
BRANCH  16  17
ATOM     17  O   UNL     1       4.937   7.129  16.365  0.00  0.00    +0.000 OA
ATOM     18  C   UNL     1       5.155   6.811  15.000  0.00  0.00    +0.000 C 
ENDBRANCH  16  17
ENDBRANCH   2  10
BRANCH   1  22
ATOM     19  C   UNL     1       1.336   8.955  19.934  0.00  0.00    +0.000 A 
ATOM     20  C   UNL     1       1.234   8.009  20.965  0.00  0.00    +0.000 A 
ATOM     21  C   UNL     1       1.824   6.748  20.849  0.00  0.00    +0.000 A 
ATOM     22  C   UNL     1       2.511   6.387  19.686  0.00  0.00    +0.000 A 
ATOM     23  C   UNL     1       2.540   7.323  18.635  0.00  0.00    +0.000 A 
ATOM     24  C   UNL     1       1.941   8.589  18.729  0.00  0.00    +0.000 A 
BRANCH  19  26
ATOM     25  C   UNL     1      -0.462  10.266  20.707  0.00  0.00    +0.000 C 
ATOM     26  O   UNL     1       0.828  10.216  20.095  0.00  0.00    +0.000 OA
ENDBRANCH  19  26
BRANCH  24  27
ATOM     27  O   UNL     1       2.071   9.305  17.570  0.00  0.00    +0.000 OA
ATOM     28  C   UNL     1       2.406  10.680  17.642  0.00  0.00    +0.000 C 
ENDBRANCH  24  27
ENDBRANCH   1  22
TORSDOF 5
ENDMDL
MODEL 8
REMARK VINA RESULT:      -7.0      6.610      9.288
REMARK  Name = 
REMARK  8 active torsions:
REMARK  status: ('A' for Active; 'I' for Inactive)
REMARK    1  A    between atoms: C_1  and  O_2
REMARK    2  A    between atoms: O_2  and  C_3
REMARK    3  A    between atoms: C_6  and  C_7
REMARK    4  A    between atoms: N_8  and  C_9
REMARK    5  A    between atoms: C_15  and  O_16
REMARK    6  A    between atoms: O_16  and  C_17
REMARK    7  A    between atoms: C_26  and  O_27
REMARK    8  A    between atoms: O_27  and  C_28
REMARK                            x       y       z     vdW  Elec       q    Type
REMARK                         _______ _______ _______ _____ _____    ______ ____
ROOT
ATOM      1  C   UNL     1      -0.266  12.312  19.186  0.00  0.00    +0.000 C 
ATOM      2  N   UNL     1       0.012  12.378  20.598  0.00  0.00    +0.000 N 
ATOM      3  C   UNL     1       0.478  13.613  20.999  0.00  0.00    +0.000 C 
ATOM      4  O   UNL     1       0.826  13.961  22.115  0.00  0.00    +0.000 OA
ATOM      5  C   UNL     1       0.536  14.476  19.753  0.00  0.00    +0.000 C 
ATOM      6  C   UNL     1       1.934  15.036  19.565  0.00  0.00    +0.000 C 
ATOM      7  C   UNL     1       2.651  13.898  18.867  0.00  0.00    +0.000 C 
ATOM      8  C   UNL     1       1.580  13.368  17.929  0.00  0.00    +0.000 C 
ATOM      9  N   UNL     1       0.292  13.556  18.609  0.00  0.00    +0.000 NA
ENDROOT
BRANCH   2  10
ATOM     10  C   UNL     1       0.100  11.231  21.410  0.00  0.00    +0.000 A 
ATOM     11  C   UNL     1       0.715  10.091  20.863  0.00  0.00    +0.000 A 
ATOM     12  C   UNL     1       0.707   8.882  21.549  0.00  0.00    +0.000 A 
ATOM     13 CL   UNL     1       1.417   7.481  20.845  0.00  0.00    +0.000 Cl
ATOM     14  C   UNL     1       0.093   8.786  22.794  0.00  0.00    +0.000 A 
ATOM     15  C   UNL     1      -0.519   9.912  23.347  0.00  0.00    +0.000 A 
ATOM     16  C   UNL     1      -0.520  11.143  22.669  0.00  0.00    +0.000 A 
BRANCH  16  17
ATOM     17  O   UNL     1      -1.314  12.067  23.294  0.00  0.00    +0.000 OA
ATOM     18  C   UNL     1      -2.712  11.835  23.360  0.00  0.00    +0.000 C 
ENDBRANCH  16  17
ENDBRANCH   2  10
BRANCH   1  22
ATOM     19  C   UNL     1      -4.531  11.936  18.336  0.00  0.00    +0.000 A 
ATOM     20  C   UNL     1      -4.099  12.430  19.576  0.00  0.00    +0.000 A 
ATOM     21  C   UNL     1      -2.739  12.565  19.867  0.00  0.00    +0.000 A 
ATOM     22  C   UNL     1      -1.770  12.183  18.934  0.00  0.00    +0.000 A 
ATOM     23  C   UNL     1      -2.222  11.622  17.724  0.00  0.00    +0.000 A 
ATOM     24  C   UNL     1      -3.584  11.467  17.421  0.00  0.00    +0.000 A 
BRANCH  19  26
ATOM     25  C   UNL     1      -6.349  13.017  17.300  0.00  0.00    +0.000 C 
ATOM     26  O   UNL     1      -5.865  11.891  18.032  0.00  0.00    +0.000 OA
ENDBRANCH  19  26
BRANCH  24  27
ATOM     27  O   UNL     1      -3.773  10.868  16.206  0.00  0.00    +0.000 OA
ATOM     28  C   UNL     1      -2.674  10.240  15.568  0.00  0.00    +0.000 C 
ENDBRANCH  24  27
ENDBRANCH   1  22
TORSDOF 5
ENDMDL
MODEL 9
REMARK VINA RESULT:      -7.0      4.491      8.712
REMARK  Name = 
REMARK  8 active torsions:
REMARK  status: ('A' for Active; 'I' for Inactive)
REMARK    1  A    between atoms: C_1  and  O_2
REMARK    2  A    between atoms: O_2  and  C_3
REMARK    3  A    between atoms: C_6  and  C_7
REMARK    4  A    between atoms: N_8  and  C_9
REMARK    5  A    between atoms: C_15  and  O_16
REMARK    6  A    between atoms: O_16  and  C_17
REMARK    7  A    between atoms: C_26  and  O_27
REMARK    8  A    between atoms: O_27  and  C_28
REMARK                            x       y       z     vdW  Elec       q    Type
REMARK                         _______ _______ _______ _____ _____    ______ ____
ROOT
ATOM      1  C   UNL     1      -0.179  10.933  20.041  0.00  0.00    +0.000 C 
ATOM      2  N   UNL     1      -0.737  11.741  18.987  0.00  0.00    +0.000 N 
ATOM      3  C   UNL     1      -0.197  13.009  18.936  0.00  0.00    +0.000 C 
ATOM      4  O   UNL     1      -0.488  13.922  18.182  0.00  0.00    +0.000 OA
ATOM      5  C   UNL     1       0.818  13.090  20.061  0.00  0.00    +0.000 C 
ATOM      6  C   UNL     1       0.502  14.260  20.973  0.00  0.00    +0.000 C 
ATOM      7  C   UNL     1      -0.548  13.679  21.899  0.00  0.00    +0.000 C 
ATOM      8  C   UNL     1      -0.037  12.264  22.117  0.00  0.00    +0.000 C 
ATOM      9  N   UNL     1       0.625  11.858  20.872  0.00  0.00    +0.000 NA
ENDROOT
BRANCH   2  10
ATOM     10  C   UNL     1      -1.913  11.387  18.298  0.00  0.00    +0.000 A 
ATOM     11  C   UNL     1      -1.774  10.830  17.014  0.00  0.00    +0.000 A 
ATOM     12  C   UNL     1      -2.890  10.593  16.219  0.00  0.00    +0.000 A 
ATOM     13 CL   UNL     1      -2.703   9.961  14.630  0.00  0.00    +0.000 Cl
ATOM     14  C   UNL     1      -4.164  10.899  16.689  0.00  0.00    +0.000 A 
ATOM     15  C   UNL     1      -4.313  11.449  17.962  0.00  0.00    +0.000 A 
ATOM     16  C   UNL     1      -3.198  11.695  18.781  0.00  0.00    +0.000 A 
BRANCH  16  17
ATOM     17  O   UNL     1      -3.538  12.392  19.910  0.00  0.00    +0.000 OA
ATOM     18  C   UNL     1      -4.891  12.780  20.091  0.00  0.00    +0.000 C 
ENDBRANCH  16  17
ENDBRANCH   2  10
BRANCH   1  22
ATOM     19  C   UNL     1       2.262   7.651  18.520  0.00  0.00    +0.000 A 
ATOM     20  C   UNL     1       1.839   8.673  17.658  0.00  0.00    +0.000 A 
ATOM     21  C   UNL     1       1.062   9.737  18.125  0.00  0.00    +0.000 A 
ATOM     22  C   UNL     1       0.663   9.793  19.464  0.00  0.00    +0.000 A 
ATOM     23  C   UNL     1       1.036   8.721  20.296  0.00  0.00    +0.000 A 
ATOM     24  C   UNL     1       1.805   7.638  19.840  0.00  0.00    +0.000 A 
BRANCH  19  26
ATOM     25  C   UNL     1       4.252   7.126  17.375  0.00  0.00    +0.000 C 
ATOM     26  O   UNL     1       3.094   6.661  18.068  0.00  0.00    +0.000 OA
ENDBRANCH  19  26
BRANCH  24  27
ATOM     27  O   UNL     1       2.009   6.706  20.821  0.00  0.00    +0.000 OA
ATOM     28  C   UNL     1       1.541   5.383  20.623  0.00  0.00    +0.000 C 
ENDBRANCH  24  27
ENDBRANCH   1  22
TORSDOF 5
ENDMDL
