MODEL 1
REMARK VINA RESULT:      -6.6      0.000      0.000
REMARK  Name = 
REMARK  7 active torsions:
REMARK  status: ('A' for Active; 'I' for Inactive)
REMARK    1  A    between atoms: C_1  and  O_2
REMARK    2  A    between atoms: O_2  and  C_3
REMARK    3  A    between atoms: C_7  and  C_8
REMARK    4  A    between atoms: C_8  and  C_10
REMARK    5  A    between atoms: C_10  and  S_11
REMARK    6  A    between atoms: S_11  and  C_12
REMARK    7  A    between atoms: C_15  and  C_16
REMARK                            x       y       z     vdW  Elec       q    Type
REMARK                         _______ _______ _______ _____ _____    ______ ____
ROOT
ATOM      1  C   UNL     1       4.342   6.242  17.888  0.00  0.00    +0.000 C 
ATOM      2  O   UNL     1       3.692   7.129  17.336  0.00  0.00    +0.000 OA
ENDROOT
BRANCH   1   7
ATOM      3  C   UNL     1       2.916   3.420  20.001  0.00  0.00    +0.000 A 
ATOM      4  C   UNL     1       2.325   2.645  18.998  0.00  0.00    +0.000 A 
ATOM      5  C   UNL     1       2.385   3.038  17.662  0.00  0.00    +0.000 A 
ATOM      6  C   UNL     1       3.045   4.214  17.319  0.00  0.00    +0.000 A 
ATOM      7  C   UNL     1       3.629   5.006  18.314  0.00  0.00    +0.000 A 
ATOM      8  C   UNL     1       3.564   4.612  19.658  0.00  0.00    +0.000 A 
BRANCH   3  10
ATOM      9  C   UNL     1       1.497   2.568  21.716  0.00  0.00    +0.000 C 
ATOM     10  O   UNL     1       2.802   2.896  21.258  0.00  0.00    +0.000 OA
ENDBRANCH   3  10
ENDBRANCH   1   7
BRANCH   1  11
ATOM     11  C   UNL     1       5.836   6.325  18.135  0.00  0.00    +0.000 C 
BRANCH  11  12
ATOM     12  S   UNL     1       6.650   4.723  17.857  0.00  0.00    +0.000 S 
BRANCH  12  13
ATOM     13  C   UNL     1       6.783   4.739  16.113  0.00  0.00    +0.000 A 
ATOM     14  N   UNL     1       7.579   5.568  15.471  0.00  0.00    +0.000 NA
ATOM     15  N   UNL     1       7.557   5.355  14.105  0.00  0.00    +0.000 NA
ATOM     16  C   UNL     1       6.750   4.370  13.772  0.00  0.00    +0.000 A 
ATOM     17  C   UNL     1       6.539   3.870  12.391  0.00  0.00    +0.000 C 
ATOM     18  S   UNL     1       5.932   3.650  15.102  0.00  0.00    +0.000 S 
ENDBRANCH  12  13
ENDBRANCH  11  12
ENDBRANCH   1  11
TORSDOF 5
ENDMDL
MODEL 2
REMARK VINA RESULT:      -6.5      1.287      1.359
REMARK  Name = 
REMARK  7 active torsions:
REMARK  status: ('A' for Active; 'I' for Inactive)
REMARK    1  A    between atoms: C_1  and  O_2
REMARK    2  A    between atoms: O_2  and  C_3
REMARK    3  A    between atoms: C_7  and  C_8
REMARK    4  A    between atoms: C_8  and  C_10
REMARK    5  A    between atoms: C_10  and  S_11
REMARK    6  A    between atoms: S_11  and  C_12
REMARK    7  A    between atoms: C_15  and  C_16
REMARK                            x       y       z     vdW  Elec       q    Type
REMARK                         _______ _______ _______ _____ _____    ______ ____
ROOT
ATOM      1  C   UNL     1       5.233   4.945  18.812  0.00  0.00    +0.000 C 
ATOM      2  O   UNL     1       5.932   4.734  19.802  0.00  0.00    +0.000 OA
ENDROOT
BRANCH   1   7
ATOM      3  C   UNL     1       2.155   2.862  19.616  0.00  0.00    +0.000 A 
ATOM      4  C   UNL     1       1.557   2.821  18.353  0.00  0.00    +0.000 A 
ATOM      5  C   UNL     1       2.141   3.465  17.263  0.00  0.00    +0.000 A 
ATOM      6  C   UNL     1       3.338   4.154  17.432  0.00  0.00    +0.000 A 
ATOM      7  C   UNL     1       3.941   4.215  18.694  0.00  0.00    +0.000 A 
ATOM      8  C   UNL     1       3.350   3.569  19.789  0.00  0.00    +0.000 A 
BRANCH   3  10
ATOM      9  C   UNL     1       1.599   2.616  21.920  0.00  0.00    +0.000 C 
ATOM     10  O   UNL     1       1.484   2.162  20.578  0.00  0.00    +0.000 OA
ENDBRANCH   3  10
ENDBRANCH   1   7
BRANCH   1  11
ATOM     11  C   UNL     1       5.600   5.929  17.718  0.00  0.00    +0.000 C 
BRANCH  11  12
ATOM     12  S   UNL     1       7.320   5.709  17.170  0.00  0.00    +0.000 S 
BRANCH  12  13
ATOM     13  C   UNL     1       7.057   5.178  15.524  0.00  0.00    +0.000 A 
ATOM     14  N   UNL     1       7.769   5.628  14.513  0.00  0.00    +0.000 NA
ATOM     15  N   UNL     1       7.418   5.023  13.321  0.00  0.00    +0.000 NA
ATOM     16  C   UNL     1       6.459   4.136  13.482  0.00  0.00    +0.000 A 
ATOM     17  C   UNL     1       5.891   3.288  12.404  0.00  0.00    +0.000 C 
ATOM     18  S   UNL     1       5.892   3.998  15.099  0.00  0.00    +0.000 S 
ENDBRANCH  12  13
ENDBRANCH  11  12
ENDBRANCH   1  11
TORSDOF 5
ENDMDL
MODEL 3
REMARK VINA RESULT:      -6.5      1.899      2.877
REMARK  Name = 
REMARK  7 active torsions:
REMARK  status: ('A' for Active; 'I' for Inactive)
REMARK    1  A    between atoms: C_1  and  O_2
REMARK    2  A    between atoms: O_2  and  C_3
REMARK    3  A    between atoms: C_7  and  C_8
REMARK    4  A    between atoms: C_8  and  C_10
REMARK    5  A    between atoms: C_10  and  S_11
REMARK    6  A    between atoms: S_11  and  C_12
REMARK    7  A    between atoms: C_15  and  C_16
REMARK                            x       y       z     vdW  Elec       q    Type
REMARK                         _______ _______ _______ _____ _____    ______ ____
ROOT
ATOM      1  C   UNL     1       4.525   3.518  19.052  0.00  0.00    +0.000 C 
ATOM      2  O   UNL     1       5.078   2.724  19.813  0.00  0.00    +0.000 OA
ENDROOT
BRANCH   1   7
ATOM      3  C   UNL     1       2.231   6.376  20.063  0.00  0.00    +0.000 A 
ATOM      4  C   UNL     1       1.172   5.650  20.617  0.00  0.00    +0.000 A 
ATOM      5  C   UNL     1       1.203   4.257  20.655  0.00  0.00    +0.000 A 
ATOM      6  C   UNL     1       2.303   3.579  20.138  0.00  0.00    +0.000 A 
ATOM      7  C   UNL     1       3.363   4.293  19.568  0.00  0.00    +0.000 A 
ATOM      8  C   UNL     1       3.328   5.694  19.528  0.00  0.00    +0.000 A 
BRANCH   3  10
ATOM      9  C   UNL     1       1.234   8.252  21.146  0.00  0.00    +0.000 C 
ATOM     10  O   UNL     1       2.073   7.733  20.123  0.00  0.00    +0.000 OA
ENDBRANCH   3  10
ENDBRANCH   1   7
BRANCH   1  11
ATOM     11  C   UNL     1       4.977   3.771  17.627  0.00  0.00    +0.000 C 
BRANCH  11  12
ATOM     12  S   UNL     1       6.342   4.972  17.563  0.00  0.00    +0.000 S 
BRANCH  12  13
ATOM     13  C   UNL     1       6.706   4.939  15.852  0.00  0.00    +0.000 A 
ATOM     14  N   UNL     1       7.599   5.734  15.303  0.00  0.00    +0.000 NA
ATOM     15  N   UNL     1       7.754   5.485  13.952  0.00  0.00    +0.000 NA
ATOM     16  C   UNL     1       6.975   4.509  13.537  0.00  0.00    +0.000 A 
ATOM     17  C   UNL     1       6.937   3.976  12.152  0.00  0.00    +0.000 C 
ATOM     18  S   UNL     1       5.971   3.841  14.763  0.00  0.00    +0.000 S 
ENDBRANCH  12  13
ENDBRANCH  11  12
ENDBRANCH   1  11
TORSDOF 5
ENDMDL
MODEL 4
REMARK VINA RESULT:      -6.5      3.237      6.665
REMARK  Name = 
REMARK  7 active torsions:
REMARK  status: ('A' for Active; 'I' for Inactive)
REMARK    1  A    between atoms: C_1  and  O_2
REMARK    2  A    between atoms: O_2  and  C_3
REMARK    3  A    between atoms: C_7  and  C_8
REMARK    4  A    between atoms: C_8  and  C_10
REMARK    5  A    between atoms: C_10  and  S_11
REMARK    6  A    between atoms: S_11  and  C_12
REMARK    7  A    between atoms: C_15  and  C_16
REMARK                            x       y       z     vdW  Elec       q    Type
REMARK                         _______ _______ _______ _____ _____    ______ ____
ROOT
ATOM      1  C   UNL     1       6.950   4.883  16.018  0.00  0.00    +0.000 C 
ATOM      2  O   UNL     1       7.899   4.433  16.661  0.00  0.00    +0.000 OA
ENDROOT
BRANCH   1   7
ATOM      3  C   UNL     1       6.115   3.489  12.581  0.00  0.00    +0.000 A 
ATOM      4  C   UNL     1       6.991   4.246  11.796  0.00  0.00    +0.000 A 
ATOM      5  C   UNL     1       7.832   5.195  12.375  0.00  0.00    +0.000 A 
ATOM      6  C   UNL     1       7.803   5.391  13.752  0.00  0.00    +0.000 A 
ATOM      7  C   UNL     1       6.922   4.650  14.548  0.00  0.00    +0.000 A 
ATOM      8  C   UNL     1       6.074   3.698  13.963  0.00  0.00    +0.000 A 
BRANCH   3  10
ATOM      9  C   UNL     1       6.066   1.486  11.290  0.00  0.00    +0.000 C 
ATOM     10  O   UNL     1       5.375   2.579  11.879  0.00  0.00    +0.000 OA
ENDBRANCH   3  10
ENDBRANCH   1   7
BRANCH   1  11
ATOM     11  C   UNL     1       5.795   5.639  16.645  0.00  0.00    +0.000 C 
BRANCH  11  12
ATOM     12  S   UNL     1       5.861   5.576  18.462  0.00  0.00    +0.000 S 
BRANCH  12  13
ATOM     13  C   UNL     1       4.719   4.287  18.771  0.00  0.00    +0.000 A 
ATOM     14  N   UNL     1       5.007   3.254  19.534  0.00  0.00    +0.000 NA
ATOM     15  N   UNL     1       3.932   2.398  19.675  0.00  0.00    +0.000 NA
ATOM     16  C   UNL     1       2.873   2.822  19.018  0.00  0.00    +0.000 A 
ATOM     17  C   UNL     1       1.550   2.150  19.006  0.00  0.00    +0.000 C 
ATOM     18  S   UNL     1       3.123   4.285  18.151  0.00  0.00    +0.000 S 
ENDBRANCH  12  13
ENDBRANCH  11  12
ENDBRANCH   1  11
TORSDOF 5
ENDMDL
MODEL 5
REMARK VINA RESULT:      -6.4      1.442      1.894
REMARK  Name = 
REMARK  7 active torsions:
REMARK  status: ('A' for Active; 'I' for Inactive)
REMARK    1  A    between atoms: C_1  and  O_2
REMARK    2  A    between atoms: O_2  and  C_3
REMARK    3  A    between atoms: C_7  and  C_8
REMARK    4  A    between atoms: C_8  and  C_10
REMARK    5  A    between atoms: C_10  and  S_11
REMARK    6  A    between atoms: S_11  and  C_12
REMARK    7  A    between atoms: C_15  and  C_16
REMARK                            x       y       z     vdW  Elec       q    Type
REMARK                         _______ _______ _______ _____ _____    ______ ____
ROOT
ATOM      1  C   UNL     1       4.643   5.709  18.190  0.00  0.00    +0.000 C 
ATOM      2  O   UNL     1       4.777   6.637  17.393  0.00  0.00    +0.000 OA
ENDROOT
BRANCH   1   7
ATOM      3  C   UNL     1       1.811   4.639  20.491  0.00  0.00    +0.000 A 
ATOM      4  C   UNL     1       1.242   5.886  20.767  0.00  0.00    +0.000 A 
ATOM      5  C   UNL     1       1.774   7.052  20.219  0.00  0.00    +0.000 A 
ATOM      6  C   UNL     1       2.884   6.976  19.383  0.00  0.00    +0.000 A 
ATOM      7  C   UNL     1       3.472   5.735  19.110  0.00  0.00    +0.000 A 
ATOM      8  C   UNL     1       2.937   4.564  19.665  0.00  0.00    +0.000 A 
BRANCH   3  10
ATOM      9  C   UNL     1       1.963   2.604  21.723  0.00  0.00    +0.000 C 
ATOM     10  O   UNL     1       1.165   3.585  21.075  0.00  0.00    +0.000 OA
ENDBRANCH   3  10
ENDBRANCH   1   7
BRANCH   1  11
ATOM     11  C   UNL     1       5.588   4.526  18.271  0.00  0.00    +0.000 C 
BRANCH  11  12
ATOM     12  S   UNL     1       7.245   4.952  17.653  0.00  0.00    +0.000 S 
BRANCH  12  13
ATOM     13  C   UNL     1       6.994   4.766  15.932  0.00  0.00    +0.000 A 
ATOM     14  N   UNL     1       7.653   5.475  15.040  0.00  0.00    +0.000 NA
ATOM     15  N   UNL     1       7.327   5.113  13.746  0.00  0.00    +0.000 NA
ATOM     16  C   UNL     1       6.439   4.141  13.714  0.00  0.00    +0.000 A 
ATOM     17  C   UNL     1       5.917   3.502  12.481  0.00  0.00    +0.000 C 
ATOM     18  S   UNL     1       5.912   3.619  15.265  0.00  0.00    +0.000 S 
ENDBRANCH  12  13
ENDBRANCH  11  12
ENDBRANCH   1  11
TORSDOF 5
ENDMDL
MODEL 6
REMARK VINA RESULT:      -6.4      3.448      6.539
REMARK  Name = 
REMARK  7 active torsions:
REMARK  status: ('A' for Active; 'I' for Inactive)
REMARK    1  A    between atoms: C_1  and  O_2
REMARK    2  A    between atoms: O_2  and  C_3
REMARK    3  A    between atoms: C_7  and  C_8
REMARK    4  A    between atoms: C_8  and  C_10
REMARK    5  A    between atoms: C_10  and  S_11
REMARK    6  A    between atoms: S_11  and  C_12
REMARK    7  A    between atoms: C_15  and  C_16
REMARK                            x       y       z     vdW  Elec       q    Type
REMARK                         _______ _______ _______ _____ _____    ______ ____
ROOT
ATOM      1  C   UNL     1       6.212   4.347  16.027  0.00  0.00    +0.000 C 
ATOM      2  O   UNL     1       6.714   4.189  14.914  0.00  0.00    +0.000 OA
ENDROOT
BRANCH   1   7
ATOM      3  C   UNL     1       7.662   7.519  17.540  0.00  0.00    +0.000 A 
ATOM      4  C   UNL     1       8.141   7.009  18.751  0.00  0.00    +0.000 A 
ATOM      5  C   UNL     1       7.989   5.661  19.070  0.00  0.00    +0.000 A 
ATOM      6  C   UNL     1       7.356   4.808  18.171  0.00  0.00    +0.000 A 
ATOM      7  C   UNL     1       6.859   5.308  16.962  0.00  0.00    +0.000 A 
ATOM      8  C   UNL     1       7.010   6.666  16.644  0.00  0.00    +0.000 A 
BRANCH   3  10
ATOM      9  C   UNL     1       8.566   9.549  18.403  0.00  0.00    +0.000 C 
ATOM     10  O   UNL     1       7.909   8.850  17.354  0.00  0.00    +0.000 OA
ENDBRANCH   3  10
ENDBRANCH   1   7
BRANCH   1  11
ATOM     11  C   UNL     1       4.954   3.637  16.489  0.00  0.00    +0.000 C 
BRANCH  11  12
ATOM     12  S   UNL     1       3.772   4.795  17.245  0.00  0.00    +0.000 S 
BRANCH  12  13
ATOM     13  C   UNL     1       3.349   3.908  18.692  0.00  0.00    +0.000 A 
ATOM     14  N   UNL     1       4.207   3.138  19.327  0.00  0.00    +0.000 NA
ATOM     15  N   UNL     1       3.662   2.587  20.472  0.00  0.00    +0.000 NA
ATOM     16  C   UNL     1       2.416   2.969  20.658  0.00  0.00    +0.000 A 
ATOM     17  C   UNL     1       1.569   2.586  21.815  0.00  0.00    +0.000 C 
ATOM     18  S   UNL     1       1.807   4.006  19.429  0.00  0.00    +0.000 S 
ENDBRANCH  12  13
ENDBRANCH  11  12
ENDBRANCH   1  11
TORSDOF 5
ENDMDL
MODEL 7
REMARK VINA RESULT:      -6.4      3.188      6.760
REMARK  Name = 
REMARK  7 active torsions:
REMARK  status: ('A' for Active; 'I' for Inactive)
REMARK    1  A    between atoms: C_1  and  O_2
REMARK    2  A    between atoms: O_2  and  C_3
REMARK    3  A    between atoms: C_7  and  C_8
REMARK    4  A    between atoms: C_8  and  C_10
REMARK    5  A    between atoms: C_10  and  S_11
REMARK    6  A    between atoms: S_11  and  C_12
REMARK    7  A    between atoms: C_15  and  C_16
REMARK                            x       y       z     vdW  Elec       q    Type
REMARK                         _______ _______ _______ _____ _____    ______ ____
ROOT
ATOM      1  C   UNL     1       6.055   5.293  15.865  0.00  0.00    +0.000 C 
ATOM      2  O   UNL     1       5.711   6.461  16.038  0.00  0.00    +0.000 OA
ENDROOT
BRANCH   1   7
ATOM      3  C   UNL     1       5.878   3.509  12.512  0.00  0.00    +0.000 A 
ATOM      4  C   UNL     1       7.029   4.022  11.906  0.00  0.00    +0.000 A 
ATOM      5  C   UNL     1       7.843   4.935  12.575  0.00  0.00    +0.000 A 
ATOM      6  C   UNL     1       7.509   5.339  13.864  0.00  0.00    +0.000 A 
ATOM      7  C   UNL     1       6.352   4.845  14.476  0.00  0.00    +0.000 A 
ATOM      8  C   UNL     1       5.532   3.929  13.800  0.00  0.00    +0.000 A 
BRANCH   3  10
ATOM      9  C   UNL     1       3.996   3.041  11.126  0.00  0.00    +0.000 C 
ATOM     10  O   UNL     1       5.197   2.604  11.747  0.00  0.00    +0.000 OA
ENDBRANCH   3  10
ENDBRANCH   1   7
BRANCH   1  11
ATOM     11  C   UNL     1       6.222   4.290  16.990  0.00  0.00    +0.000 C 
BRANCH  11  12
ATOM     12  S   UNL     1       6.122   5.091  18.620  0.00  0.00    +0.000 S 
BRANCH  12  13
ATOM     13  C   UNL     1       4.760   4.235  19.306  0.00  0.00    +0.000 A 
ATOM     14  N   UNL     1       4.833   2.976  19.684  0.00  0.00    +0.000 NA
ATOM     15  N   UNL     1       3.650   2.535  20.247  0.00  0.00    +0.000 NA
ATOM     16  C   UNL     1       2.734   3.480  20.277  0.00  0.00    +0.000 A 
ATOM     17  C   UNL     1       1.375   3.334  20.856  0.00  0.00    +0.000 C 
ATOM     18  S   UNL     1       3.241   4.971  19.588  0.00  0.00    +0.000 S 
ENDBRANCH  12  13
ENDBRANCH  11  12
ENDBRANCH   1  11
TORSDOF 5
ENDMDL
MODEL 8
REMARK VINA RESULT:      -6.3      2.578      4.409
REMARK  Name = 
REMARK  7 active torsions:
REMARK  status: ('A' for Active; 'I' for Inactive)
REMARK    1  A    between atoms: C_1  and  O_2
REMARK    2  A    between atoms: O_2  and  C_3
REMARK    3  A    between atoms: C_7  and  C_8
REMARK    4  A    between atoms: C_8  and  C_10
REMARK    5  A    between atoms: C_10  and  S_11
REMARK    6  A    between atoms: S_11  and  C_12
REMARK    7  A    between atoms: C_15  and  C_16
REMARK                            x       y       z     vdW  Elec       q    Type
REMARK                         _______ _______ _______ _____ _____    ______ ____
ROOT
ATOM      1  C   UNL     1       2.675   3.721  17.972  0.00  0.00    +0.000 C 
ATOM      2  O   UNL     1       1.721   3.127  17.471  0.00  0.00    +0.000 OA
ENDROOT
BRANCH   1   7
ATOM      3  C   UNL     1       2.371   7.465  18.557  0.00  0.00    +0.000 A 
ATOM      4  C   UNL     1       1.997   7.468  19.905  0.00  0.00    +0.000 A 
ATOM      5  C   UNL     1       1.842   6.274  20.606  0.00  0.00    +0.000 A 
ATOM      6  C   UNL     1       2.065   5.062  19.960  0.00  0.00    +0.000 A 
ATOM      7  C   UNL     1       2.426   5.044  18.607  0.00  0.00    +0.000 A 
ATOM      8  C   UNL     1       2.578   6.247  17.903  0.00  0.00    +0.000 A 
BRANCH   3  10
ATOM      9  C   UNL     1       1.456   9.639  18.211  0.00  0.00    +0.000 C 
ATOM     10  O   UNL     1       2.513   8.710  18.011  0.00  0.00    +0.000 OA
ENDBRANCH   3  10
ENDBRANCH   1   7
BRANCH   1  11
ATOM     11  C   UNL     1       4.086   3.168  18.003  0.00  0.00    +0.000 C 
BRANCH  11  12
ATOM     12  S   UNL     1       5.037   3.679  16.539  0.00  0.00    +0.000 S 
BRANCH  12  13
ATOM     13  C   UNL     1       6.112   4.856  17.259  0.00  0.00    +0.000 A 
ATOM     14  N   UNL     1       7.013   4.532  18.162  0.00  0.00    +0.000 NA
ATOM     15  N   UNL     1       7.781   5.618  18.542  0.00  0.00    +0.000 NA
ATOM     16  C   UNL     1       7.431   6.716  17.905  0.00  0.00    +0.000 A 
ATOM     17  C   UNL     1       8.089   8.037  18.058  0.00  0.00    +0.000 C 
ATOM     18  S   UNL     1       6.116   6.510  16.818  0.00  0.00    +0.000 S 
ENDBRANCH  12  13
ENDBRANCH  11  12
ENDBRANCH   1  11
TORSDOF 5
ENDMDL
MODEL 9
REMARK VINA RESULT:      -6.2      0.985      1.019
REMARK  Name = 
REMARK  7 active torsions:
REMARK  status: ('A' for Active; 'I' for Inactive)
REMARK    1  A    between atoms: C_1  and  O_2
REMARK    2  A    between atoms: O_2  and  C_3
REMARK    3  A    between atoms: C_7  and  C_8
REMARK    4  A    between atoms: C_8  and  C_10
REMARK    5  A    between atoms: C_10  and  S_11
REMARK    6  A    between atoms: S_11  and  C_12
REMARK    7  A    between atoms: C_15  and  C_16
REMARK                            x       y       z     vdW  Elec       q    Type
REMARK                         _______ _______ _______ _____ _____    ______ ____
ROOT
ATOM      1  C   UNL     1       4.505   5.148  17.864  0.00  0.00    +0.000 C 
ATOM      2  O   UNL     1       4.277   6.260  17.387  0.00  0.00    +0.000 OA
ENDROOT
BRANCH   1   7
ATOM      3  C   UNL     1       2.436   3.366  20.510  0.00  0.00    +0.000 A 
ATOM      4  C   UNL     1       1.293   3.070  19.761  0.00  0.00    +0.000 A 
ATOM      5  C   UNL     1       1.197   3.448  18.423  0.00  0.00    +0.000 A 
ATOM      6  C   UNL     1       2.252   4.127  17.822  0.00  0.00    +0.000 A 
ATOM      7  C   UNL     1       3.396   4.443  18.564  0.00  0.00    +0.000 A 
ATOM      8  C   UNL     1       3.490   4.064  19.911  0.00  0.00    +0.000 A 
BRANCH   3  10
ATOM      9  C   UNL     1       1.173   2.365  22.265  0.00  0.00    +0.000 C 
ATOM     10  O   UNL     1       2.400   2.908  21.797  0.00  0.00    +0.000 OA
ENDBRANCH   3  10
ENDBRANCH   1   7
BRANCH   1  11
ATOM     11  C   UNL     1       5.844   4.445  17.755  0.00  0.00    +0.000 C 
BRANCH  11  12
ATOM     12  S   UNL     1       7.110   5.528  17.026  0.00  0.00    +0.000 S 
BRANCH  12  13
ATOM     13  C   UNL     1       7.001   5.049  15.347  0.00  0.00    +0.000 A 
ATOM     14  N   UNL     1       7.771   5.565  14.412  0.00  0.00    +0.000 NA
ATOM     15  N   UNL     1       7.541   4.991  13.176  0.00  0.00    +0.000 NA
ATOM     16  C   UNL     1       6.610   4.062  13.228  0.00  0.00    +0.000 A 
ATOM     17  C   UNL     1       6.165   3.233  12.080  0.00  0.00    +0.000 C 
ATOM     18  S   UNL     1       5.924   3.841  14.789  0.00  0.00    +0.000 S 
ENDBRANCH  12  13
ENDBRANCH  11  12
ENDBRANCH   1  11
TORSDOF 5
ENDMDL
