MODEL 1
REMARK VINA RESULT:      -8.3      0.000      0.000
REMARK  Name = 
REMARK  7 active torsions:
REMARK  status: ('A' for Active; 'I' for Inactive)
REMARK    1  A    between atoms: C_1  and  C_2
REMARK    2  A    between atoms: C_3  and  C_4
REMARK    3  A    between atoms: C_4  and  N_5
REMARK    4  A    between atoms: C_9  and  C_11
REMARK    5  A    between atoms: C_13  and  C_14
REMARK    6  A    between atoms: C_14  and  N_15
REMARK    7  A    between atoms: C_32  and  C_33
REMARK                            x       y       z     vdW  Elec       q    Type
REMARK                         _______ _______ _______ _____ _____    ______ ____
ROOT
ATOM      1  C   UNL     1       0.843   9.131  18.907  0.00  0.00    +0.000 A 
ATOM      2  C   UNL     1       1.762   8.454  18.088  0.00  0.00    +0.000 A 
ATOM      3  C   UNL     1       2.599   7.460  18.630  0.00  0.00    +0.000 A 
ATOM      4  C   UNL     1       2.609   7.253  20.019  0.00  0.00    +0.000 A 
ATOM      5  C   UNL     1       1.638   7.849  20.804  0.00  0.00    +0.000 A 
ATOM      6  C   UNL     1       0.707   8.679  20.208  0.00  0.00    +0.000 A 
ATOM      7  F   UNL     1      -0.353   9.022  20.948  0.00  0.00    +0.000 F 
ENDROOT
BRANCH   1  12
ATOM      8  N   UNL     1      -0.070  14.136  20.236  0.00  0.00    +0.000 NA
ATOM      9  C   UNL     1      -1.086  13.636  19.267  0.00  0.00    +0.000 C 
ATOM     10  C   UNL     1      -0.576  12.647  18.192  0.00  0.00    +0.000 C 
ATOM     11  N   UNL     1       0.221  11.566  18.782  0.00  0.00    +0.000 N 
ATOM     12  C   UNL     1       0.023  10.243  18.349  0.00  0.00    +0.000 C 
ATOM     13  O   UNL     1      -0.791   9.958  17.476  0.00  0.00    +0.000 OA
ATOM     14  C   UNL     1       1.293  12.084  19.649  0.00  0.00    +0.000 C 
ATOM     15  C   UNL     1       0.734  13.006  20.770  0.00  0.00    +0.000 C 
ATOM     16  C   UNL     1      -0.103  12.271  21.828  0.00  0.00    +0.000 C 
BRANCH   8  17
ATOM     17  C   UNL     1       0.808  15.159  19.665  0.00  0.00    +0.000 C 
BRANCH  17  20
ATOM     18  C   UNL     1      -0.225  18.094  17.320  0.00  0.00    +0.000 C 
ATOM     19  C   UNL     1       0.549  17.221  18.251  0.00  0.00    +0.000 C 
ATOM     20  C   UNL     1       0.112  16.017  18.654  0.00  0.00    +0.000 C 
ENDBRANCH  17  20
ENDBRANCH   8  17
ENDBRANCH   1  12
BRANCH   3  21
ATOM     21  C   UNL     1       3.442   6.552  17.755  0.00  0.00    +0.000 C 
BRANCH  21  22
ATOM     22  N   UNL     1       3.783   5.286  18.383  0.00  0.00    +0.000 N 
ATOM     23  C   UNL     1       5.059   5.176  18.922  0.00  0.00    +0.000 A 
ATOM     24  O   UNL     1       5.883   6.089  18.940  0.00  0.00    +0.000 OA
ATOM     25  N   UNL     1       5.399   3.968  19.457  0.00  0.00    +0.000 N 
ATOM     26  C   UNL     1       4.605   2.860  19.546  0.00  0.00    +0.000 A 
ATOM     27  O   UNL     1       5.028   1.792  19.975  0.00  0.00    +0.000 OA
ATOM     28  C   UNL     1       3.213   3.030  19.110  0.00  0.00    +0.000 A 
ATOM     29  C   UNL     1       2.296   1.995  19.333  0.00  0.00    +0.000 A 
ATOM     30  C   UNL     1       0.966   2.153  18.958  0.00  0.00    +0.000 A 
ATOM     31  C   UNL     1       0.568   3.331  18.334  0.00  0.00    +0.000 A 
ATOM     32  C   UNL     1       1.490   4.359  18.105  0.00  0.00    +0.000 A 
ATOM     33  C   UNL     1       2.828   4.235  18.513  0.00  0.00    +0.000 A 
ATOM     34  H   UNL     1       6.342   3.882  19.803  0.00  0.00    +0.000 HD
ENDBRANCH  21  22
ENDBRANCH   3  21
TORSDOF 5
ENDMDL
MODEL 2
REMARK VINA RESULT:      -8.3      2.210      3.315
REMARK  Name = 
REMARK  7 active torsions:
REMARK  status: ('A' for Active; 'I' for Inactive)
REMARK    1  A    between atoms: C_1  and  C_2
REMARK    2  A    between atoms: C_3  and  C_4
REMARK    3  A    between atoms: C_4  and  N_5
REMARK    4  A    between atoms: C_9  and  C_11
REMARK    5  A    between atoms: C_13  and  C_14
REMARK    6  A    between atoms: C_14  and  N_15
REMARK    7  A    between atoms: C_32  and  C_33
REMARK                            x       y       z     vdW  Elec       q    Type
REMARK                         _______ _______ _______ _____ _____    ______ ____
ROOT
ATOM      1  C   UNL     1       0.664   9.916  19.131  0.00  0.00    +0.000 A 
ATOM      2  C   UNL     1       1.311   9.158  18.141  0.00  0.00    +0.000 A 
ATOM      3  C   UNL     1       1.999   7.978  18.486  0.00  0.00    +0.000 A 
ATOM      4  C   UNL     1       2.154   7.646  19.841  0.00  0.00    +0.000 A 
ATOM      5  C   UNL     1       1.437   8.338  20.800  0.00  0.00    +0.000 A 
ATOM      6  C   UNL     1       0.618   9.380  20.405  0.00  0.00    +0.000 A 
ATOM      7  F   UNL     1      -0.243   9.846  21.316  0.00  0.00    +0.000 F 
ENDROOT
BRANCH   1  12
ATOM      8  N   UNL     1       2.077  14.979  19.280  0.00  0.00    +0.000 NA
ATOM      9  C   UNL     1       0.601  14.830  19.136  0.00  0.00    +0.000 C 
ATOM     10  C   UNL     1       0.116  13.638  18.276  0.00  0.00    +0.000 C 
ATOM     11  N   UNL     1       0.775  12.386  18.660  0.00  0.00    +0.000 N 
ATOM     12  C   UNL     1       0.014  11.209  18.775  0.00  0.00    +0.000 C 
ATOM     13  O   UNL     1      -1.191  11.188  18.547  0.00  0.00    +0.000 OA
ATOM     14  C   UNL     1       2.241  12.522  18.688  0.00  0.00    +0.000 C 
ATOM     15  C   UNL     1       2.696  13.674  19.630  0.00  0.00    +0.000 C 
ATOM     16  C   UNL     1       2.447  13.401  21.121  0.00  0.00    +0.000 C 
BRANCH   8  17
ATOM     17  C   UNL     1       2.714  15.539  18.087  0.00  0.00    +0.000 C 
BRANCH  17  20
ATOM     18  C   UNL     1       6.584  15.089  18.041  0.00  0.00    +0.000 C 
ATOM     19  C   UNL     1       5.128  14.919  17.760  0.00  0.00    +0.000 C 
ATOM     20  C   UNL     1       4.189  15.737  18.260  0.00  0.00    +0.000 C 
ENDBRANCH  17  20
ENDBRANCH   8  17
ENDBRANCH   1  12
BRANCH   3  21
ATOM     21  C   UNL     1       2.519   7.013  17.438  0.00  0.00    +0.000 C 
BRANCH  21  22
ATOM     22  N   UNL     1       3.315   5.928  17.986  0.00  0.00    +0.000 N 
ATOM     23  C   UNL     1       2.631   4.788  18.389  0.00  0.00    +0.000 A 
ATOM     24  O   UNL     1       1.418   4.629  18.264  0.00  0.00    +0.000 OA
ATOM     25  N   UNL     1       3.372   3.794  18.959  0.00  0.00    +0.000 N 
ATOM     26  C   UNL     1       4.724   3.789  19.151  0.00  0.00    +0.000 A 
ATOM     27  O   UNL     1       5.291   2.879  19.746  0.00  0.00    +0.000 OA
ATOM     28  C   UNL     1       5.457   4.931  18.589  0.00  0.00    +0.000 A 
ATOM     29  C   UNL     1       6.858   4.913  18.592  0.00  0.00    +0.000 A 
ATOM     30  C   UNL     1       7.567   5.970  18.033  0.00  0.00    +0.000 A 
ATOM     31  C   UNL     1       6.874   7.053  17.505  0.00  0.00    +0.000 A 
ATOM     32  C   UNL     1       5.474   7.073  17.513  0.00  0.00    +0.000 A 
ATOM     33  C   UNL     1       4.739   5.996  18.035  0.00  0.00    +0.000 A 
ATOM     34  H   UNL     1       2.862   2.990  19.291  0.00  0.00    +0.000 HD
ENDBRANCH  21  22
ENDBRANCH   3  21
TORSDOF 5
ENDMDL
MODEL 3
REMARK VINA RESULT:      -8.0      1.471      2.717
REMARK  Name = 
REMARK  7 active torsions:
REMARK  status: ('A' for Active; 'I' for Inactive)
REMARK    1  A    between atoms: C_1  and  C_2
REMARK    2  A    between atoms: C_3  and  C_4
REMARK    3  A    between atoms: C_4  and  N_5
REMARK    4  A    between atoms: C_9  and  C_11
REMARK    5  A    between atoms: C_13  and  C_14
REMARK    6  A    between atoms: C_14  and  N_15
REMARK    7  A    between atoms: C_32  and  C_33
REMARK                            x       y       z     vdW  Elec       q    Type
REMARK                         _______ _______ _______ _____ _____    ______ ____
ROOT
ATOM      1  C   UNL     1       0.539   9.796  18.873  0.00  0.00    +0.000 A 
ATOM      2  C   UNL     1       1.307   9.121  17.909  0.00  0.00    +0.000 A 
ATOM      3  C   UNL     1       2.149   8.058  18.290  0.00  0.00    +0.000 A 
ATOM      4  C   UNL     1       2.325   7.777  19.654  0.00  0.00    +0.000 A 
ATOM      5  C   UNL     1       1.498   8.377  20.587  0.00  0.00    +0.000 A 
ATOM      6  C   UNL     1       0.546   9.283  20.157  0.00  0.00    +0.000 A 
ATOM      7  F   UNL     1      -0.390   9.637  21.044  0.00  0.00    +0.000 F 
ENDROOT
BRANCH   1  12
ATOM      8  N   UNL     1       0.676  14.955  19.885  0.00  0.00    +0.000 NA
ATOM      9  C   UNL     1      -0.645  14.544  19.332  0.00  0.00    +0.000 C 
ATOM     10  C   UNL     1      -0.620  13.426  18.262  0.00  0.00    +0.000 C 
ATOM     11  N   UNL     1       0.194  12.283  18.689  0.00  0.00    +0.000 N 
ATOM     12  C   UNL     1      -0.282  10.976  18.479  0.00  0.00    +0.000 C 
ATOM     13  O   UNL     1      -1.358  10.755  17.932  0.00  0.00    +0.000 OA
ATOM     14  C   UNL     1       1.537  12.697  19.127  0.00  0.00    +0.000 C 
ATOM     15  C   UNL     1       1.473  13.758  20.263  0.00  0.00    +0.000 C 
ATOM     16  C   UNL     1       0.936  13.218  21.597  0.00  0.00    +0.000 C 
BRANCH   8  17
ATOM     17  C   UNL     1       1.439  15.804  18.969  0.00  0.00    +0.000 C 
BRANCH  17  20
ATOM     18  C   UNL     1      -0.324  18.629  16.947  0.00  0.00    +0.000 C 
ATOM     19  C   UNL     1       0.326  17.338  17.318  0.00  0.00    +0.000 C 
ATOM     20  C   UNL     1       0.693  17.042  18.575  0.00  0.00    +0.000 C 
ENDBRANCH  17  20
ENDBRANCH   8  17
ENDBRANCH   1  12
BRANCH   3  21
ATOM     21  C   UNL     1       2.821   7.158  17.270  0.00  0.00    +0.000 C 
BRANCH  21  22
ATOM     22  N   UNL     1       3.519   6.028  17.859  0.00  0.00    +0.000 N 
ATOM     23  C   UNL     1       2.751   4.918  18.188  0.00  0.00    +0.000 A 
ATOM     24  O   UNL     1       1.545   4.821  17.968  0.00  0.00    +0.000 OA
ATOM     25  N   UNL     1       3.396   3.880  18.796  0.00  0.00    +0.000 N 
ATOM     26  C   UNL     1       4.728   3.806  19.090  0.00  0.00    +0.000 A 
ATOM     27  O   UNL     1       5.202   2.860  19.712  0.00  0.00    +0.000 OA
ATOM     28  C   UNL     1       5.557   4.917  18.607  0.00  0.00    +0.000 A 
ATOM     29  C   UNL     1       6.951   4.828  18.716  0.00  0.00    +0.000 A 
ATOM     30  C   UNL     1       7.752   5.856  18.231  0.00  0.00    +0.000 A 
ATOM     31  C   UNL     1       7.155   6.980  17.670  0.00  0.00    +0.000 A 
ATOM     32  C   UNL     1       5.761   7.069  17.572  0.00  0.00    +0.000 A 
ATOM     33  C   UNL     1       4.937   6.024  18.018  0.00  0.00    +0.000 A 
ATOM     34  H   UNL     1       2.823   3.099  19.074  0.00  0.00    +0.000 HD
ENDBRANCH  21  22
ENDBRANCH   3  21
TORSDOF 5
ENDMDL
MODEL 4
REMARK VINA RESULT:      -7.9      4.893      9.944
REMARK  Name = 
REMARK  7 active torsions:
REMARK  status: ('A' for Active; 'I' for Inactive)
REMARK    1  A    between atoms: C_1  and  C_2
REMARK    2  A    between atoms: C_3  and  C_4
REMARK    3  A    between atoms: C_4  and  N_5
REMARK    4  A    between atoms: C_9  and  C_11
REMARK    5  A    between atoms: C_13  and  C_14
REMARK    6  A    between atoms: C_14  and  N_15
REMARK    7  A    between atoms: C_32  and  C_33
REMARK                            x       y       z     vdW  Elec       q    Type
REMARK                         _______ _______ _______ _____ _____    ______ ____
ROOT
ATOM      1  C   UNL     1      -2.214  13.038  22.695  0.00  0.00    +0.000 A 
ATOM      2  C   UNL     1      -3.591  13.026  22.417  0.00  0.00    +0.000 A 
ATOM      3  C   UNL     1      -4.363  14.189  22.605  0.00  0.00    +0.000 A 
ATOM      4  C   UNL     1      -3.775  15.313  23.207  0.00  0.00    +0.000 A 
ATOM      5  C   UNL     1      -2.404  15.353  23.386  0.00  0.00    +0.000 A 
ATOM      6  C   UNL     1      -1.646  14.258  23.015  0.00  0.00    +0.000 A 
ATOM      7  F   UNL     1      -0.321  14.434  22.964  0.00  0.00    +0.000 F 
ENDROOT
BRANCH   1  12
ATOM      8  N   UNL     1      -0.057  10.322  18.741  0.00  0.00    +0.000 NA
ATOM      9  C   UNL     1      -0.151   9.499  19.979  0.00  0.00    +0.000 C 
ATOM     10  C   UNL     1       0.068  10.248  21.316  0.00  0.00    +0.000 C 
ATOM     11  N   UNL     1      -0.736  11.473  21.391  0.00  0.00    +0.000 N 
ATOM     12  C   UNL     1      -1.418  11.782  22.580  0.00  0.00    +0.000 C 
ATOM     13  O   UNL     1      -1.354  11.066  23.574  0.00  0.00    +0.000 OA
ATOM     14  C   UNL     1      -0.544  12.329  20.209  0.00  0.00    +0.000 C 
ATOM     15  C   UNL     1      -0.855  11.568  18.888  0.00  0.00    +0.000 C 
ATOM     16  C   UNL     1      -2.339  11.219  18.699  0.00  0.00    +0.000 C 
BRANCH   8  17
ATOM     17  C   UNL     1       1.323  10.645  18.373  0.00  0.00    +0.000 C 
BRANCH  17  20
ATOM     18  C   UNL     1       3.065   7.193  17.890  0.00  0.00    +0.000 C 
ATOM     19  C   UNL     1       2.206   8.395  17.680  0.00  0.00    +0.000 C 
ATOM     20  C   UNL     1       2.240   9.466  18.490  0.00  0.00    +0.000 C 
ENDBRANCH  17  20
ENDBRANCH   8  17
ENDBRANCH   1  12
BRANCH   3  21
ATOM     21  C   UNL     1      -5.794  14.294  22.113  0.00  0.00    +0.000 C 
BRANCH  21  22
ATOM     22  N   UNL     1      -6.383  13.015  21.754  0.00  0.00    +0.000 N 
ATOM     23  C   UNL     1      -7.101  12.354  22.744  0.00  0.00    +0.000 A 
ATOM     24  O   UNL     1      -7.304  12.806  23.869  0.00  0.00    +0.000 OA
ATOM     25  N   UNL     1      -7.603  11.126  22.424  0.00  0.00    +0.000 N 
ATOM     26  C   UNL     1      -7.498  10.487  21.221  0.00  0.00    +0.000 A 
ATOM     27  O   UNL     1      -7.916   9.346  21.055  0.00  0.00    +0.000 OA
ATOM     28  C   UNL     1      -6.868  11.254  20.139  0.00  0.00    +0.000 A 
ATOM     29  C   UNL     1      -6.881  10.735  18.838  0.00  0.00    +0.000 A 
ATOM     30  C   UNL     1      -6.319  11.464  17.795  0.00  0.00    +0.000 A 
ATOM     31  C   UNL     1      -5.720  12.690  18.064  0.00  0.00    +0.000 A 
ATOM     32  C   UNL     1      -5.700  13.200  19.368  0.00  0.00    +0.000 A 
ATOM     33  C   UNL     1      -6.298  12.498  20.427  0.00  0.00    +0.000 A 
ATOM     34  H   UNL     1      -8.082  10.633  23.162  0.00  0.00    +0.000 HD
ENDBRANCH  21  22
ENDBRANCH   3  21
TORSDOF 5
ENDMDL
MODEL 5
REMARK VINA RESULT:      -7.9      1.002      1.400
REMARK  Name = 
REMARK  7 active torsions:
REMARK  status: ('A' for Active; 'I' for Inactive)
REMARK    1  A    between atoms: C_1  and  C_2
REMARK    2  A    between atoms: C_3  and  C_4
REMARK    3  A    between atoms: C_4  and  N_5
REMARK    4  A    between atoms: C_9  and  C_11
REMARK    5  A    between atoms: C_13  and  C_14
REMARK    6  A    between atoms: C_14  and  N_15
REMARK    7  A    between atoms: C_32  and  C_33
REMARK                            x       y       z     vdW  Elec       q    Type
REMARK                         _______ _______ _______ _____ _____    ______ ____
ROOT
ATOM      1  C   UNL     1       0.875   9.153  19.005  0.00  0.00    +0.000 A 
ATOM      2  C   UNL     1       1.805   8.484  18.191  0.00  0.00    +0.000 A 
ATOM      3  C   UNL     1       2.589   7.440  18.719  0.00  0.00    +0.000 A 
ATOM      4  C   UNL     1       2.537   7.171  20.095  0.00  0.00    +0.000 A 
ATOM      5  C   UNL     1       1.555   7.762  20.870  0.00  0.00    +0.000 A 
ATOM      6  C   UNL     1       0.674   8.648  20.277  0.00  0.00    +0.000 A 
ATOM      7  F   UNL     1      -0.404   8.991  20.991  0.00  0.00    +0.000 F 
ENDROOT
BRANCH   1  12
ATOM      8  N   UNL     1      -0.146  14.041  20.653  0.00  0.00    +0.000 NA
ATOM      9  C   UNL     1      -1.070  13.632  19.557  0.00  0.00    +0.000 C 
ATOM     10  C   UNL     1      -0.464  12.729  18.455  0.00  0.00    +0.000 C 
ATOM     11  N   UNL     1       0.272  11.596  19.025  0.00  0.00    +0.000 N 
ATOM     12  C   UNL     1       0.112  10.315  18.468  0.00  0.00    +0.000 C 
ATOM     13  O   UNL     1      -0.618  10.111  17.503  0.00  0.00    +0.000 OA
ATOM     14  C   UNL     1       1.261  12.031  20.026  0.00  0.00    +0.000 C 
ATOM     15  C   UNL     1       0.603  12.863  21.164  0.00  0.00    +0.000 C 
ATOM     16  C   UNL     1      -0.330  12.052  22.076  0.00  0.00    +0.000 C 
BRANCH   8  17
ATOM     17  C   UNL     1       0.783  15.098  20.252  0.00  0.00    +0.000 C 
BRANCH  17  20
ATOM     18  C   UNL     1       0.247  17.381  23.363  0.00  0.00    +0.000 C 
ATOM     19  C   UNL     1       0.290  16.194  22.460  0.00  0.00    +0.000 C 
ATOM     20  C   UNL     1       0.814  16.237  21.224  0.00  0.00    +0.000 C 
ENDBRANCH  17  20
ENDBRANCH   8  17
ENDBRANCH   1  12
BRANCH   3  21
ATOM     21  C   UNL     1       3.438   6.545  17.835  0.00  0.00    +0.000 C 
BRANCH  21  22
ATOM     22  N   UNL     1       3.775   5.271  18.446  0.00  0.00    +0.000 N 
ATOM     23  C   UNL     1       5.050   5.152  18.988  0.00  0.00    +0.000 A 
ATOM     24  O   UNL     1       5.875   6.062  19.022  0.00  0.00    +0.000 OA
ATOM     25  N   UNL     1       5.386   3.935  19.507  0.00  0.00    +0.000 N 
ATOM     26  C   UNL     1       4.590   2.828  19.578  0.00  0.00    +0.000 A 
ATOM     27  O   UNL     1       5.011   1.753  19.993  0.00  0.00    +0.000 OA
ATOM     28  C   UNL     1       3.200   3.006  19.140  0.00  0.00    +0.000 A 
ATOM     29  C   UNL     1       2.281   1.968  19.345  0.00  0.00    +0.000 A 
ATOM     30  C   UNL     1       0.953   2.133  18.969  0.00  0.00    +0.000 A 
ATOM     31  C   UNL     1       0.558   3.320  18.360  0.00  0.00    +0.000 A 
ATOM     32  C   UNL     1       1.482   4.351  18.148  0.00  0.00    +0.000 A 
ATOM     33  C   UNL     1       2.818   4.219  18.559  0.00  0.00    +0.000 A 
ATOM     34  H   UNL     1       6.328   3.843  19.855  0.00  0.00    +0.000 HD
ENDBRANCH  21  22
ENDBRANCH   3  21
TORSDOF 5
ENDMDL
MODEL 6
REMARK VINA RESULT:      -7.7      2.817      4.125
REMARK  Name = 
REMARK  7 active torsions:
REMARK  status: ('A' for Active; 'I' for Inactive)
REMARK    1  A    between atoms: C_1  and  C_2
REMARK    2  A    between atoms: C_3  and  C_4
REMARK    3  A    between atoms: C_4  and  N_5
REMARK    4  A    between atoms: C_9  and  C_11
REMARK    5  A    between atoms: C_13  and  C_14
REMARK    6  A    between atoms: C_14  and  N_15
REMARK    7  A    between atoms: C_32  and  C_33
REMARK                            x       y       z     vdW  Elec       q    Type
REMARK                         _______ _______ _______ _____ _____    ______ ____
ROOT
ATOM      1  C   UNL     1       1.050   9.573  20.290  0.00  0.00    +0.000 A 
ATOM      2  C   UNL     1       1.495   8.312  20.720  0.00  0.00    +0.000 A 
ATOM      3  C   UNL     1       2.109   7.427  19.812  0.00  0.00    +0.000 A 
ATOM      4  C   UNL     1       2.141   7.757  18.448  0.00  0.00    +0.000 A 
ATOM      5  C   UNL     1       1.792   9.034  18.046  0.00  0.00    +0.000 A 
ATOM      6  C   UNL     1       1.368   9.945  18.996  0.00  0.00    +0.000 A 
ATOM      7  F   UNL     1       1.291  11.223  18.610  0.00  0.00    +0.000 F 
ENDROOT
BRANCH   1  12
ATOM      8  N   UNL     1      -2.919  12.998  19.880  0.00  0.00    +0.000 NA
ATOM      9  C   UNL     1      -2.163  13.191  21.149  0.00  0.00    +0.000 C 
ATOM     10  C   UNL     1      -1.614  11.907  21.819  0.00  0.00    +0.000 C 
ATOM     11  N   UNL     1      -0.901  11.057  20.861  0.00  0.00    +0.000 N 
ATOM     12  C   UNL     1       0.321  10.469  21.232  0.00  0.00    +0.000 C 
ATOM     13  O   UNL     1       0.811  10.631  22.345  0.00  0.00    +0.000 OA
ATOM     14  C   UNL     1      -1.708  10.784  19.660  0.00  0.00    +0.000 C 
ATOM     15  C   UNL     1      -2.171  12.097  18.965  0.00  0.00    +0.000 C 
ATOM     16  C   UNL     1      -1.031  12.899  18.317  0.00  0.00    +0.000 C 
BRANCH   8  17
ATOM     17  C   UNL     1      -4.275  12.491  20.094  0.00  0.00    +0.000 C 
BRANCH  17  20
ATOM     18  C   UNL     1      -7.133  12.562  17.446  0.00  0.00    +0.000 C 
ATOM     19  C   UNL     1      -6.350  12.764  18.701  0.00  0.00    +0.000 C 
ATOM     20  C   UNL     1      -5.063  12.400  18.823  0.00  0.00    +0.000 C 
ENDBRANCH  17  20
ENDBRANCH   8  17
ENDBRANCH   1  12
BRANCH   3  21
ATOM     21  C   UNL     1       2.803   6.158  20.269  0.00  0.00    +0.000 C 
BRANCH  21  22
ATOM     22  N   UNL     1       2.726   5.072  19.306  0.00  0.00    +0.000 N 
ATOM     23  C   UNL     1       1.625   4.228  19.398  0.00  0.00    +0.000 A 
ATOM     24  O   UNL     1       0.705   4.376  20.200  0.00  0.00    +0.000 OA
ATOM     25  N   UNL     1       1.584   3.174  18.533  0.00  0.00    +0.000 N 
ATOM     26  C   UNL     1       2.500   2.874  17.564  0.00  0.00    +0.000 A 
ATOM     27  O   UNL     1       2.416   1.856  16.886  0.00  0.00    +0.000 OA
ATOM     28  C   UNL     1       3.579   3.851  17.376  0.00  0.00    +0.000 A 
ATOM     29  C   UNL     1       4.453   3.704  16.291  0.00  0.00    +0.000 A 
ATOM     30  C   UNL     1       5.460   4.639  16.078  0.00  0.00    +0.000 A 
ATOM     31  C   UNL     1       5.607   5.697  16.968  0.00  0.00    +0.000 A 
ATOM     32  C   UNL     1       4.738   5.836  18.057  0.00  0.00    +0.000 A 
ATOM     33  C   UNL     1       3.690   4.925  18.266  0.00  0.00    +0.000 A 
ATOM     34  H   UNL     1       0.807   2.540  18.637  0.00  0.00    +0.000 HD
ENDBRANCH  21  22
ENDBRANCH   3  21
TORSDOF 5
ENDMDL
MODEL 7
REMARK VINA RESULT:      -7.7      2.734      8.994
REMARK  Name = 
REMARK  7 active torsions:
REMARK  status: ('A' for Active; 'I' for Inactive)
REMARK    1  A    between atoms: C_1  and  C_2
REMARK    2  A    between atoms: C_3  and  C_4
REMARK    3  A    between atoms: C_4  and  N_5
REMARK    4  A    between atoms: C_9  and  C_11
REMARK    5  A    between atoms: C_13  and  C_14
REMARK    6  A    between atoms: C_14  and  N_15
REMARK    7  A    between atoms: C_32  and  C_33
REMARK                            x       y       z     vdW  Elec       q    Type
REMARK                         _______ _______ _______ _____ _____    ______ ____
ROOT
ATOM      1  C   UNL     1       2.064   6.535  18.918  0.00  0.00    +0.000 A 
ATOM      2  C   UNL     1       1.876   7.737  18.215  0.00  0.00    +0.000 A 
ATOM      3  C   UNL     1       1.465   8.900  18.895  0.00  0.00    +0.000 A 
ATOM      4  C   UNL     1       1.105   8.813  20.249  0.00  0.00    +0.000 A 
ATOM      5  C   UNL     1       1.384   7.657  20.956  0.00  0.00    +0.000 A 
ATOM      6  C   UNL     1       1.966   6.590  20.297  0.00  0.00    +0.000 A 
ATOM      7  F   UNL     1       2.449   5.604  21.060  0.00  0.00    +0.000 F 
ENDROOT
BRANCH   1  12
ATOM      8  N   UNL     1       5.949   5.050  15.699  0.00  0.00    +0.000 NA
ATOM      9  C   UNL     1       4.787   4.120  15.616  0.00  0.00    +0.000 C 
ATOM     10  C   UNL     1       4.020   3.865  16.936  0.00  0.00    +0.000 C 
ATOM     11  N   UNL     1       3.692   5.117  17.626  0.00  0.00    +0.000 N 
ATOM     12  C   UNL     1       2.413   5.287  18.183  0.00  0.00    +0.000 C 
ATOM     13  O   UNL     1       1.556   4.410  18.126  0.00  0.00    +0.000 OA
ATOM     14  C   UNL     1       4.876   5.975  17.799  0.00  0.00    +0.000 C 
ATOM     15  C   UNL     1       5.572   6.281  16.442  0.00  0.00    +0.000 C 
ATOM     16  C   UNL     1       4.751   7.182  15.505  0.00  0.00    +0.000 C 
BRANCH   8  17
ATOM     17  C   UNL     1       7.131   4.434  16.305  0.00  0.00    +0.000 C 
BRANCH  17  20
ATOM     18  C   UNL     1       8.256   5.657  19.829  0.00  0.00    +0.000 C 
ATOM     19  C   UNL     1       7.801   4.792  18.701  0.00  0.00    +0.000 C 
ATOM     20  C   UNL     1       7.681   5.241  17.442  0.00  0.00    +0.000 C 
ENDBRANCH  17  20
ENDBRANCH   8  17
ENDBRANCH   1  12
BRANCH   3  21
ATOM     21  C   UNL     1       1.464  10.264  18.230  0.00  0.00    +0.000 C 
BRANCH  21  22
ATOM     22  N   UNL     1       0.414  11.147  18.709  0.00  0.00    +0.000 N 
ATOM     23  C   UNL     1       0.811  12.240  19.469  0.00  0.00    +0.000 A 
ATOM     24  O   UNL     1       1.982  12.524  19.713  0.00  0.00    +0.000 OA
ATOM     25  N   UNL     1      -0.179  13.034  19.969  0.00  0.00    +0.000 N 
ATOM     26  C   UNL     1      -1.523  12.885  19.777  0.00  0.00    +0.000 A 
ATOM     27  O   UNL     1      -2.342  13.608  20.335  0.00  0.00    +0.000 OA
ATOM     28  C   UNL     1      -1.926  11.817  18.852  0.00  0.00    +0.000 A 
ATOM     29  C   UNL     1      -3.270  11.715  18.470  0.00  0.00    +0.000 A 
ATOM     30  C   UNL     1      -3.662  10.732  17.569  0.00  0.00    +0.000 A 
ATOM     31  C   UNL     1      -2.716   9.837  17.080  0.00  0.00    +0.000 A 
ATOM     32  C   UNL     1      -1.375   9.937  17.472  0.00  0.00    +0.000 A 
ATOM     33  C   UNL     1      -0.952  10.948  18.349  0.00  0.00    +0.000 A 
ATOM     34  H   UNL     1       0.115  13.798  20.558  0.00  0.00    +0.000 HD
ENDBRANCH  21  22
ENDBRANCH   3  21
TORSDOF 5
ENDMDL
MODEL 8
REMARK VINA RESULT:      -7.7      2.390      3.763
REMARK  Name = 
REMARK  7 active torsions:
REMARK  status: ('A' for Active; 'I' for Inactive)
REMARK    1  A    between atoms: C_1  and  C_2
REMARK    2  A    between atoms: C_3  and  C_4
REMARK    3  A    between atoms: C_4  and  N_5
REMARK    4  A    between atoms: C_9  and  C_11
REMARK    5  A    between atoms: C_13  and  C_14
REMARK    6  A    between atoms: C_14  and  N_15
REMARK    7  A    between atoms: C_32  and  C_33
REMARK                            x       y       z     vdW  Elec       q    Type
REMARK                         _______ _______ _______ _____ _____    ______ ____
ROOT
ATOM      1  C   UNL     1       1.179   9.442  19.154  0.00  0.00    +0.000 A 
ATOM      2  C   UNL     1       1.945   8.659  18.274  0.00  0.00    +0.000 A 
ATOM      3  C   UNL     1       2.507   7.444  18.711  0.00  0.00    +0.000 A 
ATOM      4  C   UNL     1       2.418   7.096  20.067  0.00  0.00    +0.000 A 
ATOM      5  C   UNL     1       1.585   7.816  20.904  0.00  0.00    +0.000 A 
ATOM      6  C   UNL     1       0.895   8.900  20.394  0.00  0.00    +0.000 A 
ATOM      7  F   UNL     1      -0.083   9.402  21.156  0.00  0.00    +0.000 F 
ENDROOT
BRANCH   1  12
ATOM      8  N   UNL     1      -3.288  11.184  16.992  0.00  0.00    +0.000 NA
ATOM      9  C   UNL     1      -2.191  12.184  16.856  0.00  0.00    +0.000 C 
ATOM     10  C   UNL     1      -1.196  12.272  18.039  0.00  0.00    +0.000 C 
ATOM     11  N   UNL     1      -0.706  10.947  18.436  0.00  0.00    +0.000 N 
ATOM     12  C   UNL     1       0.660  10.769  18.714  0.00  0.00    +0.000 C 
ATOM     13  O   UNL     1       1.464  11.693  18.651  0.00  0.00    +0.000 OA
ATOM     14  C   UNL     1      -1.810  10.002  18.676  0.00  0.00    +0.000 C 
ATOM     15  C   UNL     1      -2.741   9.875  17.435  0.00  0.00    +0.000 C 
ATOM     16  C   UNL     1      -2.086   9.187  16.227  0.00  0.00    +0.000 C 
BRANCH   8  17
ATOM     17  C   UNL     1      -4.351  11.622  17.897  0.00  0.00    +0.000 C 
BRANCH  17  20
ATOM     18  C   UNL     1      -7.158   9.392  19.423  0.00  0.00    +0.000 C 
ATOM     19  C   UNL     1      -6.206  10.516  19.184  0.00  0.00    +0.000 C 
ATOM     20  C   UNL     1      -5.390  10.565  18.119  0.00  0.00    +0.000 C 
ENDBRANCH  17  20
ENDBRANCH   8  17
ENDBRANCH   1  12
BRANCH   3  21
ATOM     21  C   UNL     1       3.148   6.462  17.749  0.00  0.00    +0.000 C 
BRANCH  21  22
ATOM     22  N   UNL     1       3.605   5.237  18.383  0.00  0.00    +0.000 N 
ATOM     23  C   UNL     1       4.919   5.216  18.834  0.00  0.00    +0.000 A 
ATOM     24  O   UNL     1       5.687   6.174  18.772  0.00  0.00    +0.000 OA
ATOM     25  N   UNL     1       5.366   4.045  19.375  0.00  0.00    +0.000 N 
ATOM     26  C   UNL     1       4.647   2.897  19.547  0.00  0.00    +0.000 A 
ATOM     27  O   UNL     1       5.161   1.868  19.972  0.00  0.00    +0.000 OA
ATOM     28  C   UNL     1       3.221   2.974  19.205  0.00  0.00    +0.000 A 
ATOM     29  C   UNL     1       2.384   1.895  19.517  0.00  0.00    +0.000 A 
ATOM     30  C   UNL     1       1.025   1.965  19.233  0.00  0.00    +0.000 A 
ATOM     31  C   UNL     1       0.516   3.099  18.609  0.00  0.00    +0.000 A 
ATOM     32  C   UNL     1       1.358   4.172  18.289  0.00  0.00    +0.000 A 
ATOM     33  C   UNL     1       2.725   4.137  18.606  0.00  0.00    +0.000 A 
ATOM     34  H   UNL     1       6.334   4.024  19.656  0.00  0.00    +0.000 HD
ENDBRANCH  21  22
ENDBRANCH   3  21
TORSDOF 5
ENDMDL
MODEL 9
REMARK VINA RESULT:      -7.7      2.121      2.392
REMARK  Name = 
REMARK  7 active torsions:
REMARK  status: ('A' for Active; 'I' for Inactive)
REMARK    1  A    between atoms: C_1  and  C_2
REMARK    2  A    between atoms: C_3  and  C_4
REMARK    3  A    between atoms: C_4  and  N_5
REMARK    4  A    between atoms: C_9  and  C_11
REMARK    5  A    between atoms: C_13  and  C_14
REMARK    6  A    between atoms: C_14  and  N_15
REMARK    7  A    between atoms: C_32  and  C_33
REMARK                            x       y       z     vdW  Elec       q    Type
REMARK                         _______ _______ _______ _____ _____    ______ ____
ROOT
ATOM      1  C   UNL     1       0.559  10.251  19.391  0.00  0.00    +0.000 A 
ATOM      2  C   UNL     1       1.015   9.338  18.425  0.00  0.00    +0.000 A 
ATOM      3  C   UNL     1       1.625   8.132  18.822  0.00  0.00    +0.000 A 
ATOM      4  C   UNL     1       1.902   7.917  20.181  0.00  0.00    +0.000 A 
ATOM      5  C   UNL     1       1.366   8.769  21.130  0.00  0.00    +0.000 A 
ATOM      6  C   UNL     1       0.608   9.848  20.713  0.00  0.00    +0.000 A 
ATOM      7  F   UNL     1      -0.097  10.486  21.653  0.00  0.00    +0.000 F 
ENDROOT
BRANCH   1  12
ATOM      8  N   UNL     1       2.350  15.190  19.165  0.00  0.00    +0.000 NA
ATOM      9  C   UNL     1       0.863  15.146  19.072  0.00  0.00    +0.000 C 
ATOM     10  C   UNL     1       0.262  13.942  18.306  0.00  0.00    +0.000 C 
ATOM     11  N   UNL     1       0.838  12.670  18.755  0.00  0.00    +0.000 N 
ATOM     12  C   UNL     1      -0.005  11.565  18.968  0.00  0.00    +0.000 C 
ATOM     13  O   UNL     1      -1.215  11.622  18.776  0.00  0.00    +0.000 OA
ATOM     14  C   UNL     1       2.310  12.695  18.732  0.00  0.00    +0.000 C 
ATOM     15  C   UNL     1       2.881  13.867  19.582  0.00  0.00    +0.000 C 
ATOM     16  C   UNL     1       2.661  13.710  21.095  0.00  0.00    +0.000 C 
BRANCH   8  17
ATOM     17  C   UNL     1       2.987  15.623  17.919  0.00  0.00    +0.000 C 
BRANCH  17  20
ATOM     18  C   UNL     1       6.475  17.045  18.913  0.00  0.00    +0.000 C 
ATOM     19  C   UNL     1       5.007  16.783  18.864  0.00  0.00    +0.000 C 
ATOM     20  C   UNL     1       4.460  15.845  18.074  0.00  0.00    +0.000 C 
ENDBRANCH  17  20
ENDBRANCH   8  17
ENDBRANCH   1  12
BRANCH   3  21
ATOM     21  C   UNL     1       1.930   7.021  17.834  0.00  0.00    +0.000 C 
BRANCH  21  22
ATOM     22  N   UNL     1       2.912   6.064  18.316  0.00  0.00    +0.000 N 
ATOM     23  C   UNL     1       4.245   6.338  18.036  0.00  0.00    +0.000 A 
ATOM     24  O   UNL     1       4.637   7.350  17.458  0.00  0.00    +0.000 OA
ATOM     25  N   UNL     1       5.161   5.409  18.436  0.00  0.00    +0.000 N 
ATOM     26  C   UNL     1       4.908   4.248  19.110  0.00  0.00    +0.000 A 
ATOM     27  O   UNL     1       5.793   3.436  19.357  0.00  0.00    +0.000 OA
ATOM     28  C   UNL     1       3.517   4.040  19.531  0.00  0.00    +0.000 A 
ATOM     29  C   UNL     1       3.212   2.962  20.374  0.00  0.00    +0.000 A 
ATOM     30  C   UNL     1       1.906   2.770  20.810  0.00  0.00    +0.000 A 
ATOM     31  C   UNL     1       0.907   3.636  20.376  0.00  0.00    +0.000 A 
ATOM     32  C   UNL     1       1.214   4.705  19.526  0.00  0.00    +0.000 A 
ATOM     33  C   UNL     1       2.534   4.940  19.107  0.00  0.00    +0.000 A 
ATOM     34  H   UNL     1       6.121   5.592  18.188  0.00  0.00    +0.000 HD
ENDBRANCH  21  22
ENDBRANCH   3  21
TORSDOF 5
ENDMDL
