MODEL 1
REMARK VINA RESULT:      -8.5      0.000      0.000
REMARK  Name = 
REMARK  9 active torsions:
REMARK  status: ('A' for Active; 'I' for Inactive)
REMARK    1  A    between atoms: C_1  and  C_2
REMARK    2  A    between atoms: C_2  and  O_3
REMARK    3  A    between atoms: O_3  and  C_4
REMARK    4  A    between atoms: C_4  and  C_6
REMARK    5  A    between atoms: C_6  and  O_7
REMARK    6  A    between atoms: C_6  and  C_21
REMARK    7  A    between atoms: O_7  and  C_8
REMARK    8  A    between atoms: C_24  and  O_25
REMARK    9  A    between atoms: O_25  and  C_26
REMARK                            x       y       z     vdW  Elec       q    Type
REMARK                         _______ _______ _______ _____ _____    ______ ____
ROOT
ATOM      1  C   UNL     1       0.352   9.907  20.004  0.00  0.00    +0.000 C 
ENDROOT
BRANCH   1   2
ATOM      2  C   UNL     1       1.336   8.840  19.527  0.00  0.00    +0.000 A 
ATOM      3  C   UNL     1       1.911   8.912  18.248  0.00  0.00    +0.000 A 
ATOM      4  C   UNL     1       2.712   7.868  17.774  0.00  0.00    +0.000 A 
ATOM      5  C   UNL     1       2.961   6.746  18.566  0.00  0.00    +0.000 A 
ATOM      6  C   UNL     1       2.418   6.685  19.847  0.00  0.00    +0.000 A 
ATOM      7  C   UNL     1       1.637   7.734  20.331  0.00  0.00    +0.000 A 
BRANCH   5   8
ATOM      8  O   UNL     1       3.713   5.767  17.982  0.00  0.00    +0.000 OA
BRANCH   8   9
ATOM      9  C   UNL     1       5.081   6.069  17.660  0.00  0.00    +0.000 C 
ATOM     10  C   UNL     1       5.454   5.466  16.303  0.00  0.00    +0.000 C 
ATOM     11  C   UNL     1       6.955   5.456  16.086  0.00  0.00    +0.000 C 
ATOM     12  O   UNL     1       7.615   4.799  17.165  0.00  0.00    +0.000 OA
ATOM     13  C   UNL     1       7.415   5.478  18.402  0.00  0.00    +0.000 C 
ATOM     14  C   UNL     1       5.943   5.477  18.779  0.00  0.00    +0.000 C 
ENDBRANCH   8   9
ENDBRANCH   5   8
ENDBRANCH   1   2
BRANCH   1  15
ATOM     15  C   UNL     1       0.964  10.764  21.141  0.00  0.00    +0.000 C 
ATOM     16  O   UNL     1       1.502  11.858  21.014  0.00  0.00    +0.000 OA
BRANCH  15  17
ATOM     17  O   UNL     1       0.827  10.141  22.352  0.00  0.00    +0.000 OA
BRANCH  17  19
ATOM     18  C   UNL     1      -1.283  11.203  22.991  0.00  0.00    +0.000 C 
ATOM     19  C   UNL     1      -0.528   9.902  22.776  0.00  0.00    +0.000 C 
ENDBRANCH  17  19
ENDBRANCH  15  17
ENDBRANCH   1  15
BRANCH   1  20
ATOM     20  O   UNL     1      -0.043  10.695  18.874  0.00  0.00    +0.000 OA
BRANCH  20  21
ATOM     21  C   UNL     1      -1.380  10.860  18.627  0.00  0.00    +0.000 A 
ATOM     22  C   UNL     1      -1.923  10.069  17.606  0.00  0.00    +0.000 A 
ATOM     23  C   UNL     1      -3.282  10.159  17.274  0.00  0.00    +0.000 A 
ATOM     24  C   UNL     1      -4.117  11.043  17.963  0.00  0.00    +0.000 A 
ATOM     25  C   UNL     1      -3.587  11.809  19.003  0.00  0.00    +0.000 A 
ATOM     26  C   UNL     1      -2.225  11.720  19.314  0.00  0.00    +0.000 A 
ATOM     27  C   UNL     1      -4.469  12.664  19.871  0.00  0.00    +0.000 C 
ATOM     28  N   UNL     1      -5.685  13.169  19.226  0.00  0.00    +0.000 N 
ATOM     29  C   UNL     1      -6.247  14.315  19.714  0.00  0.00    +0.000 C 
ATOM     30  N   UNL     1      -6.884  15.219  19.061  0.00  0.00    +0.000 NA
ATOM     31  N   UNL     1      -6.102  14.503  21.045  0.00  0.00    +0.000 N 
ATOM     32  C   UNL     1      -5.990  12.673  17.875  0.00  0.00    +0.000 C 
ATOM     33  C   UNL     1      -5.582  11.205  17.672  0.00  0.00    +0.000 C 
ATOM     34  H   UNL     1      -6.886  14.985  18.069  0.00  0.00    +0.000 HD
ATOM     35  H   UNL     1      -6.345  13.685  21.586  0.00  0.00    +0.000 HD
ATOM     36  H   UNL     1      -6.659  15.303  21.332  0.00  0.00    +0.000 HD
ENDBRANCH  20  21
ENDBRANCH   1  20
TORSDOF 8
ENDMDL
MODEL 2
REMARK VINA RESULT:      -8.1      7.137     10.188
REMARK  Name = 
REMARK  9 active torsions:
REMARK  status: ('A' for Active; 'I' for Inactive)
REMARK    1  A    between atoms: C_1  and  C_2
REMARK    2  A    between atoms: C_2  and  O_3
REMARK    3  A    between atoms: O_3  and  C_4
REMARK    4  A    between atoms: C_4  and  C_6
REMARK    5  A    between atoms: C_6  and  O_7
REMARK    6  A    between atoms: C_6  and  C_21
REMARK    7  A    between atoms: O_7  and  C_8
REMARK    8  A    between atoms: C_24  and  O_25
REMARK    9  A    between atoms: O_25  and  C_26
REMARK                            x       y       z     vdW  Elec       q    Type
REMARK                         _______ _______ _______ _____ _____    ______ ____
ROOT
ATOM      1  C   UNL     1       7.060   6.480  17.398  0.00  0.00    +0.000 C 
ENDROOT
BRANCH   1   2
ATOM      2  C   UNL     1       5.663   6.248  17.972  0.00  0.00    +0.000 A 
ATOM      3  C   UNL     1       4.548   6.919  17.445  0.00  0.00    +0.000 A 
ATOM      4  C   UNL     1       3.295   6.796  18.056  0.00  0.00    +0.000 A 
ATOM      5  C   UNL     1       3.132   5.998  19.189  0.00  0.00    +0.000 A 
ATOM      6  C   UNL     1       4.229   5.306  19.697  0.00  0.00    +0.000 A 
ATOM      7  C   UNL     1       5.474   5.409  19.078  0.00  0.00    +0.000 A 
BRANCH   5   8
ATOM      8  O   UNL     1       1.878   5.993  19.731  0.00  0.00    +0.000 OA
BRANCH   8   9
ATOM      9  C   UNL     1       1.242   4.722  19.946  0.00  0.00    +0.000 C 
ATOM     10  C   UNL     1       1.887   3.999  21.133  0.00  0.00    +0.000 C 
ATOM     11  C   UNL     1       1.496   2.534  21.177  0.00  0.00    +0.000 C 
ATOM     12  O   UNL     1       1.787   1.896  19.937  0.00  0.00    +0.000 OA
ATOM     13  C   UNL     1       1.037   2.457  18.863  0.00  0.00    +0.000 C 
ATOM     14  C   UNL     1       1.409   3.915  18.655  0.00  0.00    +0.000 C 
ENDBRANCH   8   9
ENDBRANCH   5   8
ENDBRANCH   1   2
BRANCH   1  15
ATOM     15  C   UNL     1       7.418   5.401  16.345  0.00  0.00    +0.000 C 
ATOM     16  O   UNL     1       7.967   4.327  16.566  0.00  0.00    +0.000 OA
BRANCH  15  17
ATOM     17  O   UNL     1       7.033   5.793  15.091  0.00  0.00    +0.000 OA
BRANCH  17  19
ATOM     18  C   UNL     1       5.485   4.130  14.182  0.00  0.00    +0.000 C 
ATOM     19  C   UNL     1       6.880   4.733  14.130  0.00  0.00    +0.000 C 
ENDBRANCH  17  19
ENDBRANCH  15  17
ENDBRANCH   1  15
BRANCH   1  20
ATOM     20  O   UNL     1       7.114   7.808  16.864  0.00  0.00    +0.000 OA
BRANCH  20  21
ATOM     21  C   UNL     1       7.782   8.771  17.571  0.00  0.00    +0.000 A 
ATOM     22  C   UNL     1       8.567   8.321  18.641  0.00  0.00    +0.000 A 
ATOM     23  C   UNL     1       9.294   9.225  19.428  0.00  0.00    +0.000 A 
ATOM     24  C   UNL     1       9.246  10.594  19.153  0.00  0.00    +0.000 A 
ATOM     25  C   UNL     1       8.491  11.044  18.068  0.00  0.00    +0.000 A 
ATOM     26  C   UNL     1       7.758  10.132  17.299  0.00  0.00    +0.000 A 
ATOM     27  C   UNL     1       8.522  12.486  17.639  0.00  0.00    +0.000 C 
ATOM     28  N   UNL     1       8.792  13.453  18.708  0.00  0.00    +0.000 N 
ATOM     29  C   UNL     1       8.341  14.733  18.550  0.00  0.00    +0.000 C 
ATOM     30  N   UNL     1       7.944  15.545  19.462  0.00  0.00    +0.000 NA
ATOM     31  N   UNL     1       8.315  15.178  17.274  0.00  0.00    +0.000 N 
ATOM     32  C   UNL     1       9.151  12.917  20.030  0.00  0.00    +0.000 C 
ATOM     33  C   UNL     1       9.989  11.631  19.946  0.00  0.00    +0.000 C 
ATOM     34  H   UNL     1       7.970  15.079  20.368  0.00  0.00    +0.000 HD
ATOM     35  H   UNL     1       9.178  15.001  16.778  0.00  0.00    +0.000 HD
ATOM     36  H   UNL     1       8.095  16.170  17.270  0.00  0.00    +0.000 HD
ENDBRANCH  20  21
ENDBRANCH   1  20
TORSDOF 8
ENDMDL
MODEL 3
REMARK VINA RESULT:      -8.0      2.589      5.287
REMARK  Name = 
REMARK  9 active torsions:
REMARK  status: ('A' for Active; 'I' for Inactive)
REMARK    1  A    between atoms: C_1  and  C_2
REMARK    2  A    between atoms: C_2  and  O_3
REMARK    3  A    between atoms: O_3  and  C_4
REMARK    4  A    between atoms: C_4  and  C_6
REMARK    5  A    between atoms: C_6  and  O_7
REMARK    6  A    between atoms: C_6  and  C_21
REMARK    7  A    between atoms: O_7  and  C_8
REMARK    8  A    between atoms: C_24  and  O_25
REMARK    9  A    between atoms: O_25  and  C_26
REMARK                            x       y       z     vdW  Elec       q    Type
REMARK                         _______ _______ _______ _____ _____    ______ ____
ROOT
ATOM      1  C   UNL     1       2.176   6.164  19.507  0.00  0.00    +0.000 C 
ENDROOT
BRANCH   1   2
ATOM      2  C   UNL     1       3.448   6.028  18.672  0.00  0.00    +0.000 A 
ATOM      3  C   UNL     1       3.640   6.807  17.520  0.00  0.00    +0.000 A 
ATOM      4  C   UNL     1       4.748   6.588  16.695  0.00  0.00    +0.000 A 
ATOM      5  C   UNL     1       5.685   5.602  17.010  0.00  0.00    +0.000 A 
ATOM      6  C   UNL     1       5.515   4.849  18.169  0.00  0.00    +0.000 A 
ATOM      7  C   UNL     1       4.423   5.079  19.005  0.00  0.00    +0.000 A 
BRANCH   5   8
ATOM      8  O   UNL     1       6.698   5.442  16.107  0.00  0.00    +0.000 OA
BRANCH   8   9
ATOM      9  C   UNL     1       6.348   5.276  14.724  0.00  0.00    +0.000 C 
ATOM     10  C   UNL     1       5.635   3.938  14.512  0.00  0.00    +0.000 C 
ATOM     11  C   UNL     1       5.563   3.567  13.043  0.00  0.00    +0.000 C 
ATOM     12  O   UNL     1       6.860   3.583  12.454  0.00  0.00    +0.000 OA
ATOM     13  C   UNL     1       7.442   4.884  12.489  0.00  0.00    +0.000 C 
ATOM     14  C   UNL     1       7.652   5.336  13.924  0.00  0.00    +0.000 C 
ENDBRANCH   8   9
ENDBRANCH   5   8
ENDBRANCH   1   2
BRANCH   1  15
ATOM     15  C   UNL     1       1.704   4.785  20.036  0.00  0.00    +0.000 C 
ATOM     16  O   UNL     1       1.805   4.379  21.189  0.00  0.00    +0.000 OA
BRANCH  15  17
ATOM     17  O   UNL     1       1.137   4.043  19.036  0.00  0.00    +0.000 OA
BRANCH  17  19
ATOM     18  C   UNL     1       2.364   2.329  17.794  0.00  0.00    +0.000 C 
ATOM     19  C   UNL     1       1.508   2.654  19.008  0.00  0.00    +0.000 C 
ENDBRANCH  17  19
ENDBRANCH  15  17
ENDBRANCH   1  15
BRANCH   1  20
ATOM     20  O   UNL     1       2.425   7.101  20.562  0.00  0.00    +0.000 OA
BRANCH  20  21
ATOM     21  C   UNL     1       1.623   8.207  20.656  0.00  0.00    +0.000 A 
ATOM     22  C   UNL     1       1.474   8.757  21.936  0.00  0.00    +0.000 A 
ATOM     23  C   UNL     1       0.676   9.891  22.142  0.00  0.00    +0.000 A 
ATOM     24  C   UNL     1       0.017  10.491  21.066  0.00  0.00    +0.000 A 
ATOM     25  C   UNL     1       0.188   9.966  19.784  0.00  0.00    +0.000 A 
ATOM     26  C   UNL     1       0.975   8.824  19.595  0.00  0.00    +0.000 A 
ATOM     27  C   UNL     1      -0.378  10.658  18.574  0.00  0.00    +0.000 C 
ATOM     28  N   UNL     1      -1.590  11.449  18.813  0.00  0.00    +0.000 N 
ATOM     29  C   UNL     1      -2.437  11.664  17.763  0.00  0.00    +0.000 C 
ATOM     30  N   UNL     1      -3.716  11.786  17.795  0.00  0.00    +0.000 NA
ATOM     31  N   UNL     1      -1.840  11.756  16.553  0.00  0.00    +0.000 N 
ATOM     32  C   UNL     1      -2.031  11.606  20.208  0.00  0.00    +0.000 C 
ATOM     33  C   UNL     1      -0.859  11.705  21.197  0.00  0.00    +0.000 C 
ATOM     34  H   UNL     1      -4.046  11.654  18.750  0.00  0.00    +0.000 HD
ATOM     35  H   UNL     1      -1.047  12.382  16.554  0.00  0.00    +0.000 HD
ATOM     36  H   UNL     1      -2.526  12.046  15.863  0.00  0.00    +0.000 HD
ENDBRANCH  20  21
ENDBRANCH   1  20
TORSDOF 8
ENDMDL
MODEL 4
REMARK VINA RESULT:      -8.0      2.728      5.321
REMARK  Name = 
REMARK  9 active torsions:
REMARK  status: ('A' for Active; 'I' for Inactive)
REMARK    1  A    between atoms: C_1  and  C_2
REMARK    2  A    between atoms: C_2  and  O_3
REMARK    3  A    between atoms: O_3  and  C_4
REMARK    4  A    between atoms: C_4  and  C_6
REMARK    5  A    between atoms: C_6  and  O_7
REMARK    6  A    between atoms: C_6  and  C_21
REMARK    7  A    between atoms: O_7  and  C_8
REMARK    8  A    between atoms: C_24  and  O_25
REMARK    9  A    between atoms: O_25  and  C_26
REMARK                            x       y       z     vdW  Elec       q    Type
REMARK                         _______ _______ _______ _____ _____    ______ ____
ROOT
ATOM      1  C   UNL     1       1.948   5.945  19.359  0.00  0.00    +0.000 C 
ENDROOT
BRANCH   1   2
ATOM      2  C   UNL     1       3.016   5.592  18.325  0.00  0.00    +0.000 A 
ATOM      3  C   UNL     1       3.189   4.267  17.893  0.00  0.00    +0.000 A 
ATOM      4  C   UNL     1       4.249   3.935  17.042  0.00  0.00    +0.000 A 
ATOM      5  C   UNL     1       5.141   4.913  16.603  0.00  0.00    +0.000 A 
ATOM      6  C   UNL     1       4.955   6.233  17.004  0.00  0.00    +0.000 A 
ATOM      7  C   UNL     1       3.888   6.572  17.834  0.00  0.00    +0.000 A 
BRANCH   5   8
ATOM      8  O   UNL     1       6.167   4.465  15.818  0.00  0.00    +0.000 OA
BRANCH   8   9
ATOM      9  C   UNL     1       6.089   4.708  14.404  0.00  0.00    +0.000 C 
ATOM     10  C   UNL     1       5.623   3.445  13.673  0.00  0.00    +0.000 C 
ATOM     11  C   UNL     1       5.860   3.543  12.178  0.00  0.00    +0.000 C 
ATOM     12  O   UNL     1       7.224   3.851  11.902  0.00  0.00    +0.000 OA
ATOM     13  C   UNL     1       7.598   5.121  12.430  0.00  0.00    +0.000 C 
ATOM     14  C   UNL     1       7.490   5.123  13.945  0.00  0.00    +0.000 C 
ENDBRANCH   8   9
ENDBRANCH   5   8
ENDBRANCH   1   2
BRANCH   1  15
ATOM     15  C   UNL     1       1.495   4.689  20.147  0.00  0.00    +0.000 C 
ATOM     16  O   UNL     1       0.583   3.929  19.837  0.00  0.00    +0.000 OA
BRANCH  15  17
ATOM     17  O   UNL     1       2.259   4.513  21.269  0.00  0.00    +0.000 OA
BRANCH  17  19
ATOM     18  C   UNL     1       3.366   2.358  20.927  0.00  0.00    +0.000 C 
ATOM     19  C   UNL     1       2.362   3.158  21.741  0.00  0.00    +0.000 C 
ENDBRANCH  17  19
ENDBRANCH  15  17
ENDBRANCH   1  15
BRANCH   1  20
ATOM     20  O   UNL     1       2.467   6.972  20.213  0.00  0.00    +0.000 OA
BRANCH  20  21
ATOM     21  C   UNL     1       1.695   8.077  20.451  0.00  0.00    +0.000 A 
ATOM     22  C   UNL     1       1.591   8.484  21.787  0.00  0.00    +0.000 A 
ATOM     23  C   UNL     1       0.825   9.605  22.139  0.00  0.00    +0.000 A 
ATOM     24  C   UNL     1       0.155  10.335  21.154  0.00  0.00    +0.000 A 
ATOM     25  C   UNL     1       0.282   9.953  19.817  0.00  0.00    +0.000 A 
ATOM     26  C   UNL     1       1.037   8.823  19.482  0.00  0.00    +0.000 A 
ATOM     27  C   UNL     1      -0.296  10.787  18.707  0.00  0.00    +0.000 C 
ATOM     28  N   UNL     1      -1.483  11.572  19.065  0.00  0.00    +0.000 N 
ATOM     29  C   UNL     1      -2.349  11.921  18.068  0.00  0.00    +0.000 C 
ATOM     30  N   UNL     1      -3.623  12.065  18.147  0.00  0.00    +0.000 NA
ATOM     31  N   UNL     1      -1.779  12.135  16.860  0.00  0.00    +0.000 N 
ATOM     32  C   UNL     1      -1.886  11.582  20.479  0.00  0.00    +0.000 C 
ATOM     33  C   UNL     1      -0.688  11.545  21.442  0.00  0.00    +0.000 C 
ATOM     34  H   UNL     1      -3.933  11.835  19.090  0.00  0.00    +0.000 HD
ATOM     35  H   UNL     1      -0.971  12.739  16.910  0.00  0.00    +0.000 HD
ATOM     36  H   UNL     1      -2.474  12.514  16.224  0.00  0.00    +0.000 HD
ENDBRANCH  20  21
ENDBRANCH   1  20
TORSDOF 8
ENDMDL
MODEL 5
REMARK VINA RESULT:      -7.9      3.153      5.214
REMARK  Name = 
REMARK  9 active torsions:
REMARK  status: ('A' for Active; 'I' for Inactive)
REMARK    1  A    between atoms: C_1  and  C_2
REMARK    2  A    between atoms: C_2  and  O_3
REMARK    3  A    between atoms: O_3  and  C_4
REMARK    4  A    between atoms: C_4  and  C_6
REMARK    5  A    between atoms: C_6  and  O_7
REMARK    6  A    between atoms: C_6  and  C_21
REMARK    7  A    between atoms: O_7  and  C_8
REMARK    8  A    between atoms: C_24  and  O_25
REMARK    9  A    between atoms: O_25  and  C_26
REMARK                            x       y       z     vdW  Elec       q    Type
REMARK                         _______ _______ _______ _____ _____    ______ ____
ROOT
ATOM      1  C   UNL     1       2.319   5.974  19.240  0.00  0.00    +0.000 C 
ENDROOT
BRANCH   1   2
ATOM      2  C   UNL     1       3.493   5.471  18.402  0.00  0.00    +0.000 A 
ATOM      3  C   UNL     1       4.377   6.371  17.787  0.00  0.00    +0.000 A 
ATOM      4  C   UNL     1       5.372   5.905  16.921  0.00  0.00    +0.000 A 
ATOM      5  C   UNL     1       5.509   4.540  16.666  0.00  0.00    +0.000 A 
ATOM      6  C   UNL     1       4.655   3.641  17.298  0.00  0.00    +0.000 A 
ATOM      7  C   UNL     1       3.676   4.100  18.178  0.00  0.00    +0.000 A 
BRANCH   5   8
ATOM      8  O   UNL     1       6.481   4.204  15.766  0.00  0.00    +0.000 OA
BRANCH   8   9
ATOM      9  C   UNL     1       6.281   4.569  14.390  0.00  0.00    +0.000 C 
ATOM     10  C   UNL     1       5.815   3.355  13.581  0.00  0.00    +0.000 C 
ATOM     11  C   UNL     1       5.929   3.599  12.088  0.00  0.00    +0.000 C 
ATOM     12  O   UNL     1       7.251   3.999  11.741  0.00  0.00    +0.000 OA
ATOM     13  C   UNL     1       7.610   5.234  12.356  0.00  0.00    +0.000 C 
ATOM     14  C   UNL     1       7.622   5.094  13.869  0.00  0.00    +0.000 C 
ENDBRANCH   8   9
ENDBRANCH   5   8
ENDBRANCH   1   2
BRANCH   1  15
ATOM     15  C   UNL     1       1.937   4.950  20.340  0.00  0.00    +0.000 C 
ATOM     16  O   UNL     1       2.565   4.726  21.370  0.00  0.00    +0.000 OA
BRANCH  15  17
ATOM     17  O   UNL     1       0.774   4.302  20.024  0.00  0.00    +0.000 OA
BRANCH  17  19
ATOM     18  C   UNL     1       0.750   2.211  18.754  0.00  0.00    +0.000 C 
ATOM     19  C   UNL     1       0.817   2.867  20.124  0.00  0.00    +0.000 C 
ENDBRANCH  17  19
ENDBRANCH  15  17
ENDBRANCH   1  15
BRANCH   1  20
ATOM     20  O   UNL     1       2.665   7.255  19.780  0.00  0.00    +0.000 OA
BRANCH  20  21
ATOM     21  C   UNL     1       1.803   8.301  19.585  0.00  0.00    +0.000 A 
ATOM     22  C   UNL     1       1.695   8.780  18.273  0.00  0.00    +0.000 A 
ATOM     23  C   UNL     1       0.839   9.846  17.966  0.00  0.00    +0.000 A 
ATOM     24  C   UNL     1       0.077  10.448  18.971  0.00  0.00    +0.000 A 
ATOM     25  C   UNL     1       0.156   9.953  20.274  0.00  0.00    +0.000 A 
ATOM     26  C   UNL     1       1.027   8.897  20.570  0.00  0.00    +0.000 A 
ATOM     27  C   UNL     1      -0.749  10.465  21.361  0.00  0.00    +0.000 C 
ATOM     28  N   UNL     1      -1.198  11.852  21.202  0.00  0.00    +0.000 N 
ATOM     29  C   UNL     1      -1.558  12.546  22.322  0.00  0.00    +0.000 C 
ATOM     30  N   UNL     1      -1.429  13.805  22.544  0.00  0.00    +0.000 NA
ATOM     31  N   UNL     1      -2.113  11.802  23.305  0.00  0.00    +0.000 N 
ATOM     32  C   UNL     1      -0.850  12.536  19.947  0.00  0.00    +0.000 C 
ATOM     33  C   UNL     1      -0.862  11.596  18.731  0.00  0.00    +0.000 C 
ATOM     34  H   UNL     1      -0.961  14.243  21.752  0.00  0.00    +0.000 HD
ATOM     35  H   UNL     1      -2.843  11.190  22.969  0.00  0.00    +0.000 HD
ATOM     36  H   UNL     1      -2.464  12.417  24.033  0.00  0.00    +0.000 HD
ENDBRANCH  20  21
ENDBRANCH   1  20
TORSDOF 8
ENDMDL
MODEL 6
REMARK VINA RESULT:      -7.8      2.776      5.474
REMARK  Name = 
REMARK  9 active torsions:
REMARK  status: ('A' for Active; 'I' for Inactive)
REMARK    1  A    between atoms: C_1  and  C_2
REMARK    2  A    between atoms: C_2  and  O_3
REMARK    3  A    between atoms: O_3  and  C_4
REMARK    4  A    between atoms: C_4  and  C_6
REMARK    5  A    between atoms: C_6  and  O_7
REMARK    6  A    between atoms: C_6  and  C_21
REMARK    7  A    between atoms: O_7  and  C_8
REMARK    8  A    between atoms: C_24  and  O_25
REMARK    9  A    between atoms: O_25  and  C_26
REMARK                            x       y       z     vdW  Elec       q    Type
REMARK                         _______ _______ _______ _____ _____    ______ ____
ROOT
ATOM      1  C   UNL     1       2.256   6.007  18.600  0.00  0.00    +0.000 C 
ENDROOT
BRANCH   1   2
ATOM      2  C   UNL     1       3.603   5.895  17.889  0.00  0.00    +0.000 A 
ATOM      3  C   UNL     1       4.139   6.985  17.185  0.00  0.00    +0.000 A 
ATOM      4  C   UNL     1       5.310   6.836  16.435  0.00  0.00    +0.000 A 
ATOM      5  C   UNL     1       5.970   5.608  16.385  0.00  0.00    +0.000 A 
ATOM      6  C   UNL     1       5.460   4.532  17.107  0.00  0.00    +0.000 A 
ATOM      7  C   UNL     1       4.305   4.683  17.873  0.00  0.00    +0.000 A 
BRANCH   5   8
ATOM      8  O   UNL     1       7.075   5.564  15.581  0.00  0.00    +0.000 OA
BRANCH   8   9
ATOM      9  C   UNL     1       7.102   4.590  14.526  0.00  0.00    +0.000 C 
ATOM     10  C   UNL     1       7.791   5.167  13.286  0.00  0.00    +0.000 C 
ATOM     11  C   UNL     1       7.536   4.318  12.055  0.00  0.00    +0.000 C 
ATOM     12  O   UNL     1       6.138   4.130  11.854  0.00  0.00    +0.000 OA
ATOM     13  C   UNL     1       5.537   3.422  12.935  0.00  0.00    +0.000 C 
ATOM     14  C   UNL     1       5.647   4.220  14.223  0.00  0.00    +0.000 C 
ENDBRANCH   8   9
ENDBRANCH   5   8
ENDBRANCH   1   2
BRANCH   1  15
ATOM     15  C   UNL     1       1.530   4.637  18.642  0.00  0.00    +0.000 C 
ATOM     16  O   UNL     1       1.302   3.909  17.682  0.00  0.00    +0.000 OA
BRANCH  15  17
ATOM     17  O   UNL     1       1.164   4.316  19.921  0.00  0.00    +0.000 OA
BRANCH  17  19
ATOM     18  C   UNL     1       2.406   2.976  21.548  0.00  0.00    +0.000 C 
ATOM     19  C   UNL     1       1.485   2.977  20.339  0.00  0.00    +0.000 C 
ENDBRANCH  17  19
ENDBRANCH  15  17
ENDBRANCH   1  15
BRANCH   1  20
ATOM     20  O   UNL     1       2.478   6.551  19.907  0.00  0.00    +0.000 OA
BRANCH  20  21
ATOM     21  C   UNL     1       1.821   7.700  20.257  0.00  0.00    +0.000 A 
ATOM     22  C   UNL     1       1.801   8.012  21.622  0.00  0.00    +0.000 A 
ATOM     23  C   UNL     1       1.156   9.167  22.086  0.00  0.00    +0.000 A 
ATOM     24  C   UNL     1       0.524  10.028  21.185  0.00  0.00    +0.000 A 
ATOM     25  C   UNL     1       0.568   9.739  19.820  0.00  0.00    +0.000 A 
ATOM     26  C   UNL     1       1.203   8.574  19.372  0.00  0.00    +0.000 A 
ATOM     27  C   UNL     1       0.034  10.705  18.799  0.00  0.00    +0.000 C 
ATOM     28  N   UNL     1      -1.062  11.564  19.261  0.00  0.00    +0.000 N 
ATOM     29  C   UNL     1      -1.925  12.066  18.329  0.00  0.00    +0.000 C 
ATOM     30  N   UNL     1      -3.177  12.319  18.471  0.00  0.00    +0.000 NA
ATOM     31  N   UNL     1      -1.380  12.319  17.118  0.00  0.00    +0.000 N 
ATOM     32  C   UNL     1      -1.413  11.503  20.688  0.00  0.00    +0.000 C 
ATOM     33  C   UNL     1      -0.192  11.284  21.595  0.00  0.00    +0.000 C 
ATOM     34  H   UNL     1      -3.475  12.046  19.407  0.00  0.00    +0.000 HD
ATOM     35  H   UNL     1      -0.517  12.842  17.178  0.00  0.00    +0.000 HD
ATOM     36  H   UNL     1      -2.058  12.807  16.540  0.00  0.00    +0.000 HD
ENDBRANCH  20  21
ENDBRANCH   1  20
TORSDOF 8
ENDMDL
MODEL 7
REMARK VINA RESULT:      -7.8      6.047     10.000
REMARK  Name = 
REMARK  9 active torsions:
REMARK  status: ('A' for Active; 'I' for Inactive)
REMARK    1  A    between atoms: C_1  and  C_2
REMARK    2  A    between atoms: C_2  and  O_3
REMARK    3  A    between atoms: O_3  and  C_4
REMARK    4  A    between atoms: C_4  and  C_6
REMARK    5  A    between atoms: C_6  and  O_7
REMARK    6  A    between atoms: C_6  and  C_21
REMARK    7  A    between atoms: O_7  and  C_8
REMARK    8  A    between atoms: C_24  and  O_25
REMARK    9  A    between atoms: O_25  and  C_26
REMARK                            x       y       z     vdW  Elec       q    Type
REMARK                         _______ _______ _______ _____ _____    ______ ____
ROOT
ATOM      1  C   UNL     1       1.225  10.393  18.920  0.00  0.00    +0.000 C 
ENDROOT
BRANCH   1   2
ATOM      2  C   UNL     1       1.540  11.877  18.746  0.00  0.00    +0.000 A 
ATOM      3  C   UNL     1       2.656  12.293  18.002  0.00  0.00    +0.000 A 
ATOM      4  C   UNL     1       3.007  13.647  17.952  0.00  0.00    +0.000 A 
ATOM      5  C   UNL     1       2.248  14.603  18.629  0.00  0.00    +0.000 A 
ATOM      6  C   UNL     1       1.123  14.198  19.341  0.00  0.00    +0.000 A 
ATOM      7  C   UNL     1       0.757  12.853  19.376  0.00  0.00    +0.000 A 
BRANCH   5   8
ATOM      8  O   UNL     1       2.713  15.886  18.552  0.00  0.00    +0.000 OA
BRANCH   8   9
ATOM      9  C   UNL     1       3.725  16.293  19.487  0.00  0.00    +0.000 C 
ATOM     10  C   UNL     1       3.237  17.487  20.312  0.00  0.00    +0.000 C 
ATOM     11  C   UNL     1       4.377  18.163  21.051  0.00  0.00    +0.000 C 
ATOM     12  O   UNL     1       5.419  18.523  20.148  0.00  0.00    +0.000 OA
ATOM     13  C   UNL     1       5.997  17.382  19.521  0.00  0.00    +0.000 C 
ATOM     14  C   UNL     1       4.965  16.662  18.668  0.00  0.00    +0.000 C 
ENDBRANCH   8   9
ENDBRANCH   5   8
ENDBRANCH   1   2
BRANCH   1  15
ATOM     15  C   UNL     1      -0.305  10.141  18.912  0.00  0.00    +0.000 C 
ATOM     16  O   UNL     1      -1.033  10.067  19.896  0.00  0.00    +0.000 OA
BRANCH  15  17
ATOM     17  O   UNL     1      -0.773  10.009  17.632  0.00  0.00    +0.000 OA
BRANCH  17  19
ATOM     18  C   UNL     1      -2.642   9.951  16.055  0.00  0.00    +0.000 C 
ATOM     19  C   UNL     1      -2.160  10.340  17.443  0.00  0.00    +0.000 C 
ENDBRANCH  17  19
ENDBRANCH  15  17
ENDBRANCH   1  15
BRANCH   1  20
ATOM     20  O   UNL     1       1.907   9.662  17.894  0.00  0.00    +0.000 OA
BRANCH  20  21
ATOM     21  C   UNL     1       2.446   8.443  18.207  0.00  0.00    +0.000 A 
ATOM     22  C   UNL     1       1.957   7.829  19.367  0.00  0.00    +0.000 A 
ATOM     23  C   UNL     1       2.441   6.579  19.777  0.00  0.00    +0.000 A 
ATOM     24  C   UNL     1       3.422   5.924  19.027  0.00  0.00    +0.000 A 
ATOM     25  C   UNL     1       3.889   6.517  17.852  0.00  0.00    +0.000 A 
ATOM     26  C   UNL     1       3.408   7.773  17.463  0.00  0.00    +0.000 A 
ATOM     27  C   UNL     1       4.833   5.792  16.932  0.00  0.00    +0.000 C 
ATOM     28  N   UNL     1       5.715   4.816  17.581  0.00  0.00    +0.000 N 
ATOM     29  C   UNL     1       6.899   4.511  16.972  0.00  0.00    +0.000 C 
ATOM     30  N   UNL     1       8.012   4.193  17.530  0.00  0.00    +0.000 NA
ATOM     31  N   UNL     1       6.878   4.558  15.621  0.00  0.00    +0.000 N 
ATOM     32  C   UNL     1       5.485   4.540  19.008  0.00  0.00    +0.000 C 
ATOM     33  C   UNL     1       3.998   4.586  19.393  0.00  0.00    +0.000 C 
ATOM     34  H   UNL     1       7.909   4.237  18.542  0.00  0.00    +0.000 HD
ATOM     35  H   UNL     1       6.092   4.062  15.223  0.00  0.00    +0.000 HD
ATOM     36  H   UNL     1       7.755   4.192  15.260  0.00  0.00    +0.000 HD
ENDBRANCH  20  21
ENDBRANCH   1  20
TORSDOF 8
ENDMDL
MODEL 8
REMARK VINA RESULT:      -7.8      2.103      3.087
REMARK  Name = 
REMARK  9 active torsions:
REMARK  status: ('A' for Active; 'I' for Inactive)
REMARK    1  A    between atoms: C_1  and  C_2
REMARK    2  A    between atoms: C_2  and  O_3
REMARK    3  A    between atoms: O_3  and  C_4
REMARK    4  A    between atoms: C_4  and  C_6
REMARK    5  A    between atoms: C_6  and  O_7
REMARK    6  A    between atoms: C_6  and  C_21
REMARK    7  A    between atoms: O_7  and  C_8
REMARK    8  A    between atoms: C_24  and  O_25
REMARK    9  A    between atoms: O_25  and  C_26
REMARK                            x       y       z     vdW  Elec       q    Type
REMARK                         _______ _______ _______ _____ _____    ______ ____
ROOT
ATOM      1  C   UNL     1       0.282  10.779  19.478  0.00  0.00    +0.000 C 
ENDROOT
BRANCH   1   2
ATOM      2  C   UNL     1       1.085   9.480  19.486  0.00  0.00    +0.000 A 
ATOM      3  C   UNL     1       1.700   9.006  18.316  0.00  0.00    +0.000 A 
ATOM      4  C   UNL     1       2.327   7.756  18.303  0.00  0.00    +0.000 A 
ATOM      5  C   UNL     1       2.361   6.966  19.453  0.00  0.00    +0.000 A 
ATOM      6  C   UNL     1       1.780   7.445  20.624  0.00  0.00    +0.000 A 
ATOM      7  C   UNL     1       1.173   8.700  20.647  0.00  0.00    +0.000 A 
BRANCH   5   8
ATOM      8  O   UNL     1       2.954   5.743  19.311  0.00  0.00    +0.000 OA
BRANCH   8   9
ATOM      9  C   UNL     1       2.201   4.699  18.674  0.00  0.00    +0.000 C 
ATOM     10  C   UNL     1       1.277   4.015  19.686  0.00  0.00    +0.000 C 
ATOM     11  C   UNL     1       0.734   2.703  19.153  0.00  0.00    +0.000 C 
ATOM     12  O   UNL     1       1.796   1.850  18.733  0.00  0.00    +0.000 OA
ATOM     13  C   UNL     1       2.538   2.418  17.658  0.00  0.00    +0.000 C 
ATOM     14  C   UNL     1       3.214   3.706  18.097  0.00  0.00    +0.000 C 
ENDBRANCH   8   9
ENDBRANCH   5   8
ENDBRANCH   1   2
BRANCH   1  15
ATOM     15  C   UNL     1       1.160  11.982  19.908  0.00  0.00    +0.000 C 
ATOM     16  O   UNL     1       1.488  12.266  21.055  0.00  0.00    +0.000 OA
BRANCH  15  17
ATOM     17  O   UNL     1       1.548  12.718  18.821  0.00  0.00    +0.000 OA
BRANCH  17  19
ATOM     18  C   UNL     1       3.360  14.284  18.319  0.00  0.00    +0.000 C 
ATOM     19  C   UNL     1       2.093  14.017  19.116  0.00  0.00    +0.000 C 
ENDBRANCH  17  19
ENDBRANCH  15  17
ENDBRANCH   1  15
BRANCH   1  20
ATOM     20  O   UNL     1      -0.286  10.951  18.174  0.00  0.00    +0.000 OA
BRANCH  20  21
ATOM     21  C   UNL     1      -1.640  11.126  18.068  0.00  0.00    +0.000 A 
ATOM     22  C   UNL     1      -2.249  10.573  16.934  0.00  0.00    +0.000 A 
ATOM     23  C   UNL     1      -3.630  10.694  16.730  0.00  0.00    +0.000 A 
ATOM     24  C   UNL     1      -4.422  11.370  17.663  0.00  0.00    +0.000 A 
ATOM     25  C   UNL     1      -3.825  11.894  18.811  0.00  0.00    +0.000 A 
ATOM     26  C   UNL     1      -2.441  11.779  18.994  0.00  0.00    +0.000 A 
ATOM     27  C   UNL     1      -4.649  12.499  19.914  0.00  0.00    +0.000 C 
ATOM     28  N   UNL     1      -5.918  13.100  19.491  0.00  0.00    +0.000 N 
ATOM     29  C   UNL     1      -6.456  14.085  20.270  0.00  0.00    +0.000 C 
ATOM     30  N   UNL     1      -7.155  15.094  19.890  0.00  0.00    +0.000 NA
ATOM     31  N   UNL     1      -6.212  13.968  21.594  0.00  0.00    +0.000 N 
ATOM     32  C   UNL     1      -6.319  12.917  18.088  0.00  0.00    +0.000 C 
ATOM     33  C   UNL     1      -5.907  11.548  17.523  0.00  0.00    +0.000 C 
ATOM     34  H   UNL     1      -7.230  15.093  18.874  0.00  0.00    +0.000 HD
ATOM     35  H   UNL     1      -6.401  13.040  21.947  0.00  0.00    +0.000 HD
ATOM     36  H   UNL     1      -6.757  14.663  22.098  0.00  0.00    +0.000 HD
ENDBRANCH  20  21
ENDBRANCH   1  20
TORSDOF 8
ENDMDL
MODEL 9
REMARK VINA RESULT:      -7.8      2.077      2.660
REMARK  Name = 
REMARK  9 active torsions:
REMARK  status: ('A' for Active; 'I' for Inactive)
REMARK    1  A    between atoms: C_1  and  C_2
REMARK    2  A    between atoms: C_2  and  O_3
REMARK    3  A    between atoms: O_3  and  C_4
REMARK    4  A    between atoms: C_4  and  C_6
REMARK    5  A    between atoms: C_6  and  O_7
REMARK    6  A    between atoms: C_6  and  C_21
REMARK    7  A    between atoms: O_7  and  C_8
REMARK    8  A    between atoms: C_24  and  O_25
REMARK    9  A    between atoms: O_25  and  C_26
REMARK                            x       y       z     vdW  Elec       q    Type
REMARK                         _______ _______ _______ _____ _____    ______ ____
ROOT
ATOM      1  C   UNL     1       0.098  11.163  19.687  0.00  0.00    +0.000 C 
ENDROOT
BRANCH   1   2
ATOM      2  C   UNL     1       0.817   9.855  19.365  0.00  0.00    +0.000 A 
ATOM      3  C   UNL     1       1.102   8.922  20.375  0.00  0.00    +0.000 A 
ATOM      4  C   UNL     1       1.870   7.787  20.093  0.00  0.00    +0.000 A 
ATOM      5  C   UNL     1       2.353   7.558  18.804  0.00  0.00    +0.000 A 
ATOM      6  C   UNL     1       2.046   8.464  17.792  0.00  0.00    +0.000 A 
ATOM      7  C   UNL     1       1.264   9.585  18.065  0.00  0.00    +0.000 A 
BRANCH   5   8
ATOM      8  O   UNL     1       3.133   6.446  18.655  0.00  0.00    +0.000 OA
BRANCH   8   9
ATOM      9  C   UNL     1       2.617   5.193  19.132  0.00  0.00    +0.000 C 
ATOM     10  C   UNL     1       3.764   4.277  19.571  0.00  0.00    +0.000 C 
ATOM     11  C   UNL     1       3.302   2.843  19.746  0.00  0.00    +0.000 C 
ATOM     12  O   UNL     1       2.662   2.372  18.564  0.00  0.00    +0.000 OA
ATOM     13  C   UNL     1       1.484   3.116  18.265  0.00  0.00    +0.000 C 
ATOM     14  C   UNL     1       1.828   4.567  17.978  0.00  0.00    +0.000 C 
ENDBRANCH   8   9
ENDBRANCH   5   8
ENDBRANCH   1   2
BRANCH   1  15
ATOM     15  C   UNL     1       1.056  12.175  20.368  0.00  0.00    +0.000 C 
ATOM     16  O   UNL     1       1.980  12.774  19.828  0.00  0.00    +0.000 OA
BRANCH  15  17
ATOM     17  O   UNL     1       0.740  12.335  21.690  0.00  0.00    +0.000 OA
BRANCH  17  19
ATOM     18  C   UNL     1       0.007  14.590  22.294  0.00  0.00    +0.000 C 
ATOM     19  C   UNL     1      -0.404  13.166  21.957  0.00  0.00    +0.000 C 
ENDBRANCH  17  19
ENDBRANCH  15  17
ENDBRANCH   1  15
BRANCH   1  20
ATOM     20  O   UNL     1      -0.471  11.676  18.476  0.00  0.00    +0.000 OA
BRANCH  20  21
ATOM     21  C   UNL     1      -1.833  11.662  18.337  0.00  0.00    +0.000 A 
ATOM     22  C   UNL     1      -2.327  11.140  17.135  0.00  0.00    +0.000 A 
ATOM     23  C   UNL     1      -3.707  11.078  16.892  0.00  0.00    +0.000 A 
ATOM     24  C   UNL     1      -4.611  11.537  17.854  0.00  0.00    +0.000 A 
ATOM     25  C   UNL     1      -4.124  12.028  19.067  0.00  0.00    +0.000 A 
ATOM     26  C   UNL     1      -2.744  12.098  19.290  0.00  0.00    +0.000 A 
ATOM     27  C   UNL     1      -5.054  12.395  20.191  0.00  0.00    +0.000 C 
ATOM     28  N   UNL     1      -6.389  12.844  19.779  0.00  0.00    +0.000 N 
ATOM     29  C   UNL     1      -7.085  13.659  20.626  0.00  0.00    +0.000 C 
ATOM     30  N   UNL     1      -7.916  14.588  20.317  0.00  0.00    +0.000 NA
ATOM     31  N   UNL     1      -6.856  13.450  21.942  0.00  0.00    +0.000 N 
ATOM     32  C   UNL     1      -6.726  12.743  18.351  0.00  0.00    +0.000 C 
ATOM     33  C   UNL     1      -6.103  11.510  17.676  0.00  0.00    +0.000 C 
ATOM     34  H   UNL     1      -7.967  14.676  19.303  0.00  0.00    +0.000 HD
ATOM     35  H   UNL     1      -6.913  12.474  22.200  0.00  0.00    +0.000 HD
ATOM     36  H   UNL     1      -7.509  14.005  22.488  0.00  0.00    +0.000 HD
ENDBRANCH  20  21
ENDBRANCH   1  20
TORSDOF 8
ENDMDL
