MODEL 1
REMARK VINA RESULT:      -7.9      0.000      0.000
REMARK  Name = 
REMARK  7 active torsions:
REMARK  status: ('A' for Active; 'I' for Inactive)
REMARK    1  A    between atoms: C_1  and  O_2
REMARK    2  A    between atoms: O_2  and  C_3
REMARK    3  A    between atoms: C_6  and  N_7
REMARK    4  A    between atoms: N_7  and  C_8
REMARK    5  A    between atoms: C_9  and  C_11
REMARK    6  A    between atoms: C_12  and  C_13
REMARK    7  A    between atoms: C_22  and  C_23
REMARK                            x       y       z     vdW  Elec       q    Type
REMARK                         _______ _______ _______ _____ _____    ______ ____
ROOT
ATOM      1  C   UNL     1       3.113   4.485  18.823  0.00  0.00    +0.000 A 
ATOM      2  C   UNL     1       4.406   4.329  18.181  0.00  0.00    +0.000 A 
ATOM      3  N   UNL     1       4.447   3.162  17.519  0.00  0.00    +0.000 NA
ATOM      4  O   UNL     1       3.190   2.628  17.578  0.00  0.00    +0.000 OA
ATOM      5  C   UNL     1       2.380   3.422  18.320  0.00  0.00    +0.000 A 
ATOM      6  C   UNL     1       0.981   2.951  18.380  0.00  0.00    +0.000 C 
ENDROOT
BRANCH   2   7
ATOM      7  C   UNL     1       5.602   5.196  18.218  0.00  0.00    +0.000 A 
ATOM      8  C   UNL     1       6.416   5.199  19.364  0.00  0.00    +0.000 A 
ATOM      9  C   UNL     1       7.548   6.016  19.451  0.00  0.00    +0.000 A 
ATOM     10  C   UNL     1       7.908   6.829  18.382  0.00  0.00    +0.000 A 
ATOM     11  C   UNL     1       7.126   6.832  17.230  0.00  0.00    +0.000 A 
ATOM     12  C   UNL     1       5.979   6.031  17.141  0.00  0.00    +0.000 A 
ATOM     13 CL   UNL     1       5.071   6.177  15.672  0.00  0.00    +0.000 Cl
ENDBRANCH   2   7
BRANCH   1  16
ATOM     14  N   UNL     1       2.296   6.853  19.081  0.00  0.00    +0.000 N 
ATOM     15  C   UNL     1       2.396   7.072  17.638  0.00  0.00    +0.000 C 
ATOM     16  C   UNL     1       2.691   5.608  19.668  0.00  0.00    +0.000 C 
ATOM     17  O   UNL     1       2.620   5.381  20.873  0.00  0.00    +0.000 OA
BRANCH  14  21
ATOM     18  C   UNL     1       0.722  10.160  21.402  0.00  0.00    +0.000 A 
ATOM     19  C   UNL     1       1.084   8.970  22.019  0.00  0.00    +0.000 A 
ATOM     20  C   UNL     1       1.617   7.901  21.276  0.00  0.00    +0.000 A 
ATOM     21  C   UNL     1       1.789   7.970  19.883  0.00  0.00    +0.000 A 
ATOM     22  C   UNL     1       1.417   9.196  19.292  0.00  0.00    +0.000 A 
ATOM     23  C   UNL     1       0.887  10.269  20.030  0.00  0.00    +0.000 A 
BRANCH  18  25
ATOM     24  C   UNL     1      -0.902  10.712  23.026  0.00  0.00    +0.000 C 
ATOM     25  O   UNL     1       0.197  11.120  22.218  0.00  0.00    +0.000 OA
ENDBRANCH  18  25
ENDBRANCH  14  21
ENDBRANCH   1  16
TORSDOF 4
ENDMDL
MODEL 2
REMARK VINA RESULT:      -7.7      0.986      1.514
REMARK  Name = 
REMARK  7 active torsions:
REMARK  status: ('A' for Active; 'I' for Inactive)
REMARK    1  A    between atoms: C_1  and  O_2
REMARK    2  A    between atoms: O_2  and  C_3
REMARK    3  A    between atoms: C_6  and  N_7
REMARK    4  A    between atoms: N_7  and  C_8
REMARK    5  A    between atoms: C_9  and  C_11
REMARK    6  A    between atoms: C_12  and  C_13
REMARK    7  A    between atoms: C_22  and  C_23
REMARK                            x       y       z     vdW  Elec       q    Type
REMARK                         _______ _______ _______ _____ _____    ______ ____
ROOT
ATOM      1  C   UNL     1       3.118   4.995  18.368  0.00  0.00    +0.000 A 
ATOM      2  C   UNL     1       4.505   4.633  18.133  0.00  0.00    +0.000 A 
ATOM      3  N   UNL     1       4.597   3.315  17.897  0.00  0.00    +0.000 NA
ATOM      4  O   UNL     1       3.320   2.835  17.819  0.00  0.00    +0.000 OA
ATOM      5  C   UNL     1       2.433   3.830  18.062  0.00  0.00    +0.000 A 
ATOM      6  C   UNL     1       1.021   3.411  17.930  0.00  0.00    +0.000 C 
ENDROOT
BRANCH   2   7
ATOM      7  C   UNL     1       5.729   5.459  18.182  0.00  0.00    +0.000 A 
ATOM      8  C   UNL     1       6.597   5.342  19.281  0.00  0.00    +0.000 A 
ATOM      9  C   UNL     1       7.758   6.116  19.379  0.00  0.00    +0.000 A 
ATOM     10  C   UNL     1       8.092   7.006  18.365  0.00  0.00    +0.000 A 
ATOM     11  C   UNL     1       7.257   7.129  17.257  0.00  0.00    +0.000 A 
ATOM     12  C   UNL     1       6.081   6.371  17.161  0.00  0.00    +0.000 A 
ATOM     13 CL   UNL     1       5.110   6.666  15.756  0.00  0.00    +0.000 Cl
ENDBRANCH   2   7
BRANCH   1  16
ATOM     14  N   UNL     1       2.018   6.594  19.971  0.00  0.00    +0.000 N 
ATOM     15  C   UNL     1       1.812   5.519  20.943  0.00  0.00    +0.000 C 
ATOM     16  C   UNL     1       2.611   6.333  18.695  0.00  0.00    +0.000 C 
ATOM     17  O   UNL     1       2.806   7.205  17.852  0.00  0.00    +0.000 OA
BRANCH  14  21
ATOM     18  C   UNL     1       0.779  10.562  21.203  0.00  0.00    +0.000 A 
ATOM     19  C   UNL     1       1.003  10.273  19.863  0.00  0.00    +0.000 A 
ATOM     20  C   UNL     1       1.382   8.982  19.454  0.00  0.00    +0.000 A 
ATOM     21  C   UNL     1       1.576   7.933  20.368  0.00  0.00    +0.000 A 
ATOM     22  C   UNL     1       1.334   8.263  21.719  0.00  0.00    +0.000 A 
ATOM     23  C   UNL     1       0.951   9.550  22.134  0.00  0.00    +0.000 A 
BRANCH  18  25
ATOM     24  C   UNL     1      -0.694  12.021  22.336  0.00  0.00    +0.000 C 
ATOM     25  O   UNL     1       0.436  11.853  21.486  0.00  0.00    +0.000 OA
ENDBRANCH  18  25
ENDBRANCH  14  21
ENDBRANCH   1  16
TORSDOF 4
ENDMDL
MODEL 3
REMARK VINA RESULT:      -7.7      1.104      1.332
REMARK  Name = 
REMARK  7 active torsions:
REMARK  status: ('A' for Active; 'I' for Inactive)
REMARK    1  A    between atoms: C_1  and  O_2
REMARK    2  A    between atoms: O_2  and  C_3
REMARK    3  A    between atoms: C_6  and  N_7
REMARK    4  A    between atoms: N_7  and  C_8
REMARK    5  A    between atoms: C_9  and  C_11
REMARK    6  A    between atoms: C_12  and  C_13
REMARK    7  A    between atoms: C_22  and  C_23
REMARK                            x       y       z     vdW  Elec       q    Type
REMARK                         _______ _______ _______ _____ _____    ______ ____
ROOT
ATOM      1  C   UNL     1       3.052   5.059  18.352  0.00  0.00    +0.000 A 
ATOM      2  C   UNL     1       4.429   4.662  18.118  0.00  0.00    +0.000 A 
ATOM      3  N   UNL     1       4.486   3.346  17.863  0.00  0.00    +0.000 NA
ATOM      4  O   UNL     1       3.196   2.902  17.773  0.00  0.00    +0.000 OA
ATOM      5  C   UNL     1       2.336   3.919  18.027  0.00  0.00    +0.000 A 
ATOM      6  C   UNL     1       0.914   3.540  17.884  0.00  0.00    +0.000 C 
ENDROOT
BRANCH   2   7
ATOM      7  C   UNL     1       5.676   5.454  18.183  0.00  0.00    +0.000 A 
ATOM      8  C   UNL     1       6.524   5.313  19.295  0.00  0.00    +0.000 A 
ATOM      9  C   UNL     1       7.705   6.054  19.408  0.00  0.00    +0.000 A 
ATOM     10  C   UNL     1       8.079   6.933  18.398  0.00  0.00    +0.000 A 
ATOM     11  C   UNL     1       7.263   7.079  17.279  0.00  0.00    +0.000 A 
ATOM     12  C   UNL     1       6.067   6.354  17.166  0.00  0.00    +0.000 A 
ATOM     13 CL   UNL     1       5.124   6.676  15.748  0.00  0.00    +0.000 Cl
ENDBRANCH   2   7
BRANCH   1  16
ATOM     14  N   UNL     1       1.991   6.665  19.975  0.00  0.00    +0.000 N 
ATOM     15  C   UNL     1       1.753   5.582  20.931  0.00  0.00    +0.000 C 
ATOM     16  C   UNL     1       2.581   6.405  18.697  0.00  0.00    +0.000 C 
ATOM     17  O   UNL     1       2.802   7.284  17.868  0.00  0.00    +0.000 OA
BRANCH  14  21
ATOM     18  C   UNL     1       0.713  10.638  21.151  0.00  0.00    +0.000 A 
ATOM     19  C   UNL     1       0.971   9.664  22.107  0.00  0.00    +0.000 A 
ATOM     20  C   UNL     1       1.409   8.381  21.734  0.00  0.00    +0.000 A 
ATOM     21  C   UNL     1       1.584   8.010  20.390  0.00  0.00    +0.000 A 
ATOM     22  C   UNL     1       1.318   9.027  19.448  0.00  0.00    +0.000 A 
ATOM     23  C   UNL     1       0.884  10.313  19.815  0.00  0.00    +0.000 A 
BRANCH  18  25
ATOM     24  C   UNL     1      -0.114  12.792  20.641  0.00  0.00    +0.000 C 
ATOM     25  O   UNL     1       0.274  11.840  21.626  0.00  0.00    +0.000 OA
ENDBRANCH  18  25
ENDBRANCH  14  21
ENDBRANCH   1  16
TORSDOF 4
ENDMDL
MODEL 4
REMARK VINA RESULT:      -7.6      0.409      1.036
REMARK  Name = 
REMARK  7 active torsions:
REMARK  status: ('A' for Active; 'I' for Inactive)
REMARK    1  A    between atoms: C_1  and  O_2
REMARK    2  A    between atoms: O_2  and  C_3
REMARK    3  A    between atoms: C_6  and  N_7
REMARK    4  A    between atoms: N_7  and  C_8
REMARK    5  A    between atoms: C_9  and  C_11
REMARK    6  A    between atoms: C_12  and  C_13
REMARK    7  A    between atoms: C_22  and  C_23
REMARK                            x       y       z     vdW  Elec       q    Type
REMARK                         _______ _______ _______ _____ _____    ______ ____
ROOT
ATOM      1  C   UNL     1       2.978   4.155  18.942  0.00  0.00    +0.000 A 
ATOM      2  C   UNL     1       4.255   3.965  18.276  0.00  0.00    +0.000 A 
ATOM      3  N   UNL     1       4.290   2.755  17.697  0.00  0.00    +0.000 NA
ATOM      4  O   UNL     1       3.041   2.215  17.829  0.00  0.00    +0.000 OA
ATOM      5  C   UNL     1       2.244   3.053  18.536  0.00  0.00    +0.000 A 
ATOM      6  C   UNL     1       0.852   2.574  18.669  0.00  0.00    +0.000 C 
ENDROOT
BRANCH   2   7
ATOM      7  C   UNL     1       5.442   4.844  18.218  0.00  0.00    +0.000 A 
ATOM      8  C   UNL     1       6.209   5.043  19.379  0.00  0.00    +0.000 A 
ATOM      9  C   UNL     1       7.330   5.879  19.377  0.00  0.00    +0.000 A 
ATOM     10  C   UNL     1       7.726   6.514  18.205  0.00  0.00    +0.000 A 
ATOM     11  C   UNL     1       6.992   6.320  17.037  0.00  0.00    +0.000 A 
ATOM     12  C   UNL     1       5.855   5.499  17.036  0.00  0.00    +0.000 A 
ATOM     13 CL   UNL     1       5.006   5.393  15.528  0.00  0.00    +0.000 Cl
ENDBRANCH   2   7
BRANCH   1  16
ATOM     14  N   UNL     1       2.246   6.561  19.061  0.00  0.00    +0.000 N 
ATOM     15  C   UNL     1       2.411   6.710  17.614  0.00  0.00    +0.000 C 
ATOM     16  C   UNL     1       2.567   5.331  19.718  0.00  0.00    +0.000 C 
ATOM     17  O   UNL     1       2.440   5.162  20.928  0.00  0.00    +0.000 OA
BRANCH  14  21
ATOM     18  C   UNL     1       0.858  10.023  21.272  0.00  0.00    +0.000 A 
ATOM     19  C   UNL     1       1.013  10.078  19.893  0.00  0.00    +0.000 A 
ATOM     20  C   UNL     1       1.440   8.952  19.166  0.00  0.00    +0.000 A 
ATOM     21  C   UNL     1       1.752   7.732  19.790  0.00  0.00    +0.000 A 
ATOM     22  C   UNL     1       1.576   7.712  21.190  0.00  0.00    +0.000 A 
ATOM     23  C   UNL     1       1.145   8.833  21.921  0.00  0.00    +0.000 A 
BRANCH  18  25
ATOM     24  C   UNL     1      -0.711  11.088  22.681  0.00  0.00    +0.000 C 
ATOM     25  O   UNL     1       0.458  11.181  21.875  0.00  0.00    +0.000 OA
ENDBRANCH  18  25
ENDBRANCH  14  21
ENDBRANCH   1  16
TORSDOF 4
ENDMDL
MODEL 5
REMARK VINA RESULT:      -7.5      1.341      1.567
REMARK  Name = 
REMARK  7 active torsions:
REMARK  status: ('A' for Active; 'I' for Inactive)
REMARK    1  A    between atoms: C_1  and  O_2
REMARK    2  A    between atoms: O_2  and  C_3
REMARK    3  A    between atoms: C_6  and  N_7
REMARK    4  A    between atoms: N_7  and  C_8
REMARK    5  A    between atoms: C_9  and  C_11
REMARK    6  A    between atoms: C_12  and  C_13
REMARK    7  A    between atoms: C_22  and  C_23
REMARK                            x       y       z     vdW  Elec       q    Type
REMARK                         _______ _______ _______ _____ _____    ______ ____
ROOT
ATOM      1  C   UNL     1       2.781   4.046  18.662  0.00  0.00    +0.000 A 
ATOM      2  C   UNL     1       4.156   3.629  18.457  0.00  0.00    +0.000 A 
ATOM      3  N   UNL     1       4.245   2.293  18.551  0.00  0.00    +0.000 NA
ATOM      4  O   UNL     1       2.968   1.816  18.658  0.00  0.00    +0.000 OA
ATOM      5  C   UNL     1       2.088   2.847  18.689  0.00  0.00    +0.000 A 
ATOM      6  C   UNL     1       0.674   2.417  18.737  0.00  0.00    +0.000 C 
ENDROOT
BRANCH   2   7
ATOM      7  C   UNL     1       5.376   4.434  18.237  0.00  0.00    +0.000 A 
ATOM      8  C   UNL     1       6.066   4.956  19.345  0.00  0.00    +0.000 A 
ATOM      9  C   UNL     1       7.215   5.737  19.186  0.00  0.00    +0.000 A 
ATOM     10  C   UNL     1       7.716   5.992  17.915  0.00  0.00    +0.000 A 
ATOM     11  C   UNL     1       7.060   5.473  16.802  0.00  0.00    +0.000 A 
ATOM     12  C   UNL     1       5.896   4.704  16.952  0.00  0.00    +0.000 A 
ATOM     13 CL   UNL     1       5.154   4.170  15.479  0.00  0.00    +0.000 Cl
ENDBRANCH   2   7
BRANCH   1  16
ATOM     14  N   UNL     1       2.108   6.129  19.906  0.00  0.00    +0.000 N 
ATOM     15  C   UNL     1       2.327   5.463  21.192  0.00  0.00    +0.000 C 
ATOM     16  C   UNL     1       2.282   5.426  18.672  0.00  0.00    +0.000 C 
ATOM     17  O   UNL     1       2.113   5.947  17.572  0.00  0.00    +0.000 OA
BRANCH  14  21
ATOM     18  C   UNL     1       0.827  10.271  19.979  0.00  0.00    +0.000 A 
ATOM     19  C   UNL     1       0.668   9.460  21.095  0.00  0.00    +0.000 A 
ATOM     20  C   UNL     1       1.102   8.122  21.086  0.00  0.00    +0.000 A 
ATOM     21  C   UNL     1       1.692   7.534  19.955  0.00  0.00    +0.000 A 
ATOM     22  C   UNL     1       1.843   8.389  18.843  0.00  0.00    +0.000 A 
ATOM     23  C   UNL     1       1.414   9.728  18.847  0.00  0.00    +0.000 A 
BRANCH  18  25
ATOM     24  C   UNL     1       0.003  11.960  21.410  0.00  0.00    +0.000 C 
ATOM     25  O   UNL     1       0.349  11.545  20.093  0.00  0.00    +0.000 OA
ENDBRANCH  18  25
ENDBRANCH  14  21
ENDBRANCH   1  16
TORSDOF 4
ENDMDL
MODEL 6
REMARK VINA RESULT:      -7.4      1.730      2.341
REMARK  Name = 
REMARK  7 active torsions:
REMARK  status: ('A' for Active; 'I' for Inactive)
REMARK    1  A    between atoms: C_1  and  O_2
REMARK    2  A    between atoms: O_2  and  C_3
REMARK    3  A    between atoms: C_6  and  N_7
REMARK    4  A    between atoms: N_7  and  C_8
REMARK    5  A    between atoms: C_9  and  C_11
REMARK    6  A    between atoms: C_12  and  C_13
REMARK    7  A    between atoms: C_22  and  C_23
REMARK                            x       y       z     vdW  Elec       q    Type
REMARK                         _______ _______ _______ _____ _____    ______ ____
ROOT
ATOM      1  C   UNL     1       2.671   3.822  18.310  0.00  0.00    +0.000 A 
ATOM      2  C   UNL     1       3.895   3.351  17.687  0.00  0.00    +0.000 A 
ATOM      3  N   UNL     1       3.984   2.017  17.811  0.00  0.00    +0.000 NA
ATOM      4  O   UNL     1       2.804   1.589  18.352  0.00  0.00    +0.000 OA
ATOM      5  C   UNL     1       2.002   2.648  18.620  0.00  0.00    +0.000 A 
ATOM      6  C   UNL     1       0.675   2.268  19.147  0.00  0.00    +0.000 C 
ENDROOT
BRANCH   2   7
ATOM      7  C   UNL     1       4.990   4.105  17.042  0.00  0.00    +0.000 A 
ATOM      8  C   UNL     1       5.167   4.010  15.651  0.00  0.00    +0.000 A 
ATOM      9  C   UNL     1       6.201   4.691  15.000  0.00  0.00    +0.000 A 
ATOM     10  C   UNL     1       7.064   5.507  15.722  0.00  0.00    +0.000 A 
ATOM     11  C   UNL     1       6.899   5.631  17.100  0.00  0.00    +0.000 A 
ATOM     12  C   UNL     1       5.878   4.935  17.763  0.00  0.00    +0.000 A 
ATOM     13 CL   UNL     1       5.825   5.138  19.484  0.00  0.00    +0.000 Cl
ENDBRANCH   2   7
BRANCH   1  16
ATOM     14  N   UNL     1       2.174   5.868  19.690  0.00  0.00    +0.000 N 
ATOM     15  C   UNL     1       2.459   5.137  20.925  0.00  0.00    +0.000 C 
ATOM     16  C   UNL     1       2.229   5.217  18.416  0.00  0.00    +0.000 C 
ATOM     17  O   UNL     1       2.001   5.794  17.356  0.00  0.00    +0.000 OA
BRANCH  14  21
ATOM     18  C   UNL     1       1.069  10.048  20.033  0.00  0.00    +0.000 A 
ATOM     19  C   UNL     1       0.903   9.180  21.104  0.00  0.00    +0.000 A 
ATOM     20  C   UNL     1       1.280   7.829  21.008  0.00  0.00    +0.000 A 
ATOM     21  C   UNL     1       1.819   7.284  19.830  0.00  0.00    +0.000 A 
ATOM     22  C   UNL     1       1.979   8.196  18.765  0.00  0.00    +0.000 A 
ATOM     23  C   UNL     1       1.607   9.548  18.857  0.00  0.00    +0.000 A 
BRANCH  18  25
ATOM     24  C   UNL     1      -0.388  11.784  19.368  0.00  0.00    +0.000 C 
ATOM     25  O   UNL     1       0.648  11.331  20.232  0.00  0.00    +0.000 OA
ENDBRANCH  18  25
ENDBRANCH  14  21
ENDBRANCH   1  16
TORSDOF 4
ENDMDL
MODEL 7
REMARK VINA RESULT:      -7.4      1.735      2.566
REMARK  Name = 
REMARK  7 active torsions:
REMARK  status: ('A' for Active; 'I' for Inactive)
REMARK    1  A    between atoms: C_1  and  O_2
REMARK    2  A    between atoms: O_2  and  C_3
REMARK    3  A    between atoms: C_6  and  N_7
REMARK    4  A    between atoms: N_7  and  C_8
REMARK    5  A    between atoms: C_9  and  C_11
REMARK    6  A    between atoms: C_12  and  C_13
REMARK    7  A    between atoms: C_22  and  C_23
REMARK                            x       y       z     vdW  Elec       q    Type
REMARK                         _______ _______ _______ _____ _____    ______ ____
ROOT
ATOM      1  C   UNL     1       2.673   3.809  18.345  0.00  0.00    +0.000 A 
ATOM      2  C   UNL     1       3.901   3.342  17.727  0.00  0.00    +0.000 A 
ATOM      3  N   UNL     1       4.005   2.011  17.871  0.00  0.00    +0.000 NA
ATOM      4  O   UNL     1       2.830   1.578  18.420  0.00  0.00    +0.000 OA
ATOM      5  C   UNL     1       2.018   2.633  18.673  0.00  0.00    +0.000 A 
ATOM      6  C   UNL     1       0.695   2.247  19.208  0.00  0.00    +0.000 C 
ENDROOT
BRANCH   2   7
ATOM      7  C   UNL     1       4.987   4.098  17.070  0.00  0.00    +0.000 A 
ATOM      8  C   UNL     1       5.169   3.978  15.681  0.00  0.00    +0.000 A 
ATOM      9  C   UNL     1       6.194   4.660  15.018  0.00  0.00    +0.000 A 
ATOM     10  C   UNL     1       7.045   5.502  15.726  0.00  0.00    +0.000 A 
ATOM     11  C   UNL     1       6.876   5.650  17.100  0.00  0.00    +0.000 A 
ATOM     12  C   UNL     1       5.862   4.954  17.776  0.00  0.00    +0.000 A 
ATOM     13 CL   UNL     1       5.803   5.191  19.492  0.00  0.00    +0.000 Cl
ENDBRANCH   2   7
BRANCH   1  16
ATOM     14  N   UNL     1       2.160   5.873  19.693  0.00  0.00    +0.000 N 
ATOM     15  C   UNL     1       2.461   5.166  20.938  0.00  0.00    +0.000 C 
ATOM     16  C   UNL     1       2.216   5.201  18.430  0.00  0.00    +0.000 C 
ATOM     17  O   UNL     1       1.975   5.757  17.361  0.00  0.00    +0.000 OA
BRANCH  14  21
ATOM     18  C   UNL     1       1.121  10.061  20.114  0.00  0.00    +0.000 A 
ATOM     19  C   UNL     1       1.612   9.570  18.911  0.00  0.00    +0.000 A 
ATOM     20  C   UNL     1       1.929   8.208  18.760  0.00  0.00    +0.000 A 
ATOM     21  C   UNL     1       1.790   7.286  19.811  0.00  0.00    +0.000 A 
ATOM     22  C   UNL     1       1.284   7.820  21.015  0.00  0.00    +0.000 A 
ATOM     23  C   UNL     1       0.962   9.180  21.171  0.00  0.00    +0.000 A 
BRANCH  18  25
ATOM     24  C   UNL     1       1.541  12.188  19.174  0.00  0.00    +0.000 C 
ATOM     25  O   UNL     1       0.868  11.403  20.152  0.00  0.00    +0.000 OA
ENDBRANCH  18  25
ENDBRANCH  14  21
ENDBRANCH   1  16
TORSDOF 4
ENDMDL
MODEL 8
REMARK VINA RESULT:      -6.9      1.977      2.549
REMARK  Name = 
REMARK  7 active torsions:
REMARK  status: ('A' for Active; 'I' for Inactive)
REMARK    1  A    between atoms: C_1  and  O_2
REMARK    2  A    between atoms: O_2  and  C_3
REMARK    3  A    between atoms: C_6  and  N_7
REMARK    4  A    between atoms: N_7  and  C_8
REMARK    5  A    between atoms: C_9  and  C_11
REMARK    6  A    between atoms: C_12  and  C_13
REMARK    7  A    between atoms: C_22  and  C_23
REMARK                            x       y       z     vdW  Elec       q    Type
REMARK                         _______ _______ _______ _____ _____    ______ ____
ROOT
ATOM      1  C   UNL     1       3.682   3.862  18.813  0.00  0.00    +0.000 A 
ATOM      2  C   UNL     1       4.469   3.245  17.760  0.00  0.00    +0.000 A 
ATOM      3  N   UNL     1       4.453   1.911  17.902  0.00  0.00    +0.000 NA
ATOM      4  O   UNL     1       3.571   1.629  18.907  0.00  0.00    +0.000 OA
ATOM      5  C   UNL     1       3.080   2.778  19.432  0.00  0.00    +0.000 A 
ATOM      6  C   UNL     1       2.064   2.563  20.484  0.00  0.00    +0.000 C 
ENDROOT
BRANCH   2   7
ATOM      7  C   UNL     1       5.269   3.861  16.680  0.00  0.00    +0.000 A 
ATOM      8  C   UNL     1       4.821   3.765  15.351  0.00  0.00    +0.000 A 
ATOM      9  C   UNL     1       5.553   4.316  14.294  0.00  0.00    +0.000 A 
ATOM     10  C   UNL     1       6.736   5.001  14.546  0.00  0.00    +0.000 A 
ATOM     11  C   UNL     1       7.192   5.124  15.856  0.00  0.00    +0.000 A 
ATOM     12  C   UNL     1       6.475   4.557  16.919  0.00  0.00    +0.000 A 
ATOM     13 CL   UNL     1       7.188   4.739  18.488  0.00  0.00    +0.000 Cl
ENDBRANCH   2   7
BRANCH   1  16
ATOM     14  N   UNL     1       2.321   5.958  18.510  0.00  0.00    +0.000 N 
ATOM     15  C   UNL     1       1.351   5.240  17.682  0.00  0.00    +0.000 C 
ATOM     16  C   UNL     1       3.484   5.301  19.023  0.00  0.00    +0.000 C 
ATOM     17  O   UNL     1       4.321   5.864  19.725  0.00  0.00    +0.000 OA
BRANCH  14  21
ATOM     18  C   UNL     1       1.444  10.147  19.208  0.00  0.00    +0.000 A 
ATOM     19  C   UNL     1       1.312   9.215  20.230  0.00  0.00    +0.000 A 
ATOM     20  C   UNL     1       1.617   7.859  20.017  0.00  0.00    +0.000 A 
ATOM     21  C   UNL     1       2.045   7.374  18.769  0.00  0.00    +0.000 A 
ATOM     22  C   UNL     1       2.173   8.350  17.758  0.00  0.00    +0.000 A 
ATOM     23  C   UNL     1       1.873   9.708  17.966  0.00  0.00    +0.000 A 
BRANCH  18  25
ATOM     24  C   UNL     1       0.554  11.624  20.823  0.00  0.00    +0.000 C 
ATOM     25  O   UNL     1       1.100  11.430  19.523  0.00  0.00    +0.000 OA
ENDBRANCH  18  25
ENDBRANCH  14  21
ENDBRANCH   1  16
TORSDOF 4
ENDMDL
MODEL 9
REMARK VINA RESULT:      -6.8      2.931      6.992
REMARK  Name = 
REMARK  7 active torsions:
REMARK  status: ('A' for Active; 'I' for Inactive)
REMARK    1  A    between atoms: C_1  and  O_2
REMARK    2  A    between atoms: O_2  and  C_3
REMARK    3  A    between atoms: C_6  and  N_7
REMARK    4  A    between atoms: N_7  and  C_8
REMARK    5  A    between atoms: C_9  and  C_11
REMARK    6  A    between atoms: C_12  and  C_13
REMARK    7  A    between atoms: C_22  and  C_23
REMARK                            x       y       z     vdW  Elec       q    Type
REMARK                         _______ _______ _______ _____ _____    ______ ____
ROOT
ATOM      1  C   UNL     1       3.061   4.874  19.753  0.00  0.00    +0.000 A 
ATOM      2  C   UNL     1       2.071   5.895  20.047  0.00  0.00    +0.000 A 
ATOM      3  N   UNL     1       1.167   5.415  20.916  0.00  0.00    +0.000 NA
ATOM      4  O   UNL     1       1.612   4.184  21.312  0.00  0.00    +0.000 OA
ATOM      5  C   UNL     1       2.754   3.868  20.655  0.00  0.00    +0.000 A 
ATOM      6  C   UNL     1       3.341   2.578  21.075  0.00  0.00    +0.000 C 
ENDROOT
BRANCH   2   7
ATOM      7  C   UNL     1       1.916   7.260  19.503  0.00  0.00    +0.000 A 
ATOM      8  C   UNL     1       2.259   7.511  18.163  0.00  0.00    +0.000 A 
ATOM      9  C   UNL     1       2.146   8.790  17.609  0.00  0.00    +0.000 A 
ATOM     10  C   UNL     1       1.660   9.843  18.375  0.00  0.00    +0.000 A 
ATOM     11  C   UNL     1       1.298   9.616  19.701  0.00  0.00    +0.000 A 
ATOM     12  C   UNL     1       1.427   8.341  20.270  0.00  0.00    +0.000 A 
ATOM     13 CL   UNL     1       0.992   8.217  21.943  0.00  0.00    +0.000 Cl
ENDBRANCH   2   7
BRANCH   1  16
ATOM     14  N   UNL     1       4.112   4.444  17.506  0.00  0.00    +0.000 N 
ATOM     15  C   UNL     1       2.952   3.657  17.085  0.00  0.00    +0.000 C 
ATOM     16  C   UNL     1       4.190   4.998  18.824  0.00  0.00    +0.000 C 
ATOM     17  O   UNL     1       5.142   5.667  19.217  0.00  0.00    +0.000 OA
BRANCH  14  21
ATOM     18  C   UNL     1       7.223   5.006  14.538  0.00  0.00    +0.000 A 
ATOM     19  C   UNL     1       7.427   5.382  15.859  0.00  0.00    +0.000 A 
ATOM     20  C   UNL     1       6.432   5.181  16.832  0.00  0.00    +0.000 A 
ATOM     21  C   UNL     1       5.183   4.618  16.520  0.00  0.00    +0.000 A 
ATOM     22  C   UNL     1       5.013   4.243  15.171  0.00  0.00    +0.000 A 
ATOM     23  C   UNL     1       6.006   4.438  14.194  0.00  0.00    +0.000 A 
BRANCH  18  25
ATOM     24  C   UNL     1       7.889   5.402  12.306  0.00  0.00    +0.000 C 
ATOM     25  O   UNL     1       8.249   5.268  13.677  0.00  0.00    +0.000 OA
ENDBRANCH  18  25
ENDBRANCH  14  21
ENDBRANCH   1  16
TORSDOF 4
ENDMDL
