MODEL 1
REMARK VINA RESULT:      -8.3      0.000      0.000
REMARK  Name = 
REMARK  11 active torsions:
REMARK  status: ('A' for Active; 'I' for Inactive)
REMARK    1  A    between atoms: C_1  and  O_2
REMARK    2  A    between atoms: O_2  and  C_3
REMARK    3  A    between atoms: C_5  and  C_6
REMARK    4  A    between atoms: C_6  and  C_7
REMARK    5  A    between atoms: C_7  and  O_8
REMARK    6  A    between atoms: C_7  and  C_9
REMARK    7  A    between atoms: C_12  and  C_13
REMARK    8  A    between atoms: C_16  and  C_17
REMARK    9  A    between atoms: C_25  and  N_26
REMARK   10  A    between atoms: C_30  and  O_31
REMARK   11  A    between atoms: O_31  and  C_32
REMARK                            x       y       z     vdW  Elec       q    Type
REMARK                         _______ _______ _______ _____ _____    ______ ____
ROOT
ATOM      1  C   UNL     1       2.551   5.429  19.519  0.00  0.00    +0.000 C 
ENDROOT
BRANCH   1   2
ATOM      2  C   UNL     1       2.168   6.897  19.452  0.00  0.00    +0.000 A 
ATOM      3  C   UNL     1       1.629   7.501  20.590  0.00  0.00    +0.000 A 
ATOM      4  C   UNL     1       1.207   8.838  20.563  0.00  0.00    +0.000 A 
ATOM      5  C   UNL     1       1.331   9.626  19.408  0.00  0.00    +0.000 A 
ATOM      6  C   UNL     1       1.900   9.024  18.279  0.00  0.00    +0.000 A 
ATOM      7  C   UNL     1       2.316   7.684  18.300  0.00  0.00    +0.000 A 
BRANCH   5   8
ATOM      8  C   UNL     1       0.903  11.050  19.400  0.00  0.00    +0.000 A 
ATOM      9  C   UNL     1       1.626  12.017  18.678  0.00  0.00    +0.000 A 
ATOM     10  C   UNL     1       1.235  13.359  18.659  0.00  0.00    +0.000 A 
ATOM     11  C   UNL     1       0.095  13.779  19.350  0.00  0.00    +0.000 A 
ATOM     12  C   UNL     1      -0.639  12.830  20.070  0.00  0.00    +0.000 A 
ATOM     13  C   UNL     1      -0.237  11.489  20.099  0.00  0.00    +0.000 A 
BRANCH  11  14
ATOM     14  C   UNL     1      -0.346  15.223  19.313  0.00  0.00    +0.000 C 
ATOM     15  F   UNL     1      -0.450  15.728  18.053  0.00  0.00    +0.000 F 
ATOM     16  F   UNL     1      -1.564  15.409  19.891  0.00  0.00    +0.000 F 
ATOM     17  F   UNL     1       0.513  16.049  19.974  0.00  0.00    +0.000 F 
ENDBRANCH  11  14
ENDBRANCH   5   8
ENDBRANCH   1   2
BRANCH   1  18
ATOM     18  O   UNL     1       1.976   4.839  20.681  0.00  0.00    +0.000 OA
ATOM     19  H   UNL     1       2.696   4.660  21.311  0.00  0.00    +0.000 HD
ENDBRANCH   1  18
BRANCH   1  20
ATOM     20  C   UNL     1       4.066   5.202  19.541  0.00  0.00    +0.000 C 
BRANCH  20  23
ATOM     21  C   UNL     1       6.543   5.875  16.751  0.00  0.00    +0.000 A 
ATOM     22  C   UNL     1       5.680   6.040  17.846  0.00  0.00    +0.000 A 
ATOM     23  C   UNL     1       4.715   5.075  18.182  0.00  0.00    +0.000 A 
ATOM     24  C   UNL     1       4.500   4.034  17.272  0.00  0.00    +0.000 A 
ATOM     25  C   UNL     1       5.294   3.899  16.129  0.00  0.00    +0.000 A 
ATOM     26  C   UNL     1       6.344   4.793  15.879  0.00  0.00    +0.000 A 
BRANCH  24  27
ATOM     27  N   UNL     1       3.462   3.032  17.470  0.00  0.00    +0.000 N 
ATOM     28  O   UNL     1       2.368   3.222  16.920  0.00  0.00    +0.000 OA
ATOM     29  O   UNL     1       3.729   2.082  18.214  0.00  0.00    +0.000 OA
ENDBRANCH  24  27
BRANCH  21  31
ATOM     30  C   UNL     1       7.665   7.849  17.443  0.00  0.00    +0.000 C 
ATOM     31  O   UNL     1       7.572   6.753  16.531  0.00  0.00    +0.000 OA
ENDBRANCH  21  31
BRANCH  26  32
ATOM     32  O   UNL     1       7.063   4.435  14.772  0.00  0.00    +0.000 OA
ATOM     33  C   UNL     1       6.373   3.996  13.612  0.00  0.00    +0.000 C 
ENDBRANCH  26  32
ENDBRANCH  20  23
ENDBRANCH   1  20
TORSDOF 9
ENDMDL
MODEL 2
REMARK VINA RESULT:      -8.3      0.435      1.249
REMARK  Name = 
REMARK  11 active torsions:
REMARK  status: ('A' for Active; 'I' for Inactive)
REMARK    1  A    between atoms: C_1  and  O_2
REMARK    2  A    between atoms: O_2  and  C_3
REMARK    3  A    between atoms: C_5  and  C_6
REMARK    4  A    between atoms: C_6  and  C_7
REMARK    5  A    between atoms: C_7  and  O_8
REMARK    6  A    between atoms: C_7  and  C_9
REMARK    7  A    between atoms: C_12  and  C_13
REMARK    8  A    between atoms: C_16  and  C_17
REMARK    9  A    between atoms: C_25  and  N_26
REMARK   10  A    between atoms: C_30  and  O_31
REMARK   11  A    between atoms: O_31  and  C_32
REMARK                            x       y       z     vdW  Elec       q    Type
REMARK                         _______ _______ _______ _____ _____    ______ ____
ROOT
ATOM      1  C   UNL     1       2.372   5.807  19.334  0.00  0.00    +0.000 C 
ENDROOT
BRANCH   1   2
ATOM      2  C   UNL     1       2.043   7.287  19.238  0.00  0.00    +0.000 A 
ATOM      3  C   UNL     1       1.515   7.930  20.360  0.00  0.00    +0.000 A 
ATOM      4  C   UNL     1       1.142   9.280  20.306  0.00  0.00    +0.000 A 
ATOM      5  C   UNL     1       1.305  10.043  19.139  0.00  0.00    +0.000 A 
ATOM      6  C   UNL     1       1.861   9.401  18.026  0.00  0.00    +0.000 A 
ATOM      7  C   UNL     1       2.229   8.048  18.074  0.00  0.00    +0.000 A 
BRANCH   5   8
ATOM      8  C   UNL     1       0.928  11.481  19.102  0.00  0.00    +0.000 A 
ATOM      9  C   UNL     1      -0.352  11.903  19.505  0.00  0.00    +0.000 A 
ATOM     10  C   UNL     1      -0.720  13.251  19.477  0.00  0.00    +0.000 A 
ATOM     11  C   UNL     1       0.187  14.229  19.062  0.00  0.00    +0.000 A 
ATOM     12  C   UNL     1       1.468  13.829  18.662  0.00  0.00    +0.000 A 
ATOM     13  C   UNL     1       1.828  12.476  18.676  0.00  0.00    +0.000 A 
BRANCH  11  14
ATOM     14  C   UNL     1      -0.197  15.690  19.054  0.00  0.00    +0.000 C 
ATOM     15  F   UNL     1       0.800  16.516  19.476  0.00  0.00    +0.000 F 
ATOM     16  F   UNL     1      -0.545  16.129  17.814  0.00  0.00    +0.000 F 
ATOM     17  F   UNL     1      -1.264  15.954  19.858  0.00  0.00    +0.000 F 
ENDBRANCH  11  14
ENDBRANCH   5   8
ENDBRANCH   1   2
BRANCH   1  18
ATOM     18  O   UNL     1       1.702   5.242  20.457  0.00  0.00    +0.000 OA
ATOM     19  H   UNL     1       0.745   5.289  20.288  0.00  0.00    +0.000 HD
ENDBRANCH   1  18
BRANCH   1  20
ATOM     20  C   UNL     1       3.874   5.531  19.457  0.00  0.00    +0.000 C 
BRANCH  20  23
ATOM     21  C   UNL     1       6.481   5.947  16.736  0.00  0.00    +0.000 A 
ATOM     22  C   UNL     1       5.565   6.212  17.767  0.00  0.00    +0.000 A 
ATOM     23  C   UNL     1       4.588   5.277  18.150  0.00  0.00    +0.000 A 
ATOM     24  C   UNL     1       4.420   4.150  17.337  0.00  0.00    +0.000 A 
ATOM     25  C   UNL     1       5.268   3.910  16.252  0.00  0.00    +0.000 A 
ATOM     26  C   UNL     1       6.327   4.784  15.966  0.00  0.00    +0.000 A 
BRANCH  24  27
ATOM     27  N   UNL     1       3.376   3.165  17.583  0.00  0.00    +0.000 N 
ATOM     28  O   UNL     1       3.618   2.261  18.395  0.00  0.00    +0.000 OA
ATOM     29  O   UNL     1       2.335   3.271  16.925  0.00  0.00    +0.000 OA
ENDBRANCH  24  27
BRANCH  21  31
ATOM     30  C   UNL     1       7.753   7.812  17.468  0.00  0.00    +0.000 C 
ATOM     31  O   UNL     1       7.516   6.807  16.481  0.00  0.00    +0.000 OA
ENDBRANCH  21  31
BRANCH  26  32
ATOM     32  O   UNL     1       7.099   4.324  14.935  0.00  0.00    +0.000 OA
ATOM     33  C   UNL     1       6.512   4.154  13.654  0.00  0.00    +0.000 C 
ENDBRANCH  26  32
ENDBRANCH  20  23
ENDBRANCH   1  20
TORSDOF 9
ENDMDL
MODEL 3
REMARK VINA RESULT:      -8.2      0.663      1.153
REMARK  Name = 
REMARK  11 active torsions:
REMARK  status: ('A' for Active; 'I' for Inactive)
REMARK    1  A    between atoms: C_1  and  O_2
REMARK    2  A    between atoms: O_2  and  C_3
REMARK    3  A    between atoms: C_5  and  C_6
REMARK    4  A    between atoms: C_6  and  C_7
REMARK    5  A    between atoms: C_7  and  O_8
REMARK    6  A    between atoms: C_7  and  C_9
REMARK    7  A    between atoms: C_12  and  C_13
REMARK    8  A    between atoms: C_16  and  C_17
REMARK    9  A    between atoms: C_25  and  N_26
REMARK   10  A    between atoms: C_30  and  O_31
REMARK   11  A    between atoms: O_31  and  C_32
REMARK                            x       y       z     vdW  Elec       q    Type
REMARK                         _______ _______ _______ _____ _____    ______ ____
ROOT
ATOM      1  C   UNL     1       2.310   5.849  19.292  0.00  0.00    +0.000 C 
ENDROOT
BRANCH   1   2
ATOM      2  C   UNL     1       1.986   7.333  19.262  0.00  0.00    +0.000 A 
ATOM      3  C   UNL     1       2.191   8.039  18.074  0.00  0.00    +0.000 A 
ATOM      4  C   UNL     1       1.962   9.420  18.010  0.00  0.00    +0.000 A 
ATOM      5  C   UNL     1       1.497  10.142  19.121  0.00  0.00    +0.000 A 
ATOM      6  C   UNL     1       1.266   9.424  20.300  0.00  0.00    +0.000 A 
ATOM      7  C   UNL     1       1.501   8.043  20.370  0.00  0.00    +0.000 A 
BRANCH   5   8
ATOM      8  C   UNL     1       1.233  11.603  19.033  0.00  0.00    +0.000 A 
ATOM      9  C   UNL     1       2.203  12.481  18.516  0.00  0.00    +0.000 A 
ATOM     10  C   UNL     1       1.970  13.856  18.426  0.00  0.00    +0.000 A 
ATOM     11  C   UNL     1       0.749  14.400  18.833  0.00  0.00    +0.000 A 
ATOM     12  C   UNL     1      -0.230  13.541  19.345  0.00  0.00    +0.000 A 
ATOM     13  C   UNL     1       0.012  12.166  19.449  0.00  0.00    +0.000 A 
BRANCH  11  14
ATOM     14  C   UNL     1       0.481  15.882  18.714  0.00  0.00    +0.000 C 
ATOM     15  F   UNL     1       1.484  16.568  18.098  0.00  0.00    +0.000 F 
ATOM     16  F   UNL     1      -0.646  16.151  18.001  0.00  0.00    +0.000 F 
ATOM     17  F   UNL     1       0.311  16.482  19.925  0.00  0.00    +0.000 F 
ENDBRANCH  11  14
ENDBRANCH   5   8
ENDBRANCH   1   2
BRANCH   1  18
ATOM     18  O   UNL     1       1.607   5.229  20.363  0.00  0.00    +0.000 OA
ATOM     19  H   UNL     1       0.770   5.709  20.488  0.00  0.00    +0.000 HD
ENDBRANCH   1  18
BRANCH   1  20
ATOM     20  C   UNL     1       3.807   5.563  19.445  0.00  0.00    +0.000 C 
BRANCH  20  23
ATOM     21  C   UNL     1       6.455   5.983  16.764  0.00  0.00    +0.000 A 
ATOM     22  C   UNL     1       5.519   6.247  17.776  0.00  0.00    +0.000 A 
ATOM     23  C   UNL     1       4.547   5.305  18.152  0.00  0.00    +0.000 A 
ATOM     24  C   UNL     1       4.405   4.168  17.348  0.00  0.00    +0.000 A 
ATOM     25  C   UNL     1       5.274   3.927  16.279  0.00  0.00    +0.000 A 
ATOM     26  C   UNL     1       6.327   4.810  16.003  0.00  0.00    +0.000 A 
BRANCH  24  27
ATOM     27  N   UNL     1       3.368   3.173  17.585  0.00  0.00    +0.000 N 
ATOM     28  O   UNL     1       2.309   3.285  16.952  0.00  0.00    +0.000 OA
ATOM     29  O   UNL     1       3.599   2.311  18.440  0.00  0.00    +0.000 OA
ENDBRANCH  24  27
BRANCH  21  31
ATOM     30  C   UNL     1       7.715   7.849  17.515  0.00  0.00    +0.000 C 
ATOM     31  O   UNL     1       7.485   6.852  16.518  0.00  0.00    +0.000 OA
ENDBRANCH  21  31
BRANCH  26  32
ATOM     32  O   UNL     1       7.122   4.350  14.989  0.00  0.00    +0.000 OA
ATOM     33  C   UNL     1       6.570   4.205  13.689  0.00  0.00    +0.000 C 
ENDBRANCH  26  32
ENDBRANCH  20  23
ENDBRANCH   1  20
TORSDOF 9
ENDMDL
MODEL 4
REMARK VINA RESULT:      -8.2      0.564      1.058
REMARK  Name = 
REMARK  11 active torsions:
REMARK  status: ('A' for Active; 'I' for Inactive)
REMARK    1  A    between atoms: C_1  and  O_2
REMARK    2  A    between atoms: O_2  and  C_3
REMARK    3  A    between atoms: C_5  and  C_6
REMARK    4  A    between atoms: C_6  and  C_7
REMARK    5  A    between atoms: C_7  and  O_8
REMARK    6  A    between atoms: C_7  and  C_9
REMARK    7  A    between atoms: C_12  and  C_13
REMARK    8  A    between atoms: C_16  and  C_17
REMARK    9  A    between atoms: C_25  and  N_26
REMARK   10  A    between atoms: C_30  and  O_31
REMARK   11  A    between atoms: O_31  and  C_32
REMARK                            x       y       z     vdW  Elec       q    Type
REMARK                         _______ _______ _______ _____ _____    ______ ____
ROOT
ATOM      1  C   UNL     1       2.643   5.387  19.698  0.00  0.00    +0.000 C 
ENDROOT
BRANCH   1   2
ATOM      2  C   UNL     1       2.211   6.842  19.624  0.00  0.00    +0.000 A 
ATOM      3  C   UNL     1       1.617   7.422  20.748  0.00  0.00    +0.000 A 
ATOM      4  C   UNL     1       1.150   8.743  20.713  0.00  0.00    +0.000 A 
ATOM      5  C   UNL     1       1.282   9.540  19.565  0.00  0.00    +0.000 A 
ATOM      6  C   UNL     1       1.904   8.963  18.452  0.00  0.00    +0.000 A 
ATOM      7  C   UNL     1       2.366   7.639  18.481  0.00  0.00    +0.000 A 
BRANCH   5   8
ATOM      8  C   UNL     1       0.805  10.949  19.550  0.00  0.00    +0.000 A 
ATOM      9  C   UNL     1       1.293  11.886  20.478  0.00  0.00    +0.000 A 
ATOM     10  C   UNL     1       0.855  13.214  20.475  0.00  0.00    +0.000 A 
ATOM     11  C   UNL     1      -0.075  13.656  19.530  0.00  0.00    +0.000 A 
ATOM     12  C   UNL     1      -0.568  12.738  18.596  0.00  0.00    +0.000 A 
ATOM     13  C   UNL     1      -0.139  11.405  18.611  0.00  0.00    +0.000 A 
BRANCH  11  14
ATOM     14  C   UNL     1      -0.532  15.095  19.507  0.00  0.00    +0.000 C 
ATOM     15  F   UNL     1      -1.814  15.265  19.932  0.00  0.00    +0.000 F 
ATOM     16  F   UNL     1       0.233  15.896  20.298  0.00  0.00    +0.000 F 
ATOM     17  F   UNL     1      -0.479  15.640  18.259  0.00  0.00    +0.000 F 
ENDBRANCH  11  14
ENDBRANCH   5   8
ENDBRANCH   1   2
BRANCH   1  18
ATOM     18  O   UNL     1       2.185   4.815  20.919  0.00  0.00    +0.000 OA
ATOM     19  H   UNL     1       1.260   4.540  20.791  0.00  0.00    +0.000 HD
ENDBRANCH   1  18
BRANCH   1  20
ATOM     20  C   UNL     1       4.160   5.203  19.598  0.00  0.00    +0.000 C 
BRANCH  20  23
ATOM     21  C   UNL     1       6.483   6.070  16.730  0.00  0.00    +0.000 A 
ATOM     22  C   UNL     1       5.700   6.152  17.893  0.00  0.00    +0.000 A 
ATOM     23  C   UNL     1       4.715   5.197  18.193  0.00  0.00    +0.000 A 
ATOM     24  C   UNL     1       4.394   4.267  17.197  0.00  0.00    +0.000 A 
ATOM     25  C   UNL     1       5.105   4.223  15.994  0.00  0.00    +0.000 A 
ATOM     26  C   UNL     1       6.178   5.096  15.767  0.00  0.00    +0.000 A 
BRANCH  24  27
ATOM     27  N   UNL     1       3.324   3.292  17.361  0.00  0.00    +0.000 N 
ATOM     28  O   UNL     1       3.610   2.208  17.890  0.00  0.00    +0.000 OA
ATOM     29  O   UNL     1       2.212   3.596  16.916  0.00  0.00    +0.000 OA
ENDBRANCH  24  27
BRANCH  21  31
ATOM     30  C   UNL     1       7.718   7.934  17.528  0.00  0.00    +0.000 C 
ATOM     31  O   UNL     1       7.535   6.925  16.533  0.00  0.00    +0.000 OA
ENDBRANCH  21  31
BRANCH  26  32
ATOM     32  O   UNL     1       6.807   4.829  14.582  0.00  0.00    +0.000 OA
ATOM     33  C   UNL     1       6.232   3.886  13.691  0.00  0.00    +0.000 C 
ENDBRANCH  26  32
ENDBRANCH  20  23
ENDBRANCH   1  20
TORSDOF 9
ENDMDL
MODEL 5
REMARK VINA RESULT:      -8.2      0.232      1.221
REMARK  Name = 
REMARK  11 active torsions:
REMARK  status: ('A' for Active; 'I' for Inactive)
REMARK    1  A    between atoms: C_1  and  O_2
REMARK    2  A    between atoms: O_2  and  C_3
REMARK    3  A    between atoms: C_5  and  C_6
REMARK    4  A    between atoms: C_6  and  C_7
REMARK    5  A    between atoms: C_7  and  O_8
REMARK    6  A    between atoms: C_7  and  C_9
REMARK    7  A    between atoms: C_12  and  C_13
REMARK    8  A    between atoms: C_16  and  C_17
REMARK    9  A    between atoms: C_25  and  N_26
REMARK   10  A    between atoms: C_30  and  O_31
REMARK   11  A    between atoms: O_31  and  C_32
REMARK                            x       y       z     vdW  Elec       q    Type
REMARK                         _______ _______ _______ _____ _____    ______ ____
ROOT
ATOM      1  C   UNL     1       2.693   5.220  19.648  0.00  0.00    +0.000 C 
ENDROOT
BRANCH   1   2
ATOM      2  C   UNL     1       2.196   6.656  19.639  0.00  0.00    +0.000 A 
ATOM      3  C   UNL     1       2.312   7.397  18.460  0.00  0.00    +0.000 A 
ATOM      4  C   UNL     1       1.921   8.742  18.416  0.00  0.00    +0.000 A 
ATOM      5  C   UNL     1       1.378   9.388  19.538  0.00  0.00    +0.000 A 
ATOM      6  C   UNL     1       1.237   8.633  20.707  0.00  0.00    +0.000 A 
ATOM      7  C   UNL     1       1.635   7.288  20.758  0.00  0.00    +0.000 A 
BRANCH   5   8
ATOM      8  C   UNL     1       0.944  10.809  19.470  0.00  0.00    +0.000 A 
ATOM      9  C   UNL     1      -0.164  11.261  20.209  0.00  0.00    +0.000 A 
ATOM     10  C   UNL     1      -0.584  12.593  20.157  0.00  0.00    +0.000 A 
ATOM     11  C   UNL     1       0.102  13.527  19.375  0.00  0.00    +0.000 A 
ATOM     12  C   UNL     1       1.210  13.096  18.636  0.00  0.00    +0.000 A 
ATOM     13  C   UNL     1       1.619  11.757  18.679  0.00  0.00    +0.000 A 
BRANCH  11  14
ATOM     14  C   UNL     1      -0.331  14.973  19.335  0.00  0.00    +0.000 C 
ATOM     15  F   UNL     1      -0.463  15.466  18.073  0.00  0.00    +0.000 F 
ATOM     16  F   UNL     1      -1.535  15.171  19.939  0.00  0.00    +0.000 F 
ATOM     17  F   UNL     1       0.547  15.800  19.968  0.00  0.00    +0.000 F 
ENDBRANCH  11  14
ENDBRANCH   5   8
ENDBRANCH   1   2
BRANCH   1  18
ATOM     18  O   UNL     1       2.226   4.561  20.821  0.00  0.00    +0.000 OA
ATOM     19  H   UNL     1       1.955   5.244  21.458  0.00  0.00    +0.000 HD
ENDBRANCH   1  18
BRANCH   1  20
ATOM     20  C   UNL     1       4.220   5.111  19.588  0.00  0.00    +0.000 C 
BRANCH  20  23
ATOM     21  C   UNL     1       6.594   5.944  16.752  0.00  0.00    +0.000 A 
ATOM     22  C   UNL     1       5.784   6.042  17.894  0.00  0.00    +0.000 A 
ATOM     23  C   UNL     1       4.807   5.079  18.196  0.00  0.00    +0.000 A 
ATOM     24  C   UNL     1       4.523   4.120  17.217  0.00  0.00    +0.000 A 
ATOM     25  C   UNL     1       5.262   4.058  16.031  0.00  0.00    +0.000 A 
ATOM     26  C   UNL     1       6.326   4.942  15.807  0.00  0.00    +0.000 A 
BRANCH  24  27
ATOM     27  N   UNL     1       3.465   3.132  17.380  0.00  0.00    +0.000 N 
ATOM     28  O   UNL     1       2.353   3.397  16.901  0.00  0.00    +0.000 OA
ATOM     29  O   UNL     1       3.737   2.117  18.030  0.00  0.00    +0.000 OA
ENDBRANCH  24  27
BRANCH  21  31
ATOM     30  C   UNL     1       7.699   7.927  17.447  0.00  0.00    +0.000 C 
ATOM     31  O   UNL     1       7.638   6.811  16.558  0.00  0.00    +0.000 OA
ENDBRANCH  21  31
BRANCH  26  32
ATOM     32  O   UNL     1       6.987   4.657  14.644  0.00  0.00    +0.000 OA
ATOM     33  C   UNL     1       6.313   3.929  13.628  0.00  0.00    +0.000 C 
ENDBRANCH  26  32
ENDBRANCH  20  23
ENDBRANCH   1  20
TORSDOF 9
ENDMDL
MODEL 6
REMARK VINA RESULT:      -8.0      1.624      2.148
REMARK  Name = 
REMARK  11 active torsions:
REMARK  status: ('A' for Active; 'I' for Inactive)
REMARK    1  A    between atoms: C_1  and  O_2
REMARK    2  A    between atoms: O_2  and  C_3
REMARK    3  A    between atoms: C_5  and  C_6
REMARK    4  A    between atoms: C_6  and  C_7
REMARK    5  A    between atoms: C_7  and  O_8
REMARK    6  A    between atoms: C_7  and  C_9
REMARK    7  A    between atoms: C_12  and  C_13
REMARK    8  A    between atoms: C_16  and  C_17
REMARK    9  A    between atoms: C_25  and  N_26
REMARK   10  A    between atoms: C_30  and  O_31
REMARK   11  A    between atoms: O_31  and  C_32
REMARK                            x       y       z     vdW  Elec       q    Type
REMARK                         _______ _______ _______ _____ _____    ______ ____
ROOT
ATOM      1  C   UNL     1       2.356   5.671  19.226  0.00  0.00    +0.000 C 
ENDROOT
BRANCH   1   2
ATOM      2  C   UNL     1       1.869   7.013  19.745  0.00  0.00    +0.000 A 
ATOM      3  C   UNL     1       1.384   7.088  21.053  0.00  0.00    +0.000 A 
ATOM      4  C   UNL     1       0.871   8.289  21.561  0.00  0.00    +0.000 A 
ATOM      5  C   UNL     1       0.845   9.463  20.792  0.00  0.00    +0.000 A 
ATOM      6  C   UNL     1       1.360   9.389  19.493  0.00  0.00    +0.000 A 
ATOM      7  C   UNL     1       1.868   8.187  18.978  0.00  0.00    +0.000 A 
BRANCH   5   8
ATOM      8  C   UNL     1       0.321  10.737  21.352  0.00  0.00    +0.000 A 
ATOM      9  C   UNL     1      -0.648  10.733  22.371  0.00  0.00    +0.000 A 
ATOM     10  C   UNL     1      -1.149  11.922  22.909  0.00  0.00    +0.000 A 
ATOM     11  C   UNL     1      -0.685  13.160  22.457  0.00  0.00    +0.000 A 
ATOM     12  C   UNL     1       0.283  13.184  21.446  0.00  0.00    +0.000 A 
ATOM     13  C   UNL     1       0.772  11.991  20.899  0.00  0.00    +0.000 A 
BRANCH  11  14
ATOM     14  C   UNL     1      -1.205  14.447  23.051  0.00  0.00    +0.000 C 
ATOM     15  F   UNL     1      -2.534  14.648  22.835  0.00  0.00    +0.000 F 
ATOM     16  F   UNL     1      -1.034  14.503  24.400  0.00  0.00    +0.000 F 
ATOM     17  F   UNL     1      -0.576  15.547  22.548  0.00  0.00    +0.000 F 
ENDBRANCH  11  14
ENDBRANCH   5   8
ENDBRANCH   1   2
BRANCH   1  18
ATOM     18  O   UNL     1       1.699   4.621  19.927  0.00  0.00    +0.000 OA
ATOM     19  H   UNL     1       1.614   4.891  20.857  0.00  0.00    +0.000 HD
ENDBRANCH   1  18
BRANCH   1  20
ATOM     20  C   UNL     1       3.872   5.488  19.358  0.00  0.00    +0.000 C 
BRANCH  20  23
ATOM     21  C   UNL     1       6.513   6.037  16.694  0.00  0.00    +0.000 A 
ATOM     22  C   UNL     1       5.577   6.252  17.719  0.00  0.00    +0.000 A 
ATOM     23  C   UNL     1       4.610   5.290  18.055  0.00  0.00    +0.000 A 
ATOM     24  C   UNL     1       4.473   4.188  17.202  0.00  0.00    +0.000 A 
ATOM     25  C   UNL     1       5.342   3.998  16.123  0.00  0.00    +0.000 A 
ATOM     26  C   UNL     1       6.390   4.898  15.883  0.00  0.00    +0.000 A 
BRANCH  24  27
ATOM     27  N   UNL     1       3.442   3.178  17.398  0.00  0.00    +0.000 N 
ATOM     28  O   UNL     1       2.321   3.401  16.918  0.00  0.00    +0.000 OA
ATOM     29  O   UNL     1       3.744   2.188  18.072  0.00  0.00    +0.000 OA
ENDBRANCH  24  27
BRANCH  21  31
ATOM     30  C   UNL     1       7.768   7.871  17.526  0.00  0.00    +0.000 C 
ATOM     31  O   UNL     1       7.538   6.921  16.484  0.00  0.00    +0.000 OA
ENDBRANCH  21  31
BRANCH  26  32
ATOM     32  O   UNL     1       7.186   4.486  14.850  0.00  0.00    +0.000 OA
ATOM     33  C   UNL     1       6.579   4.020  13.654  0.00  0.00    +0.000 C 
ENDBRANCH  26  32
ENDBRANCH  20  23
ENDBRANCH   1  20
TORSDOF 9
ENDMDL
MODEL 7
REMARK VINA RESULT:      -7.9      0.814      1.365
REMARK  Name = 
REMARK  11 active torsions:
REMARK  status: ('A' for Active; 'I' for Inactive)
REMARK    1  A    between atoms: C_1  and  O_2
REMARK    2  A    between atoms: O_2  and  C_3
REMARK    3  A    between atoms: C_5  and  C_6
REMARK    4  A    between atoms: C_6  and  C_7
REMARK    5  A    between atoms: C_7  and  O_8
REMARK    6  A    between atoms: C_7  and  C_9
REMARK    7  A    between atoms: C_12  and  C_13
REMARK    8  A    between atoms: C_16  and  C_17
REMARK    9  A    between atoms: C_25  and  N_26
REMARK   10  A    between atoms: C_30  and  O_31
REMARK   11  A    between atoms: O_31  and  C_32
REMARK                            x       y       z     vdW  Elec       q    Type
REMARK                         _______ _______ _______ _____ _____    ______ ____
ROOT
ATOM      1  C   UNL     1       2.277   5.990  19.264  0.00  0.00    +0.000 C 
ENDROOT
BRANCH   1   2
ATOM      2  C   UNL     1       1.941   7.471  19.246  0.00  0.00    +0.000 A 
ATOM      3  C   UNL     1       2.099   8.178  18.051  0.00  0.00    +0.000 A 
ATOM      4  C   UNL     1       1.857   9.558  17.995  0.00  0.00    +0.000 A 
ATOM      5  C   UNL     1       1.426  10.276  19.122  0.00  0.00    +0.000 A 
ATOM      6  C   UNL     1       1.242   9.557  20.308  0.00  0.00    +0.000 A 
ATOM      7  C   UNL     1       1.490   8.178  20.370  0.00  0.00    +0.000 A 
BRANCH   5   8
ATOM      8  C   UNL     1       1.149  11.735  19.042  0.00  0.00    +0.000 A 
ATOM      9  C   UNL     1      -0.061  12.212  18.506  0.00  0.00    +0.000 A 
ATOM     10  C   UNL     1      -0.337  13.579  18.426  0.00  0.00    +0.000 A 
ATOM     11  C   UNL     1       0.582  14.521  18.897  0.00  0.00    +0.000 A 
ATOM     12  C   UNL     1       1.790  14.065  19.439  0.00  0.00    +0.000 A 
ATOM     13  C   UNL     1       2.070  12.694  19.503  0.00  0.00    +0.000 A 
BRANCH  11  14
ATOM     14  C   UNL     1       0.279  15.999  18.837  0.00  0.00    +0.000 C 
ATOM     15  F   UNL     1      -0.770  16.306  18.024  0.00  0.00    +0.000 F 
ATOM     16  F   UNL     1      -0.031  16.516  20.057  0.00  0.00    +0.000 F 
ATOM     17  F   UNL     1       1.332  16.730  18.377  0.00  0.00    +0.000 F 
ENDBRANCH  11  14
ENDBRANCH   5   8
ENDBRANCH   1   2
BRANCH   1  18
ATOM     18  O   UNL     1       1.556   5.350  20.312  0.00  0.00    +0.000 OA
ATOM     19  H   UNL     1       1.138   6.043  20.853  0.00  0.00    +0.000 HD
ENDBRANCH   1  18
BRANCH   1  20
ATOM     20  C   UNL     1       3.773   5.714  19.447  0.00  0.00    +0.000 C 
BRANCH  20  23
ATOM     21  C   UNL     1       6.472   6.027  16.803  0.00  0.00    +0.000 A 
ATOM     22  C   UNL     1       5.523   6.330  17.792  0.00  0.00    +0.000 A 
ATOM     23  C   UNL     1       4.530   5.413  18.175  0.00  0.00    +0.000 A 
ATOM     24  C   UNL     1       4.385   4.259  17.396  0.00  0.00    +0.000 A 
ATOM     25  C   UNL     1       5.268   3.978  16.349  0.00  0.00    +0.000 A 
ATOM     26  C   UNL     1       6.339   4.838  16.069  0.00  0.00    +0.000 A 
BRANCH  24  27
ATOM     27  N   UNL     1       3.329   3.285  17.640  0.00  0.00    +0.000 N 
ATOM     28  O   UNL     1       2.303   3.365  16.948  0.00  0.00    +0.000 OA
ATOM     29  O   UNL     1       3.509   2.475  18.555  0.00  0.00    +0.000 OA
ENDBRANCH  24  27
BRANCH  21  31
ATOM     30  C   UNL     1       7.692   7.946  17.481  0.00  0.00    +0.000 C 
ATOM     31  O   UNL     1       7.519   6.874  16.553  0.00  0.00    +0.000 OA
ENDBRANCH  21  31
BRANCH  26  32
ATOM     32  O   UNL     1       7.144   4.341  15.081  0.00  0.00    +0.000 OA
ATOM     33  C   UNL     1       6.778   4.542  13.724  0.00  0.00    +0.000 C 
ENDBRANCH  26  32
ENDBRANCH  20  23
ENDBRANCH   1  20
TORSDOF 9
ENDMDL
MODEL 8
REMARK VINA RESULT:      -7.9      0.508      1.190
REMARK  Name = 
REMARK  11 active torsions:
REMARK  status: ('A' for Active; 'I' for Inactive)
REMARK    1  A    between atoms: C_1  and  O_2
REMARK    2  A    between atoms: O_2  and  C_3
REMARK    3  A    between atoms: C_5  and  C_6
REMARK    4  A    between atoms: C_6  and  C_7
REMARK    5  A    between atoms: C_7  and  O_8
REMARK    6  A    between atoms: C_7  and  C_9
REMARK    7  A    between atoms: C_12  and  C_13
REMARK    8  A    between atoms: C_16  and  C_17
REMARK    9  A    between atoms: C_25  and  N_26
REMARK   10  A    between atoms: C_30  and  O_31
REMARK   11  A    between atoms: O_31  and  C_32
REMARK                            x       y       z     vdW  Elec       q    Type
REMARK                         _______ _______ _______ _____ _____    ______ ____
ROOT
ATOM      1  C   UNL     1       2.679   4.905  19.806  0.00  0.00    +0.000 C 
ENDROOT
BRANCH   1   2
ATOM      2  C   UNL     1       2.269   6.365  19.713  0.00  0.00    +0.000 A 
ATOM      3  C   UNL     1       1.640   6.955  20.812  0.00  0.00    +0.000 A 
ATOM      4  C   UNL     1       1.192   8.281  20.757  0.00  0.00    +0.000 A 
ATOM      5  C   UNL     1       1.377   9.074  19.613  0.00  0.00    +0.000 A 
ATOM      6  C   UNL     1       2.034   8.487  18.526  0.00  0.00    +0.000 A 
ATOM      7  C   UNL     1       2.478   7.157  18.575  0.00  0.00    +0.000 A 
BRANCH   5   8
ATOM      8  C   UNL     1       0.918  10.488  19.577  0.00  0.00    +0.000 A 
ATOM      9  C   UNL     1      -0.087  10.944  20.448  0.00  0.00    +0.000 A 
ATOM     10  C   UNL     1      -0.527  12.271  20.427  0.00  0.00    +0.000 A 
ATOM     11  C   UNL     1       0.037  13.195  19.543  0.00  0.00    +0.000 A 
ATOM     12  C   UNL     1       1.042  12.761  18.671  0.00  0.00    +0.000 A 
ATOM     13  C   UNL     1       1.470  11.427  18.685  0.00  0.00    +0.000 A 
BRANCH  11  14
ATOM     14  C   UNL     1      -0.417  14.635  19.533  0.00  0.00    +0.000 C 
ATOM     15  F   UNL     1       0.408  15.470  20.222  0.00  0.00    +0.000 F 
ATOM     16  F   UNL     1      -0.498  15.145  18.274  0.00  0.00    +0.000 F 
ATOM     17  F   UNL     1      -1.653  14.797  20.083  0.00  0.00    +0.000 F 
ENDBRANCH  11  14
ENDBRANCH   5   8
ENDBRANCH   1   2
BRANCH   1  18
ATOM     18  O   UNL     1       2.183   4.346  21.019  0.00  0.00    +0.000 OA
ATOM     19  H   UNL     1       1.336   4.779  21.221  0.00  0.00    +0.000 HD
ENDBRANCH   1  18
BRANCH   1  20
ATOM     20  C   UNL     1       4.196   4.700  19.745  0.00  0.00    +0.000 C 
BRANCH  20  23
ATOM     21  C   UNL     1       6.638   5.674  17.013  0.00  0.00    +0.000 A 
ATOM     22  C   UNL     1       5.818   5.707  18.153  0.00  0.00    +0.000 A 
ATOM     23  C   UNL     1       4.797   4.765  18.361  0.00  0.00    +0.000 A 
ATOM     24  C   UNL     1       4.484   3.909  17.298  0.00  0.00    +0.000 A 
ATOM     25  C   UNL     1       5.234   3.919  16.118  0.00  0.00    +0.000 A 
ATOM     26  C   UNL     1       6.338   4.772  15.981  0.00  0.00    +0.000 A 
BRANCH  24  27
ATOM     27  N   UNL     1       3.382   2.959  17.365  0.00  0.00    +0.000 N 
ATOM     28  O   UNL     1       2.288   3.314  16.904  0.00  0.00    +0.000 OA
ATOM     29  O   UNL     1       3.603   1.878  17.922  0.00  0.00    +0.000 OA
ENDBRANCH  24  27
BRANCH  21  31
ATOM     30  C   UNL     1       7.499   7.871  17.270  0.00  0.00    +0.000 C 
ATOM     31  O   UNL     1       7.719   6.507  16.904  0.00  0.00    +0.000 OA
ENDBRANCH  21  31
BRANCH  26  32
ATOM     32  O   UNL     1       6.999   4.561  14.802  0.00  0.00    +0.000 OA
ATOM     33  C   UNL     1       6.305   3.960  13.719  0.00  0.00    +0.000 C 
ENDBRANCH  26  32
ENDBRANCH  20  23
ENDBRANCH   1  20
TORSDOF 9
ENDMDL
MODEL 9
REMARK VINA RESULT:      -7.8      4.204      7.254
REMARK  Name = 
REMARK  11 active torsions:
REMARK  status: ('A' for Active; 'I' for Inactive)
REMARK    1  A    between atoms: C_1  and  O_2
REMARK    2  A    between atoms: O_2  and  C_3
REMARK    3  A    between atoms: C_5  and  C_6
REMARK    4  A    between atoms: C_6  and  C_7
REMARK    5  A    between atoms: C_7  and  O_8
REMARK    6  A    between atoms: C_7  and  C_9
REMARK    7  A    between atoms: C_12  and  C_13
REMARK    8  A    between atoms: C_16  and  C_17
REMARK    9  A    between atoms: C_25  and  N_26
REMARK   10  A    between atoms: C_30  and  O_31
REMARK   11  A    between atoms: O_31  and  C_32
REMARK                            x       y       z     vdW  Elec       q    Type
REMARK                         _______ _______ _______ _____ _____    ______ ____
ROOT
ATOM      1  C   UNL     1       6.352   4.466  17.267  0.00  0.00    +0.000 C 
ENDROOT
BRANCH   1   2
ATOM      2  C   UNL     1       6.963   5.804  17.651  0.00  0.00    +0.000 A 
ATOM      3  C   UNL     1       6.691   6.917  16.852  0.00  0.00    +0.000 A 
ATOM      4  C   UNL     1       7.275   8.160  17.131  0.00  0.00    +0.000 A 
ATOM      5  C   UNL     1       8.130   8.343  18.229  0.00  0.00    +0.000 A 
ATOM      6  C   UNL     1       8.375   7.231  19.042  0.00  0.00    +0.000 A 
ATOM      7  C   UNL     1       7.799   5.983  18.763  0.00  0.00    +0.000 A 
BRANCH   5   8
ATOM      8  C   UNL     1       8.723   9.674  18.527  0.00  0.00    +0.000 A 
ATOM      9  C   UNL     1       8.576  10.747  17.630  0.00  0.00    +0.000 A 
ATOM     10  C   UNL     1       9.126  12.004  17.898  0.00  0.00    +0.000 A 
ATOM     11  C   UNL     1       9.829  12.237  19.083  0.00  0.00    +0.000 A 
ATOM     12  C   UNL     1       9.981  11.182  19.990  0.00  0.00    +0.000 A 
ATOM     13  C   UNL     1       9.442   9.920  19.712  0.00  0.00    +0.000 A 
BRANCH  11  14
ATOM     14  C   UNL     1      10.403  13.600  19.389  0.00  0.00    +0.000 C 
ATOM     15  F   UNL     1      10.345  13.931  20.708  0.00  0.00    +0.000 F 
ATOM     16  F   UNL     1      11.714  13.702  19.037  0.00  0.00    +0.000 F 
ATOM     17  F   UNL     1       9.759  14.600  18.725  0.00  0.00    +0.000 F 
ENDBRANCH  11  14
ENDBRANCH   5   8
ENDBRANCH   1   2
BRANCH   1  18
ATOM     18  O   UNL     1       6.992   3.968  16.096  0.00  0.00    +0.000 OA
ATOM     19  H   UNL     1       7.633   4.637  15.800  0.00  0.00    +0.000 HD
ENDBRANCH   1  18
BRANCH   1  20
ATOM     20  C   UNL     1       4.843   4.542  17.018  0.00  0.00    +0.000 C 
BRANCH  20  23
ATOM     21  C   UNL     1       2.579   6.868  18.977  0.00  0.00    +0.000 A 
ATOM     22  C   UNL     1       3.566   6.375  18.109  0.00  0.00    +0.000 A 
ATOM     23  C   UNL     1       4.025   5.049  18.182  0.00  0.00    +0.000 A 
ATOM     24  C   UNL     1       3.615   4.286  19.281  0.00  0.00    +0.000 A 
ATOM     25  C   UNL     1       2.696   4.788  20.208  0.00  0.00    +0.000 A 
ATOM     26  C   UNL     1       2.142   6.065  20.043  0.00  0.00    +0.000 A 
BRANCH  24  27
ATOM     27  N   UNL     1       4.103   2.933  19.512  0.00  0.00    +0.000 N 
ATOM     28  O   UNL     1       5.165   2.803  20.139  0.00  0.00    +0.000 OA
ATOM     29  O   UNL     1       3.447   2.006  19.023  0.00  0.00    +0.000 OA
ENDBRANCH  24  27
BRANCH  21  31
ATOM     30  C   UNL     1       2.468   8.812  17.620  0.00  0.00    +0.000 C 
ATOM     31  O   UNL     1       2.041   8.114  18.791  0.00  0.00    +0.000 OA
ENDBRANCH  21  31
BRANCH  26  32
ATOM     32  O   UNL     1       1.193   6.333  20.990  0.00  0.00    +0.000 OA
ATOM     33  C   UNL     1       1.040   7.664  21.458  0.00  0.00    +0.000 C 
ENDBRANCH  26  32
ENDBRANCH  20  23
ENDBRANCH   1  20
TORSDOF 9
ENDMDL
