MODEL 1
REMARK VINA RESULT:      -8.4      0.000      0.000
REMARK  Name = 
REMARK  6 active torsions:
REMARK  status: ('A' for Active; 'I' for Inactive)
REMARK    1  A    between atoms: C_1  and  N_2
REMARK    2  A    between atoms: C_3  and  C_5
REMARK    3  A    between atoms: C_5  and  O_6
REMARK    4  A    between atoms: O_6  and  C_7
REMARK    5  A    between atoms: C_12  and  C_13
REMARK    6  A    between atoms: N_15  and  C_16
REMARK                            x       y       z     vdW  Elec       q    Type
REMARK                         _______ _______ _______ _____ _____    ______ ____
ROOT
ATOM      1  C   UNL     1       0.430  10.207  21.117  0.00  0.00    +0.000 C 
ATOM      2  O   UNL     1       1.339  10.344  21.935  0.00  0.00    +0.000 OA
ATOM      3  N   UNL     1       0.411   9.298  20.079  0.00  0.00    +0.000 N 
ATOM      4  H   UNL     1      -0.424   9.261  19.508  0.00  0.00    +0.000 HD
ENDROOT
BRANCH   3   5
ATOM      5  C   UNL     1       1.506   8.491  19.673  0.00  0.00    +0.000 A 
ATOM      6  C   UNL     1       2.059   8.553  18.383  0.00  0.00    +0.000 A 
ATOM      7  C   UNL     1       2.691   7.439  17.812  0.00  0.00    +0.000 A 
ATOM      8  C   UNL     1       2.781   6.302  18.622  0.00  0.00    +0.000 A 
ATOM      9  C   UNL     1       2.684   6.475  19.996  0.00  0.00    +0.000 A 
ATOM     10  C   UNL     1       1.950   7.509  20.564  0.00  0.00    +0.000 A 
ATOM     11  O   UNL     1       3.077   5.331  20.625  0.00  0.00    +0.000 OA
ATOM     12  C   UNL     1       2.711   4.356  19.746  0.00  0.00    +0.000 A 
ATOM     13  C   UNL     1       2.454   3.048  20.124  0.00  0.00    +0.000 A 
ATOM     14  C   UNL     1       1.467   2.417  19.365  0.00  0.00    +0.000 A 
ATOM     15  C   UNL     1       0.922   3.024  18.223  0.00  0.00    +0.000 A 
ATOM     16  C   UNL     1       1.414   4.248  17.736  0.00  0.00    +0.000 A 
ATOM     17  C   UNL     1       2.340   4.941  18.539  0.00  0.00    +0.000 A 
ENDBRANCH   3   5
BRANCH   1  23
ATOM     18  C   UNL     1      -1.450  11.757  20.317  0.00  0.00    +0.000 A 
ATOM     19  C   UNL     1      -2.417  12.702  20.701  0.00  0.00    +0.000 A 
ATOM     20  C   UNL     1      -2.729  12.909  22.049  0.00  0.00    +0.000 A 
ATOM     21  C   UNL     1      -2.076  12.187  23.039  0.00  0.00    +0.000 A 
ATOM     22  C   UNL     1      -1.088  11.279  22.678  0.00  0.00    +0.000 A 
ATOM     23  C   UNL     1      -0.755  11.070  21.327  0.00  0.00    +0.000 A 
BRANCH  18  24
ATOM     24  O   UNL     1      -1.120  11.514  19.010  0.00  0.00    +0.000 OA
BRANCH  24  25
ATOM     25  C   UNL     1      -2.064  11.958  18.028  0.00  0.00    +0.000 C 
BRANCH  25  28
ATOM     26  C   UNL     1      -3.237  10.419  14.744  0.00  0.00    +0.000 C 
ATOM     27  N   UNL     1      -2.969  11.296  15.852  0.00  0.00    +0.000 N 
ATOM     28  C   UNL     1      -2.254  10.893  16.951  0.00  0.00    +0.000 C 
ATOM     29  O   UNL     1      -1.782   9.758  17.071  0.00  0.00    +0.000 OA
ATOM     30  H   UNL     1      -3.450  12.189  15.920  0.00  0.00    +0.000 HD
ENDBRANCH  25  28
ENDBRANCH  24  25
ENDBRANCH  18  24
ENDBRANCH   1  23
TORSDOF 5
ENDMDL
MODEL 2
REMARK VINA RESULT:      -8.0      2.587      3.709
REMARK  Name = 
REMARK  6 active torsions:
REMARK  status: ('A' for Active; 'I' for Inactive)
REMARK    1  A    between atoms: C_1  and  N_2
REMARK    2  A    between atoms: C_3  and  C_5
REMARK    3  A    between atoms: C_5  and  O_6
REMARK    4  A    between atoms: O_6  and  C_7
REMARK    5  A    between atoms: C_12  and  C_13
REMARK    6  A    between atoms: N_15  and  C_16
REMARK                            x       y       z     vdW  Elec       q    Type
REMARK                         _______ _______ _______ _____ _____    ______ ____
ROOT
ATOM      1  C   UNL     1       1.244   8.208  20.366  0.00  0.00    +0.000 C 
ATOM      2  O   UNL     1       1.619   7.265  21.063  0.00  0.00    +0.000 OA
ATOM      3  N   UNL     1       1.402   8.311  19.000  0.00  0.00    +0.000 N 
ATOM      4  H   UNL     1       1.003   9.123  18.545  0.00  0.00    +0.000 HD
ENDROOT
BRANCH   3   5
ATOM      5  C   UNL     1       2.176   7.436  18.193  0.00  0.00    +0.000 A 
ATOM      6  C   UNL     1       1.962   6.048  18.157  0.00  0.00    +0.000 A 
ATOM      7  C   UNL     1       3.009   5.162  17.861  0.00  0.00    +0.000 A 
ATOM      8  C   UNL     1       4.242   5.749  17.554  0.00  0.00    +0.000 A 
ATOM      9  C   UNL     1       4.243   7.068  17.121  0.00  0.00    +0.000 A 
ATOM     10  C   UNL     1       3.273   7.980  17.518  0.00  0.00    +0.000 A 
ATOM     11  O   UNL     1       5.466   7.372  16.603  0.00  0.00    +0.000 OA
ATOM     12  C   UNL     1       6.313   6.595  17.335  0.00  0.00    +0.000 A 
ATOM     13  C   UNL     1       7.652   6.897  17.523  0.00  0.00    +0.000 A 
ATOM     14  C   UNL     1       8.159   6.503  18.762  0.00  0.00    +0.000 A 
ATOM     15  C   UNL     1       7.400   5.726  19.649  0.00  0.00    +0.000 A 
ATOM     16  C   UNL     1       6.135   5.225  19.292  0.00  0.00    +0.000 A 
ATOM     17  C   UNL     1       5.571   5.690  18.087  0.00  0.00    +0.000 A 
ENDBRANCH   3   5
BRANCH   1  23
ATOM     18  C   UNL     1       0.480  10.633  20.698  0.00  0.00    +0.000 A 
ATOM     19  C   UNL     1      -0.075  11.563  21.594  0.00  0.00    +0.000 A 
ATOM     20  C   UNL     1      -0.636  11.150  22.807  0.00  0.00    +0.000 A 
ATOM     21  C   UNL     1      -0.646   9.805  23.153  0.00  0.00    +0.000 A 
ATOM     22  C   UNL     1      -0.064   8.878  22.297  0.00  0.00    +0.000 A 
ATOM     23  C   UNL     1       0.515   9.282  21.080  0.00  0.00    +0.000 A 
BRANCH  18  24
ATOM     24  O   UNL     1       1.031  10.991  19.496  0.00  0.00    +0.000 OA
BRANCH  24  25
ATOM     25  C   UNL     1       0.353  12.027  18.774  0.00  0.00    +0.000 C 
BRANCH  25  28
ATOM     26  C   UNL     1      -2.149   9.865  16.879  0.00  0.00    +0.000 C 
ATOM     27  N   UNL     1      -0.961  10.458  17.432  0.00  0.00    +0.000 N 
ATOM     28  C   UNL     1      -1.005  11.533  18.283  0.00  0.00    +0.000 C 
ATOM     29  O   UNL     1      -2.059  12.067  18.642  0.00  0.00    +0.000 OA
ATOM     30  H   UNL     1      -0.048  10.196  17.070  0.00  0.00    +0.000 HD
ENDBRANCH  25  28
ENDBRANCH  24  25
ENDBRANCH  18  24
ENDBRANCH   1  23
TORSDOF 5
ENDMDL
MODEL 3
REMARK VINA RESULT:      -8.0      1.454      2.061
REMARK  Name = 
REMARK  6 active torsions:
REMARK  status: ('A' for Active; 'I' for Inactive)
REMARK    1  A    between atoms: C_1  and  N_2
REMARK    2  A    between atoms: C_3  and  C_5
REMARK    3  A    between atoms: C_5  and  O_6
REMARK    4  A    between atoms: O_6  and  C_7
REMARK    5  A    between atoms: C_12  and  C_13
REMARK    6  A    between atoms: N_15  and  C_16
REMARK                            x       y       z     vdW  Elec       q    Type
REMARK                         _______ _______ _______ _____ _____    ______ ____
ROOT
ATOM      1  C   UNL     1       0.340  10.276  21.140  0.00  0.00    +0.000 C 
ATOM      2  O   UNL     1       1.277  10.462  21.917  0.00  0.00    +0.000 OA
ATOM      3  N   UNL     1       0.316   9.355  20.114  0.00  0.00    +0.000 N 
ATOM      4  H   UNL     1      -0.541   9.276  19.579  0.00  0.00    +0.000 HD
ENDROOT
BRANCH   3   5
ATOM      5  C   UNL     1       1.425   8.590  19.669  0.00  0.00    +0.000 A 
ATOM      6  C   UNL     1       1.947   8.692  18.368  0.00  0.00    +0.000 A 
ATOM      7  C   UNL     1       2.601   7.608  17.764  0.00  0.00    +0.000 A 
ATOM      8  C   UNL     1       2.744   6.461  18.552  0.00  0.00    +0.000 A 
ATOM      9  C   UNL     1       2.672   6.606  19.930  0.00  0.00    +0.000 A 
ATOM     10  C   UNL     1       1.920   7.607  20.532  0.00  0.00    +0.000 A 
ATOM     11  O   UNL     1       3.115   5.465  20.529  0.00  0.00    +0.000 OA
ATOM     12  C   UNL     1       2.760   4.494  19.641  0.00  0.00    +0.000 A 
ATOM     13  C   UNL     1       2.552   3.173  20.001  0.00  0.00    +0.000 A 
ATOM     14  C   UNL     1       1.568   2.524  19.253  0.00  0.00    +0.000 A 
ATOM     15  C   UNL     1       0.979   3.133  18.135  0.00  0.00    +0.000 A 
ATOM     16  C   UNL     1       1.421   4.380  17.658  0.00  0.00    +0.000 A 
ATOM     17  C   UNL     1       2.344   5.088  18.453  0.00  0.00    +0.000 A 
ENDBRANCH   3   5
BRANCH   1  23
ATOM     18  C   UNL     1      -1.654  11.711  20.404  0.00  0.00    +0.000 A 
ATOM     19  C   UNL     1      -2.641  12.623  20.814  0.00  0.00    +0.000 A 
ATOM     20  C   UNL     1      -2.885  12.863  22.170  0.00  0.00    +0.000 A 
ATOM     21  C   UNL     1      -2.143  12.205  23.142  0.00  0.00    +0.000 A 
ATOM     22  C   UNL     1      -1.135  11.331  22.753  0.00  0.00    +0.000 A 
ATOM     23  C   UNL     1      -0.871  11.091  21.392  0.00  0.00    +0.000 A 
BRANCH  18  24
ATOM     24  O   UNL     1      -1.388  11.439  19.088  0.00  0.00    +0.000 OA
BRANCH  24  25
ATOM     25  C   UNL     1      -1.214  12.574  18.231  0.00  0.00    +0.000 C 
BRANCH  25  28
ATOM     26  C   UNL     1       2.596  12.681  18.287  0.00  0.00    +0.000 C 
ATOM     27  N   UNL     1       1.216  12.289  18.172  0.00  0.00    +0.000 N 
ATOM     28  C   UNL     1       0.183  13.162  18.403  0.00  0.00    +0.000 C 
ATOM     29  O   UNL     1       0.356  14.344  18.718  0.00  0.00    +0.000 OA
ATOM     30  H   UNL     1       0.974  11.307  18.080  0.00  0.00    +0.000 HD
ENDBRANCH  25  28
ENDBRANCH  24  25
ENDBRANCH  18  24
ENDBRANCH   1  23
TORSDOF 5
ENDMDL
MODEL 4
REMARK VINA RESULT:      -7.9      2.868      8.011
REMARK  Name = 
REMARK  6 active torsions:
REMARK  status: ('A' for Active; 'I' for Inactive)
REMARK    1  A    between atoms: C_1  and  N_2
REMARK    2  A    between atoms: C_3  and  C_5
REMARK    3  A    between atoms: C_5  and  O_6
REMARK    4  A    between atoms: O_6  and  C_7
REMARK    5  A    between atoms: C_12  and  C_13
REMARK    6  A    between atoms: N_15  and  C_16
REMARK                            x       y       z     vdW  Elec       q    Type
REMARK                         _______ _______ _______ _____ _____    ______ ____
ROOT
ATOM      1  C   UNL     1       1.957   7.738  19.628  0.00  0.00    +0.000 C 
ATOM      2  O   UNL     1       1.785   8.233  20.742  0.00  0.00    +0.000 OA
ATOM      3  N   UNL     1       1.865   8.409  18.426  0.00  0.00    +0.000 N 
ATOM      4  H   UNL     1       2.078   7.888  17.585  0.00  0.00    +0.000 HD
ENDROOT
BRANCH   3   5
ATOM      5  C   UNL     1       1.387   9.735  18.260  0.00  0.00    +0.000 A 
ATOM      6  C   UNL     1       2.239  10.852  18.231  0.00  0.00    +0.000 A 
ATOM      7  C   UNL     1       1.789  12.116  18.639  0.00  0.00    +0.000 A 
ATOM      8  C   UNL     1       0.445  12.197  19.017  0.00  0.00    +0.000 A 
ATOM      9  C   UNL     1      -0.422  11.220  18.547  0.00  0.00    +0.000 A 
ATOM     10  C   UNL     1       0.002   9.928  18.261  0.00  0.00    +0.000 A 
ATOM     11  O   UNL     1      -1.709  11.611  18.767  0.00  0.00    +0.000 OA
ATOM     12  C   UNL     1      -1.614  12.350  19.909  0.00  0.00    +0.000 A 
ATOM     13  C   UNL     1      -2.674  12.545  20.779  0.00  0.00    +0.000 A 
ATOM     14  C   UNL     1      -2.301  12.649  22.120  0.00  0.00    +0.000 A 
ATOM     15  C   UNL     1      -0.953  12.713  22.502  0.00  0.00    +0.000 A 
ATOM     16  C   UNL     1       0.079  12.776  21.548  0.00  0.00    +0.000 A 
ATOM     17  C   UNL     1      -0.272  12.577  20.199  0.00  0.00    +0.000 A 
ENDBRANCH   3   5
BRANCH   1  23
ATOM     18  C   UNL     1       3.159   5.697  18.645  0.00  0.00    +0.000 A 
ATOM     19  C   UNL     1       3.263   4.296  18.653  0.00  0.00    +0.000 A 
ATOM     20  C   UNL     1       2.629   3.531  19.638  0.00  0.00    +0.000 A 
ATOM     21  C   UNL     1       1.873   4.147  20.626  0.00  0.00    +0.000 A 
ATOM     22  C   UNL     1       1.727   5.529  20.607  0.00  0.00    +0.000 A 
ATOM     23  C   UNL     1       2.349   6.309  19.615  0.00  0.00    +0.000 A 
BRANCH  18  24
ATOM     24  O   UNL     1       3.771   6.486  17.706  0.00  0.00    +0.000 OA
BRANCH  24  25
ATOM     25  C   UNL     1       5.167   6.244  17.491  0.00  0.00    +0.000 C 
BRANCH  25  28
ATOM     26  C   UNL     1       6.113   4.175  14.433  0.00  0.00    +0.000 C 
ATOM     27  N   UNL     1       5.826   4.640  15.763  0.00  0.00    +0.000 N 
ATOM     28  C   UNL     1       5.432   5.929  16.022  0.00  0.00    +0.000 C 
ATOM     29  O   UNL     1       5.288   6.781  15.138  0.00  0.00    +0.000 OA
ATOM     30  H   UNL     1       6.071   4.066  16.565  0.00  0.00    +0.000 HD
ENDBRANCH  25  28
ENDBRANCH  24  25
ENDBRANCH  18  24
ENDBRANCH   1  23
TORSDOF 5
ENDMDL
MODEL 5
REMARK VINA RESULT:      -7.9      1.550      3.783
REMARK  Name = 
REMARK  6 active torsions:
REMARK  status: ('A' for Active; 'I' for Inactive)
REMARK    1  A    between atoms: C_1  and  N_2
REMARK    2  A    between atoms: C_3  and  C_5
REMARK    3  A    between atoms: C_5  and  O_6
REMARK    4  A    between atoms: O_6  and  C_7
REMARK    5  A    between atoms: C_12  and  C_13
REMARK    6  A    between atoms: N_15  and  C_16
REMARK                            x       y       z     vdW  Elec       q    Type
REMARK                         _______ _______ _______ _____ _____    ______ ____
ROOT
ATOM      1  C   UNL     1      -1.065   9.998  17.887  0.00  0.00    +0.000 C 
ATOM      2  O   UNL     1      -0.992   9.285  16.886  0.00  0.00    +0.000 OA
ATOM      3  N   UNL     1      -0.087  10.136  18.850  0.00  0.00    +0.000 N 
ATOM      4  H   UNL     1      -0.260  10.795  19.599  0.00  0.00    +0.000 HD
ENDROOT
BRANCH   3   5
ATOM      5  C   UNL     1       1.090   9.349  18.945  0.00  0.00    +0.000 A 
ATOM      6  C   UNL     1       2.029   9.257  17.903  0.00  0.00    +0.000 A 
ATOM      7  C   UNL     1       2.826   8.113  17.746  0.00  0.00    +0.000 A 
ATOM      8  C   UNL     1       2.664   7.114  18.712  0.00  0.00    +0.000 A 
ATOM      9  C   UNL     1       2.126   7.478  19.938  0.00  0.00    +0.000 A 
ATOM     10  C   UNL     1       1.236   8.536  20.074  0.00  0.00    +0.000 A 
ATOM     11  O   UNL     1       2.309   6.465  20.832  0.00  0.00    +0.000 OA
ATOM     12  C   UNL     1       2.260   5.351  20.048  0.00  0.00    +0.000 A 
ATOM     13  C   UNL     1       1.911   4.099  20.526  0.00  0.00    +0.000 A 
ATOM     14  C   UNL     1       1.230   3.304  19.603  0.00  0.00    +0.000 A 
ATOM     15  C   UNL     1       1.075   3.702  18.268  0.00  0.00    +0.000 A 
ATOM     16  C   UNL     1       1.682   4.871  17.774  0.00  0.00    +0.000 A 
ATOM     17  C   UNL     1       2.291   5.730  18.709  0.00  0.00    +0.000 A 
ENDBRANCH   3   5
BRANCH   1  23
ATOM     18  C   UNL     1      -2.592  11.693  19.058  0.00  0.00    +0.000 A 
ATOM     19  C   UNL     1      -3.890  12.223  19.139  0.00  0.00    +0.000 A 
ATOM     20  C   UNL     1      -4.851  11.930  18.166  0.00  0.00    +0.000 A 
ATOM     21  C   UNL     1      -4.539  11.097  17.100  0.00  0.00    +0.000 A 
ATOM     22  C   UNL     1      -3.271  10.532  17.028  0.00  0.00    +0.000 A 
ATOM     23  C   UNL     1      -2.299  10.808  18.007  0.00  0.00    +0.000 A 
BRANCH  18  24
ATOM     24  O   UNL     1      -1.616  11.961  19.983  0.00  0.00    +0.000 OA
BRANCH  24  25
ATOM     25  C   UNL     1      -2.055  12.563  21.207  0.00  0.00    +0.000 C 
BRANCH  25  28
ATOM     26  C   UNL     1      -0.287   9.862  23.233  0.00  0.00    +0.000 C 
ATOM     27  N   UNL     1      -0.963  10.616  22.213  0.00  0.00    +0.000 N 
ATOM     28  C   UNL     1      -1.354  11.918  22.399  0.00  0.00    +0.000 C 
ATOM     29  O   UNL     1      -1.150  12.540  23.447  0.00  0.00    +0.000 OA
ATOM     30  H   UNL     1      -1.318  10.145  21.385  0.00  0.00    +0.000 HD
ENDBRANCH  25  28
ENDBRANCH  24  25
ENDBRANCH  18  24
ENDBRANCH   1  23
TORSDOF 5
ENDMDL
MODEL 6
REMARK VINA RESULT:      -7.8      2.413      3.606
REMARK  Name = 
REMARK  6 active torsions:
REMARK  status: ('A' for Active; 'I' for Inactive)
REMARK    1  A    between atoms: C_1  and  N_2
REMARK    2  A    between atoms: C_3  and  C_5
REMARK    3  A    between atoms: C_5  and  O_6
REMARK    4  A    between atoms: O_6  and  C_7
REMARK    5  A    between atoms: C_12  and  C_13
REMARK    6  A    between atoms: N_15  and  C_16
REMARK                            x       y       z     vdW  Elec       q    Type
REMARK                         _______ _______ _______ _____ _____    ______ ____
ROOT
ATOM      1  C   UNL     1       1.305   8.309  20.222  0.00  0.00    +0.000 C 
ATOM      2  O   UNL     1       1.877   8.833  19.265  0.00  0.00    +0.000 OA
ATOM      3  N   UNL     1       1.453   7.000  20.629  0.00  0.00    +0.000 N 
ATOM      4  H   UNL     1       0.956   6.713  21.463  0.00  0.00    +0.000 HD
ENDROOT
BRANCH   3   5
ATOM      5  C   UNL     1       2.150   5.991  19.916  0.00  0.00    +0.000 A 
ATOM      6  C   UNL     1       2.576   4.793  20.514  0.00  0.00    +0.000 A 
ATOM      7  C   UNL     1       3.697   4.102  20.032  0.00  0.00    +0.000 A 
ATOM      8  C   UNL     1       4.316   4.648  18.902  0.00  0.00    +0.000 A 
ATOM      9  C   UNL     1       3.567   5.495  18.097  0.00  0.00    +0.000 A 
ATOM     10  C   UNL     1       2.534   6.276  18.602  0.00  0.00    +0.000 A 
ATOM     11  O   UNL     1       4.219   5.693  16.917  0.00  0.00    +0.000 OA
ATOM     12  C   UNL     1       5.532   5.610  17.274  0.00  0.00    +0.000 A 
ATOM     13  C   UNL     1       6.555   6.209  16.557  0.00  0.00    +0.000 A 
ATOM     14  C   UNL     1       7.621   6.651  17.342  0.00  0.00    +0.000 A 
ATOM     15  C   UNL     1       7.696   6.352  18.710  0.00  0.00    +0.000 A 
ATOM     16  C   UNL     1       6.754   5.512  19.331  0.00  0.00    +0.000 A 
ATOM     17  C   UNL     1       5.624   5.135  18.579  0.00  0.00    +0.000 A 
ENDBRANCH   3   5
BRANCH   1  23
ATOM     18  C   UNL     1      -0.297  10.292  20.502  0.00  0.00    +0.000 A 
ATOM     19  C   UNL     1      -0.904  11.174  21.412  0.00  0.00    +0.000 A 
ATOM     20  C   UNL     1      -0.841  10.944  22.790  0.00  0.00    +0.000 A 
ATOM     21  C   UNL     1      -0.164   9.839  23.287  0.00  0.00    +0.000 A 
ATOM     22  C   UNL     1       0.478   8.980  22.403  0.00  0.00    +0.000 A 
ATOM     23  C   UNL     1       0.432   9.206  21.014  0.00  0.00    +0.000 A 
BRANCH  18  24
ATOM     24  O   UNL     1      -0.341  10.472  19.144  0.00  0.00    +0.000 OA
BRANCH  24  25
ATOM     25  C   UNL     1      -0.910  11.706  18.689  0.00  0.00    +0.000 C 
BRANCH  25  28
ATOM     26  C   UNL     1      -3.003  10.916  15.603  0.00  0.00    +0.000 C 
ATOM     27  N   UNL     1      -1.935  11.189  16.527  0.00  0.00    +0.000 N 
ATOM     28  C   UNL     1      -2.162  11.441  17.857  0.00  0.00    +0.000 C 
ATOM     29  O   UNL     1      -3.289  11.446  18.361  0.00  0.00    +0.000 OA
ATOM     30  H   UNL     1      -0.997  11.368  16.180  0.00  0.00    +0.000 HD
ENDBRANCH  25  28
ENDBRANCH  24  25
ENDBRANCH  18  24
ENDBRANCH   1  23
TORSDOF 5
ENDMDL
MODEL 7
REMARK VINA RESULT:      -7.8      1.961      3.571
REMARK  Name = 
REMARK  6 active torsions:
REMARK  status: ('A' for Active; 'I' for Inactive)
REMARK    1  A    between atoms: C_1  and  N_2
REMARK    2  A    between atoms: C_3  and  C_5
REMARK    3  A    between atoms: C_5  and  O_6
REMARK    4  A    between atoms: O_6  and  C_7
REMARK    5  A    between atoms: C_12  and  C_13
REMARK    6  A    between atoms: N_15  and  C_16
REMARK                            x       y       z     vdW  Elec       q    Type
REMARK                         _______ _______ _______ _____ _____    ______ ____
ROOT
ATOM      1  C   UNL     1       0.934   9.955  18.254  0.00  0.00    +0.000 C 
ATOM      2  O   UNL     1       1.880  10.726  18.088  0.00  0.00    +0.000 OA
ATOM      3  N   UNL     1       1.032   8.626  18.608  0.00  0.00    +0.000 N 
ATOM      4  H   UNL     1       0.169   8.120  18.758  0.00  0.00    +0.000 HD
ENDROOT
BRANCH   3   5
ATOM      5  C   UNL     1       2.237   7.878  18.669  0.00  0.00    +0.000 A 
ATOM      6  C   UNL     1       3.203   7.908  17.649  0.00  0.00    +0.000 A 
ATOM      7  C   UNL     1       4.047   6.812  17.418  0.00  0.00    +0.000 A 
ATOM      8  C   UNL     1       3.901   5.730  18.293  0.00  0.00    +0.000 A 
ATOM      9  C   UNL     1       3.320   5.970  19.531  0.00  0.00    +0.000 A 
ATOM     10  C   UNL     1       2.387   6.979  19.730  0.00  0.00    +0.000 A 
ATOM     11  O   UNL     1       3.522   4.892  20.341  0.00  0.00    +0.000 OA
ATOM     12  C   UNL     1       3.534   3.847  19.466  0.00  0.00    +0.000 A 
ATOM     13  C   UNL     1       3.222   2.547  19.830  0.00  0.00    +0.000 A 
ATOM     14  C   UNL     1       2.595   1.808  18.826  0.00  0.00    +0.000 A 
ATOM     15  C   UNL     1       2.456   2.312  17.524  0.00  0.00    +0.000 A 
ATOM     16  C   UNL     1       3.029   3.539  17.146  0.00  0.00    +0.000 A 
ATOM     17  C   UNL     1       3.582   4.338  18.165  0.00  0.00    +0.000 A 
ENDBRANCH   3   5
BRANCH   1  23
ATOM     18  C   UNL     1      -0.849  11.734  18.734  0.00  0.00    +0.000 A 
ATOM     19  C   UNL     1      -2.215  12.055  18.668  0.00  0.00    +0.000 A 
ATOM     20  C   UNL     1      -3.110  11.258  17.946  0.00  0.00    +0.000 A 
ATOM     21  C   UNL     1      -2.661  10.123  17.285  0.00  0.00    +0.000 A 
ATOM     22  C   UNL     1      -1.320   9.769  17.375  0.00  0.00    +0.000 A 
ATOM     23  C   UNL     1      -0.412  10.555  18.109  0.00  0.00    +0.000 A 
BRANCH  18  24
ATOM     24  O   UNL     1       0.064  12.491  19.421  0.00  0.00    +0.000 OA
BRANCH  24  25
ATOM     25  C   UNL     1      -0.220  12.718  20.807  0.00  0.00    +0.000 C 
BRANCH  25  28
ATOM     26  C   UNL     1      -0.669   9.834  23.258  0.00  0.00    +0.000 C 
ATOM     27  N   UNL     1      -0.852  10.987  22.418  0.00  0.00    +0.000 N 
ATOM     28  C   UNL     1       0.155  11.493  21.636  0.00  0.00    +0.000 C 
ATOM     29  O   UNL     1       1.285  10.997  21.587  0.00  0.00    +0.000 OA
ATOM     30  H   UNL     1      -1.689  11.557  22.514  0.00  0.00    +0.000 HD
ENDBRANCH  25  28
ENDBRANCH  24  25
ENDBRANCH  18  24
ENDBRANCH   1  23
TORSDOF 5
ENDMDL
MODEL 8
REMARK VINA RESULT:      -7.7      2.499      3.582
REMARK  Name = 
REMARK  6 active torsions:
REMARK  status: ('A' for Active; 'I' for Inactive)
REMARK    1  A    between atoms: C_1  and  N_2
REMARK    2  A    between atoms: C_3  and  C_5
REMARK    3  A    between atoms: C_5  and  O_6
REMARK    4  A    between atoms: O_6  and  C_7
REMARK    5  A    between atoms: C_12  and  C_13
REMARK    6  A    between atoms: N_15  and  C_16
REMARK                            x       y       z     vdW  Elec       q    Type
REMARK                         _______ _______ _______ _____ _____    ______ ____
ROOT
ATOM      1  C   UNL     1       0.924   9.197  19.673  0.00  0.00    +0.000 C 
ATOM      2  O   UNL     1       1.007   9.803  18.605  0.00  0.00    +0.000 OA
ATOM      3  N   UNL     1       1.518   7.986  19.960  0.00  0.00    +0.000 N 
ATOM      4  H   UNL     1       1.405   7.621  20.897  0.00  0.00    +0.000 HD
ENDROOT
BRANCH   3   5
ATOM      5  C   UNL     1       2.179   7.152  19.020  0.00  0.00    +0.000 A 
ATOM      6  C   UNL     1       2.065   5.751  19.034  0.00  0.00    +0.000 A 
ATOM      7  C   UNL     1       3.094   4.936  18.541  0.00  0.00    +0.000 A 
ATOM      8  C   UNL     1       4.196   5.603  17.993  0.00  0.00    +0.000 A 
ATOM      9  C   UNL     1       4.016   6.910  17.562  0.00  0.00    +0.000 A 
ATOM     10  C   UNL     1       3.079   7.759  18.138  0.00  0.00    +0.000 A 
ATOM     11  O   UNL     1       5.087   7.290  16.810  0.00  0.00    +0.000 OA
ATOM     12  C   UNL     1       6.116   6.589  17.364  0.00  0.00    +0.000 A 
ATOM     13  C   UNL     1       7.440   6.987  17.281  0.00  0.00    +0.000 A 
ATOM     14  C   UNL     1       8.209   6.654  18.397  0.00  0.00    +0.000 A 
ATOM     15  C   UNL     1       7.698   5.843  19.421  0.00  0.00    +0.000 A 
ATOM     16  C   UNL     1       6.428   5.248  19.323  0.00  0.00    +0.000 A 
ATOM     17  C   UNL     1       5.605   5.647  18.252  0.00  0.00    +0.000 A 
ENDBRANCH   3   5
BRANCH   1  23
ATOM     18  C   UNL     1      -0.259  11.223  20.709  0.00  0.00    +0.000 A 
ATOM     19  C   UNL     1      -0.787  11.782  21.884  0.00  0.00    +0.000 A 
ATOM     20  C   UNL     1      -0.957  11.010  23.038  0.00  0.00    +0.000 A 
ATOM     21  C   UNL     1      -0.594   9.670  23.045  0.00  0.00    +0.000 A 
ATOM     22  C   UNL     1      -0.031   9.112  21.904  0.00  0.00    +0.000 A 
ATOM     23  C   UNL     1       0.157   9.881  20.740  0.00  0.00    +0.000 A 
BRANCH  18  24
ATOM     24  O   UNL     1      -0.084  11.939  19.553  0.00  0.00    +0.000 OA
BRANCH  24  25
ATOM     25  C   UNL     1      -1.197  12.736  19.131  0.00  0.00    +0.000 C 
BRANCH  25  28
ATOM     26  C   UNL     1      -2.666  10.803  16.192  0.00  0.00    +0.000 C 
ATOM     27  N   UNL     1      -1.839  11.596  17.062  0.00  0.00    +0.000 N 
ATOM     28  C   UNL     1      -2.198  11.885  18.354  0.00  0.00    +0.000 C 
ATOM     29  O   UNL     1      -3.246  11.483  18.870  0.00  0.00    +0.000 OA
ATOM     30  H   UNL     1      -1.045  12.103  16.682  0.00  0.00    +0.000 HD
ENDBRANCH  25  28
ENDBRANCH  24  25
ENDBRANCH  18  24
ENDBRANCH   1  23
TORSDOF 5
ENDMDL
MODEL 9
REMARK VINA RESULT:      -7.7      3.218      4.497
REMARK  Name = 
REMARK  6 active torsions:
REMARK  status: ('A' for Active; 'I' for Inactive)
REMARK    1  A    between atoms: C_1  and  N_2
REMARK    2  A    between atoms: C_3  and  C_5
REMARK    3  A    between atoms: C_5  and  O_6
REMARK    4  A    between atoms: O_6  and  C_7
REMARK    5  A    between atoms: C_12  and  C_13
REMARK    6  A    between atoms: N_15  and  C_16
REMARK                            x       y       z     vdW  Elec       q    Type
REMARK                         _______ _______ _______ _____ _____    ______ ____
ROOT
ATOM      1  C   UNL     1       1.299   8.344  20.264  0.00  0.00    +0.000 C 
ATOM      2  O   UNL     1       1.649   7.419  20.997  0.00  0.00    +0.000 OA
ATOM      3  N   UNL     1       1.462   8.392  18.895  0.00  0.00    +0.000 N 
ATOM      4  H   UNL     1       1.084   9.196  18.409  0.00  0.00    +0.000 HD
ENDROOT
BRANCH   3   5
ATOM      5  C   UNL     1       2.216   7.469  18.125  0.00  0.00    +0.000 A 
ATOM      6  C   UNL     1       1.965   6.086  18.135  0.00  0.00    +0.000 A 
ATOM      7  C   UNL     1       2.988   5.163  17.876  0.00  0.00    +0.000 A 
ATOM      8  C   UNL     1       4.238   5.705  17.558  0.00  0.00    +0.000 A 
ATOM      9  C   UNL     1       4.278   7.008  17.080  0.00  0.00    +0.000 A 
ATOM     10  C   UNL     1       3.331   7.959  17.438  0.00  0.00    +0.000 A 
ATOM     11  O   UNL     1       5.512   7.261  16.559  0.00  0.00    +0.000 OA
ATOM     12  C   UNL     1       6.333   6.487  17.323  0.00  0.00    +0.000 A 
ATOM     13  C   UNL     1       7.679   6.758  17.509  0.00  0.00    +0.000 A 
ATOM     14  C   UNL     1       8.168   6.394  18.764  0.00  0.00    +0.000 A 
ATOM     15  C   UNL     1       7.383   5.669  19.673  0.00  0.00    +0.000 A 
ATOM     16  C   UNL     1       6.107   5.191  19.325  0.00  0.00    +0.000 A 
ATOM     17  C   UNL     1       5.563   5.628  18.101  0.00  0.00    +0.000 A 
ENDBRANCH   3   5
BRANCH   1  23
ATOM     18  C   UNL     1       0.714  10.819  20.595  0.00  0.00    +0.000 A 
ATOM     19  C   UNL     1       0.151  11.773  21.460  0.00  0.00    +0.000 A 
ATOM     20  C   UNL     1      -0.565  11.383  22.596  0.00  0.00    +0.000 A 
ATOM     21  C   UNL     1      -0.725  10.037  22.897  0.00  0.00    +0.000 A 
ATOM     22  C   UNL     1      -0.139   9.083  22.075  0.00  0.00    +0.000 A 
ATOM     23  C   UNL     1       0.594   9.461  20.935  0.00  0.00    +0.000 A 
BRANCH  18  24
ATOM     24  O   UNL     1       1.414  11.155  19.466  0.00  0.00    +0.000 OA
BRANCH  24  25
ATOM     25  C   UNL     1       1.150  12.454  18.922  0.00  0.00    +0.000 C 
BRANCH  25  28
ATOM     26  C   UNL     1       4.000  14.764  17.890  0.00  0.00    +0.000 C 
ATOM     27  N   UNL     1       2.859  13.890  17.917  0.00  0.00    +0.000 N 
ATOM     28  C   UNL     1       2.369  13.357  19.083  0.00  0.00    +0.000 C 
ATOM     29  O   UNL     1       2.862  13.591  20.191  0.00  0.00    +0.000 OA
ATOM     30  H   UNL     1       2.489  13.511  17.050  0.00  0.00    +0.000 HD
ENDBRANCH  25  28
ENDBRANCH  24  25
ENDBRANCH  18  24
ENDBRANCH   1  23
TORSDOF 5
ENDMDL
