MODEL 1
REMARK VINA RESULT:      -6.0      0.000      0.000
REMARK  Name = 
REMARK  12 active torsions:
REMARK  status: ('A' for Active; 'I' for Inactive)
REMARK    1  A    between atoms: C_1  and  C_2
REMARK    2  A    between atoms: C_2  and  C_3
REMARK    3  A    between atoms: C_3  and  C_4
REMARK    4  A    between atoms: C_4  and  C_5
REMARK    5  A    between atoms: C_5  and  C_6
REMARK    6  A    between atoms: C_6  and  C_7
REMARK    7  A    between atoms: C_7  and  C_8
REMARK    8  A    between atoms: C_8  and  C_9
REMARK    9  A    between atoms: C_9  and  C_10
REMARK   10  A    between atoms: C_10  and  C_11
REMARK   11  A    between atoms: N_13  and  C_14
REMARK   12  A    between atoms: C_14  and  C_15
REMARK                            x       y       z     vdW  Elec       q    Type
REMARK                         _______ _______ _______ _____ _____    ______ ____
ROOT
ATOM      1  C   UNL     1       1.933   2.619  18.425  0.00  0.00    +0.000 A 
ATOM      2  C   UNL     1       2.459   3.314  17.354  0.00  0.00    +0.000 A 
ATOM      3  N   UNL     1       3.706   2.785  17.202  0.00  0.00    +0.000 N 
ATOM      4  N   UNL     1       3.922   1.787  18.082  0.00  0.00    +0.000 NA
ATOM      5  N   UNL     1       2.834   1.674  18.831  0.00  0.00    +0.000 NA
ENDROOT
BRANCH   1   6
ATOM      6  C   UNL     1       0.662   2.856  19.134  0.00  0.00    +0.000 C 
BRANCH   6   7
ATOM      7  C   UNL     1       0.902   3.586  20.451  0.00  0.00    +0.000 C 
BRANCH   7   8
ATOM      8  C   UNL     1       1.275   5.042  20.212  0.00  0.00    +0.000 C 
BRANCH   8   9
ATOM      9  C   UNL     1       2.750   5.264  20.521  0.00  0.00    +0.000 C 
BRANCH   9  10
ATOM     10  C   UNL     1       3.393   6.142  19.458  0.00  0.00    +0.000 C 
BRANCH  10  11
ATOM     11  C   UNL     1       2.335   6.697  18.514  0.00  0.00    +0.000 C 
BRANCH  11  12
ATOM     12  C   UNL     1       2.771   8.043  17.950  0.00  0.00    +0.000 C 
BRANCH  12  13
ATOM     13  C   UNL     1       1.600   9.018  17.923  0.00  0.00    +0.000 C 
BRANCH  13  15
ATOM     14  C   UNL     1       0.921  10.778  19.573  0.00  0.00    +0.000 C 
ATOM     15  C   UNL     1       1.080   9.287  19.332  0.00  0.00    +0.000 C 
ENDBRANCH  13  15
ENDBRANCH  12  13
ENDBRANCH  11  12
ENDBRANCH  10  11
ENDBRANCH   9  10
ENDBRANCH   8   9
ENDBRANCH   7   8
ENDBRANCH   6   7
ENDBRANCH   1   6
BRANCH   3  16
ATOM     16  C   UNL     1       4.782   3.246  16.351  0.00  0.00    +0.000 C 
BRANCH  16  17
ATOM     17  C   UNL     1       5.380   4.550  16.821  0.00  0.00    +0.000 A 
ATOM     18  C   UNL     1       5.138   5.742  16.122  0.00  0.00    +0.000 A 
ATOM     19  C   UNL     1       5.824   6.913  16.447  0.00  0.00    +0.000 A 
ATOM     20  C   UNL     1       6.745   6.910  17.494  0.00  0.00    +0.000 A 
ATOM     21  C   UNL     1       6.953   5.746  18.226  0.00  0.00    +0.000 A 
ATOM     22 CL   UNL     1       8.087   5.746  19.524  0.00  0.00    +0.000 Cl
ATOM     23  C   UNL     1       6.282   4.566  17.901  0.00  0.00    +0.000 A 
ENDBRANCH  16  17
ENDBRANCH   3  16
TORSDOF 11
ENDMDL
MODEL 2
REMARK VINA RESULT:      -6.0      4.631      8.078
REMARK  Name = 
REMARK  12 active torsions:
REMARK  status: ('A' for Active; 'I' for Inactive)
REMARK    1  A    between atoms: C_1  and  C_2
REMARK    2  A    between atoms: C_2  and  C_3
REMARK    3  A    between atoms: C_3  and  C_4
REMARK    4  A    between atoms: C_4  and  C_5
REMARK    5  A    between atoms: C_5  and  C_6
REMARK    6  A    between atoms: C_6  and  C_7
REMARK    7  A    between atoms: C_7  and  C_8
REMARK    8  A    between atoms: C_8  and  C_9
REMARK    9  A    between atoms: C_9  and  C_10
REMARK   10  A    between atoms: C_10  and  C_11
REMARK   11  A    between atoms: N_13  and  C_14
REMARK   12  A    between atoms: C_14  and  C_15
REMARK                            x       y       z     vdW  Elec       q    Type
REMARK                         _______ _______ _______ _____ _____    ______ ____
ROOT
ATOM      1  C   UNL     1       2.206   8.433  18.463  0.00  0.00    +0.000 A 
ATOM      2  C   UNL     1       1.829   9.641  17.911  0.00  0.00    +0.000 A 
ATOM      3  N   UNL     1       0.981  10.173  18.836  0.00  0.00    +0.000 N 
ATOM      4  N   UNL     1       0.882   9.376  19.920  0.00  0.00    +0.000 NA
ATOM      5  N   UNL     1       1.638   8.310  19.700  0.00  0.00    +0.000 NA
ENDROOT
BRANCH   1   6
ATOM      6  C   UNL     1       3.006   7.357  17.849  0.00  0.00    +0.000 C 
BRANCH   6   7
ATOM      7  C   UNL     1       2.592   5.993  18.391  0.00  0.00    +0.000 C 
BRANCH   7   8
ATOM      8  C   UNL     1       3.651   5.431  19.329  0.00  0.00    +0.000 C 
BRANCH   8   9
ATOM      9  C   UNL     1       2.994   4.848  20.574  0.00  0.00    +0.000 C 
BRANCH   9  10
ATOM     10  C   UNL     1       1.489   4.734  20.383  0.00  0.00    +0.000 C 
BRANCH  10  11
ATOM     11  C   UNL     1       0.997   3.366  20.835  0.00  0.00    +0.000 C 
BRANCH  11  12
ATOM     12  C   UNL     1       1.611   2.265  19.979  0.00  0.00    +0.000 C 
BRANCH  12  13
ATOM     13  C   UNL     1       1.208   2.431  18.520  0.00  0.00    +0.000 C 
BRANCH  13  15
ATOM     14  C   UNL     1       3.593   1.687  18.330  0.00  0.00    +0.000 C 
ATOM     15  C   UNL     1       2.419   2.316  17.600  0.00  0.00    +0.000 C 
ENDBRANCH  13  15
ENDBRANCH  12  13
ENDBRANCH  11  12
ENDBRANCH  10  11
ENDBRANCH   9  10
ENDBRANCH   8   9
ENDBRANCH   7   8
ENDBRANCH   6   7
ENDBRANCH   1   6
BRANCH   3  16
ATOM     16  C   UNL     1       0.140  11.344  18.719  0.00  0.00    +0.000 C 
BRANCH  16  17
ATOM     17  C   UNL     1      -1.290  11.003  18.371  0.00  0.00    +0.000 A 
ATOM     18  C   UNL     1      -1.579  10.057  17.377  0.00  0.00    +0.000 A 
ATOM     19  C   UNL     1      -2.886   9.865  16.930  0.00  0.00    +0.000 A 
ATOM     20  C   UNL     1      -3.927  10.604  17.493  0.00  0.00    +0.000 A 
ATOM     21  C   UNL     1      -3.657  11.508  18.516  0.00  0.00    +0.000 A 
ATOM     22 CL   UNL     1      -4.944  12.416  19.214  0.00  0.00    +0.000 Cl
ATOM     23  C   UNL     1      -2.350  11.716  18.960  0.00  0.00    +0.000 A 
ENDBRANCH  16  17
ENDBRANCH   3  16
TORSDOF 11
ENDMDL
MODEL 3
REMARK VINA RESULT:      -5.8      3.534      6.427
REMARK  Name = 
REMARK  12 active torsions:
REMARK  status: ('A' for Active; 'I' for Inactive)
REMARK    1  A    between atoms: C_1  and  C_2
REMARK    2  A    between atoms: C_2  and  C_3
REMARK    3  A    between atoms: C_3  and  C_4
REMARK    4  A    between atoms: C_4  and  C_5
REMARK    5  A    between atoms: C_5  and  C_6
REMARK    6  A    between atoms: C_6  and  C_7
REMARK    7  A    between atoms: C_7  and  C_8
REMARK    8  A    between atoms: C_8  and  C_9
REMARK    9  A    between atoms: C_9  and  C_10
REMARK   10  A    between atoms: C_10  and  C_11
REMARK   11  A    between atoms: N_13  and  C_14
REMARK   12  A    between atoms: C_14  and  C_15
REMARK                            x       y       z     vdW  Elec       q    Type
REMARK                         _______ _______ _______ _____ _____    ______ ____
ROOT
ATOM      1  C   UNL     1       6.302   4.438  16.785  0.00  0.00    +0.000 A 
ATOM      2  C   UNL     1       5.204   4.154  17.573  0.00  0.00    +0.000 A 
ATOM      3  N   UNL     1       4.215   3.890  16.672  0.00  0.00    +0.000 N 
ATOM      4  N   UNL     1       4.681   3.949  15.408  0.00  0.00    +0.000 NA
ATOM      5  N   UNL     1       5.963   4.277  15.471  0.00  0.00    +0.000 NA
ENDROOT
BRANCH   1   6
ATOM      6  C   UNL     1       7.626   4.931  17.206  0.00  0.00    +0.000 C 
BRANCH   6   7
ATOM      7  C   UNL     1       7.611   5.350  18.673  0.00  0.00    +0.000 C 
BRANCH   7   8
ATOM      8  C   UNL     1       7.990   6.815  18.829  0.00  0.00    +0.000 C 
BRANCH   8   9
ATOM      9  C   UNL     1       7.826   7.546  17.502  0.00  0.00    +0.000 C 
BRANCH   9  10
ATOM     10  C   UNL     1       7.784   9.050  17.721  0.00  0.00    +0.000 C 
BRANCH  10  11
ATOM     11  C   UNL     1       8.837   9.470  18.739  0.00  0.00    +0.000 C 
BRANCH  11  12
ATOM     12  C   UNL     1       9.513  10.766  18.310  0.00  0.00    +0.000 C 
BRANCH  12  13
ATOM     13  C   UNL     1      10.447  11.271  19.402  0.00  0.00    +0.000 C 
BRANCH  13  15
ATOM     14  C   UNL     1      11.711  13.168  18.360  0.00  0.00    +0.000 C 
ATOM     15  C   UNL     1      11.781  11.721  18.817  0.00  0.00    +0.000 C 
ENDBRANCH  13  15
ENDBRANCH  12  13
ENDBRANCH  11  12
ENDBRANCH  10  11
ENDBRANCH   9  10
ENDBRANCH   8   9
ENDBRANCH   7   8
ENDBRANCH   6   7
ENDBRANCH   1   6
BRANCH   3  16
ATOM     16  C   UNL     1       2.801   3.706  16.916  0.00  0.00    +0.000 C 
BRANCH  16  17
ATOM     17  C   UNL     1       2.375   4.198  18.279  0.00  0.00    +0.000 A 
ATOM     18  C   UNL     1       2.469   5.557  18.612  0.00  0.00    +0.000 A 
ATOM     19  C   UNL     1       2.244   5.991  19.919  0.00  0.00    +0.000 A 
ATOM     20  C   UNL     1       1.896   5.068  20.905  0.00  0.00    +0.000 A 
ATOM     21  C   UNL     1       1.749   3.725  20.574  0.00  0.00    +0.000 A 
ATOM     22 CL   UNL     1       1.314   2.588  21.792  0.00  0.00    +0.000 Cl
ATOM     23  C   UNL     1       1.986   3.280  19.272  0.00  0.00    +0.000 A 
ENDBRANCH  16  17
ENDBRANCH   3  16
TORSDOF 11
ENDMDL
MODEL 4
REMARK VINA RESULT:      -5.8      3.915      6.821
REMARK  Name = 
REMARK  12 active torsions:
REMARK  status: ('A' for Active; 'I' for Inactive)
REMARK    1  A    between atoms: C_1  and  C_2
REMARK    2  A    between atoms: C_2  and  C_3
REMARK    3  A    between atoms: C_3  and  C_4
REMARK    4  A    between atoms: C_4  and  C_5
REMARK    5  A    between atoms: C_5  and  C_6
REMARK    6  A    between atoms: C_6  and  C_7
REMARK    7  A    between atoms: C_7  and  C_8
REMARK    8  A    between atoms: C_8  and  C_9
REMARK    9  A    between atoms: C_9  and  C_10
REMARK   10  A    between atoms: C_10  and  C_11
REMARK   11  A    between atoms: N_13  and  C_14
REMARK   12  A    between atoms: C_14  and  C_15
REMARK                            x       y       z     vdW  Elec       q    Type
REMARK                         _______ _______ _______ _____ _____    ______ ____
ROOT
ATOM      1  C   UNL     1       6.453   4.911  17.919  0.00  0.00    +0.000 A 
ATOM      2  C   UNL     1       5.317   5.015  18.698  0.00  0.00    +0.000 A 
ATOM      3  N   UNL     1       4.304   4.708  17.841  0.00  0.00    +0.000 N 
ATOM      4  N   UNL     1       4.779   4.379  16.623  0.00  0.00    +0.000 NA
ATOM      5  N   UNL     1       6.098   4.495  16.666  0.00  0.00    +0.000 NA
ENDROOT
BRANCH   1   6
ATOM      6  C   UNL     1       7.840   5.265  18.273  0.00  0.00    +0.000 C 
BRANCH   6   7
ATOM      7  C   UNL     1       7.943   6.734  18.669  0.00  0.00    +0.000 C 
BRANCH   7   8
ATOM      8  C   UNL     1       7.760   7.642  17.462  0.00  0.00    +0.000 C 
BRANCH   8   9
ATOM      9  C   UNL     1       7.857   9.103  17.883  0.00  0.00    +0.000 C 
BRANCH   9  10
ATOM     10  C   UNL     1       9.103   9.336  18.725  0.00  0.00    +0.000 C 
BRANCH  10  11
ATOM     11  C   UNL     1       9.168  10.784  19.190  0.00  0.00    +0.000 C 
BRANCH  11  12
ATOM     12  C   UNL     1      10.179  11.569  18.364  0.00  0.00    +0.000 C 
BRANCH  12  13
ATOM     13  C   UNL     1      11.601  11.239  18.801  0.00  0.00    +0.000 C 
BRANCH  13  15
ATOM     14  C   UNL     1      11.627  13.614  19.600  0.00  0.00    +0.000 C 
ATOM     15  C   UNL     1      12.074  12.192  19.893  0.00  0.00    +0.000 C 
ENDBRANCH  13  15
ENDBRANCH  12  13
ENDBRANCH  11  12
ENDBRANCH  10  11
ENDBRANCH   9  10
ENDBRANCH   8   9
ENDBRANCH   7   8
ENDBRANCH   6   7
ENDBRANCH   1   6
BRANCH   3  16
ATOM     16  C   UNL     1       2.878   4.827  18.054  0.00  0.00    +0.000 C 
BRANCH  16  17
ATOM     17  C   UNL     1       2.500   6.092  18.786  0.00  0.00    +0.000 A 
ATOM     18  C   UNL     1       2.084   6.048  20.125  0.00  0.00    +0.000 A 
ATOM     19  C   UNL     1       1.570   7.183  20.753  0.00  0.00    +0.000 A 
ATOM     20  C   UNL     1       1.489   8.386  20.052  0.00  0.00    +0.000 A 
ATOM     21  C   UNL     1       1.947   8.453  18.740  0.00  0.00    +0.000 A 
ATOM     22 CL   UNL     1       1.851   9.941  17.877  0.00  0.00    +0.000 Cl
ATOM     23  C   UNL     1       2.450   7.319  18.099  0.00  0.00    +0.000 A 
ENDBRANCH  16  17
ENDBRANCH   3  16
TORSDOF 11
ENDMDL
MODEL 5
REMARK VINA RESULT:      -5.8      4.856      7.604
REMARK  Name = 
REMARK  12 active torsions:
REMARK  status: ('A' for Active; 'I' for Inactive)
REMARK    1  A    between atoms: C_1  and  C_2
REMARK    2  A    between atoms: C_2  and  C_3
REMARK    3  A    between atoms: C_3  and  C_4
REMARK    4  A    between atoms: C_4  and  C_5
REMARK    5  A    between atoms: C_5  and  C_6
REMARK    6  A    between atoms: C_6  and  C_7
REMARK    7  A    between atoms: C_7  and  C_8
REMARK    8  A    between atoms: C_8  and  C_9
REMARK    9  A    between atoms: C_9  and  C_10
REMARK   10  A    between atoms: C_10  and  C_11
REMARK   11  A    between atoms: N_13  and  C_14
REMARK   12  A    between atoms: C_14  and  C_15
REMARK                            x       y       z     vdW  Elec       q    Type
REMARK                         _______ _______ _______ _____ _____    ______ ____
ROOT
ATOM      1  C   UNL     1       7.226   6.266  17.505  0.00  0.00    +0.000 A 
ATOM      2  C   UNL     1       6.218   5.375  17.816  0.00  0.00    +0.000 A 
ATOM      3  N   UNL     1       5.754   4.970  16.600  0.00  0.00    +0.000 N 
ATOM      4  N   UNL     1       6.464   5.527  15.598  0.00  0.00    +0.000 NA
ATOM      5  N   UNL     1       7.374   6.318  16.147  0.00  0.00    +0.000 NA
ENDROOT
BRANCH   1   6
ATOM      6  C   UNL     1       7.997   7.130  18.418  0.00  0.00    +0.000 C 
BRANCH   6   7
ATOM      7  C   UNL     1       8.010   8.572  17.922  0.00  0.00    +0.000 C 
BRANCH   7   8
ATOM      8  C   UNL     1       8.872   9.452  18.816  0.00  0.00    +0.000 C 
BRANCH   8   9
ATOM      9  C   UNL     1       8.930  10.870  18.261  0.00  0.00    +0.000 C 
BRANCH   9  10
ATOM     10  C   UNL     1      10.369  11.281  17.992  0.00  0.00    +0.000 C 
BRANCH  10  11
ATOM     11  C   UNL     1      11.073  11.637  19.295  0.00  0.00    +0.000 C 
BRANCH  11  12
ATOM     12  C   UNL     1      11.822  12.957  19.157  0.00  0.00    +0.000 C 
BRANCH  12  13
ATOM     13  C   UNL     1      12.316  13.147  17.729  0.00  0.00    +0.000 C 
BRANCH  13  15
ATOM     14  C   UNL     1      11.447  15.460  18.149  0.00  0.00    +0.000 C 
ATOM     15  C   UNL     1      11.702  14.393  17.099  0.00  0.00    +0.000 C 
ENDBRANCH  13  15
ENDBRANCH  12  13
ENDBRANCH  11  12
ENDBRANCH  10  11
ENDBRANCH   9  10
ENDBRANCH   8   9
ENDBRANCH   7   8
ENDBRANCH   6   7
ENDBRANCH   1   6
BRANCH   3  16
ATOM     16  C   UNL     1       4.582   4.175  16.304  0.00  0.00    +0.000 C 
BRANCH  16  17
ATOM     17  C   UNL     1       3.863   3.709  17.547  0.00  0.00    +0.000 A 
ATOM     18  C   UNL     1       3.721   2.341  17.822  0.00  0.00    +0.000 A 
ATOM     19  C   UNL     1       2.912   1.902  18.870  0.00  0.00    +0.000 A 
ATOM     20  C   UNL     1       2.252   2.832  19.673  0.00  0.00    +0.000 A 
ATOM     21  C   UNL     1       2.428   4.192  19.441  0.00  0.00    +0.000 A 
ATOM     22 CL   UNL     1       1.617   5.340  20.438  0.00  0.00    +0.000 Cl
ATOM     23  C   UNL     1       3.224   4.641  18.386  0.00  0.00    +0.000 A 
ENDBRANCH  16  17
ENDBRANCH   3  16
TORSDOF 11
ENDMDL
MODEL 6
REMARK VINA RESULT:      -5.8      5.126      7.685
REMARK  Name = 
REMARK  12 active torsions:
REMARK  status: ('A' for Active; 'I' for Inactive)
REMARK    1  A    between atoms: C_1  and  C_2
REMARK    2  A    between atoms: C_2  and  C_3
REMARK    3  A    between atoms: C_3  and  C_4
REMARK    4  A    between atoms: C_4  and  C_5
REMARK    5  A    between atoms: C_5  and  C_6
REMARK    6  A    between atoms: C_6  and  C_7
REMARK    7  A    between atoms: C_7  and  C_8
REMARK    8  A    between atoms: C_8  and  C_9
REMARK    9  A    between atoms: C_9  and  C_10
REMARK   10  A    between atoms: C_10  and  C_11
REMARK   11  A    between atoms: N_13  and  C_14
REMARK   12  A    between atoms: C_14  and  C_15
REMARK                            x       y       z     vdW  Elec       q    Type
REMARK                         _______ _______ _______ _____ _____    ______ ____
ROOT
ATOM      1  C   UNL     1       7.251   6.498  17.537  0.00  0.00    +0.000 A 
ATOM      2  C   UNL     1       6.086   5.830  17.861  0.00  0.00    +0.000 A 
ATOM      3  N   UNL     1       5.621   5.384  16.660  0.00  0.00    +0.000 N 
ATOM      4  N   UNL     1       6.469   5.702  15.661  0.00  0.00    +0.000 NA
ATOM      5  N   UNL     1       7.475   6.379  16.194  0.00  0.00    +0.000 NA
ENDROOT
BRANCH   1   6
ATOM      6  C   UNL     1       8.114   7.308  18.415  0.00  0.00    +0.000 C 
BRANCH   6   7
ATOM      7  C   UNL     1       8.200   8.748  17.918  0.00  0.00    +0.000 C 
BRANCH   7   8
ATOM      8  C   UNL     1       8.879   9.644  18.943  0.00  0.00    +0.000 C 
BRANCH   8   9
ATOM      9  C   UNL     1       9.483  10.863  18.257  0.00  0.00    +0.000 C 
BRANCH   9  10
ATOM     10  C   UNL     1      10.707  11.352  19.017  0.00  0.00    +0.000 C 
BRANCH  10  11
ATOM     11  C   UNL     1      11.674  12.052  18.072  0.00  0.00    +0.000 C 
BRANCH  11  12
ATOM     12  C   UNL     1      11.770  13.537  18.403  0.00  0.00    +0.000 C 
BRANCH  12  13
ATOM     13  C   UNL     1      11.358  13.791  19.848  0.00  0.00    +0.000 C 
BRANCH  13  15
ATOM     14  C   UNL     1      10.514  16.041  19.137  0.00  0.00    +0.000 C 
ATOM     15  C   UNL     1      11.345  15.284  20.158  0.00  0.00    +0.000 C 
ENDBRANCH  13  15
ENDBRANCH  12  13
ENDBRANCH  11  12
ENDBRANCH  10  11
ENDBRANCH   9  10
ENDBRANCH   8   9
ENDBRANCH   7   8
ENDBRANCH   6   7
ENDBRANCH   1   6
BRANCH   3  16
ATOM     16  C   UNL     1       4.344   4.775  16.360  0.00  0.00    +0.000 C 
BRANCH  16  17
ATOM     17  C   UNL     1       3.799   3.963  17.511  0.00  0.00    +0.000 A 
ATOM     18  C   UNL     1       4.137   2.610  17.656  0.00  0.00    +0.000 A 
ATOM     19  C   UNL     1       3.504   1.813  18.610  0.00  0.00    +0.000 A 
ATOM     20  C   UNL     1       2.539   2.369  19.449  0.00  0.00    +0.000 A 
ATOM     21  C   UNL     1       2.234   3.723  19.347  0.00  0.00    +0.000 A 
ATOM     22 CL   UNL     1       1.045   4.411  20.388  0.00  0.00    +0.000 Cl
ATOM     23  C   UNL     1       2.852   4.525  18.387  0.00  0.00    +0.000 A 
ENDBRANCH  16  17
ENDBRANCH   3  16
TORSDOF 11
ENDMDL
MODEL 7
REMARK VINA RESULT:      -5.7      5.003      8.150
REMARK  Name = 
REMARK  12 active torsions:
REMARK  status: ('A' for Active; 'I' for Inactive)
REMARK    1  A    between atoms: C_1  and  C_2
REMARK    2  A    between atoms: C_2  and  C_3
REMARK    3  A    between atoms: C_3  and  C_4
REMARK    4  A    between atoms: C_4  and  C_5
REMARK    5  A    between atoms: C_5  and  C_6
REMARK    6  A    between atoms: C_6  and  C_7
REMARK    7  A    between atoms: C_7  and  C_8
REMARK    8  A    between atoms: C_8  and  C_9
REMARK    9  A    between atoms: C_9  and  C_10
REMARK   10  A    between atoms: C_10  and  C_11
REMARK   11  A    between atoms: N_13  and  C_14
REMARK   12  A    between atoms: C_14  and  C_15
REMARK                            x       y       z     vdW  Elec       q    Type
REMARK                         _______ _______ _______ _____ _____    ______ ____
ROOT
ATOM      1  C   UNL     1       1.146   8.361  20.541  0.00  0.00    +0.000 A 
ATOM      2  C   UNL     1       1.243   9.246  19.486  0.00  0.00    +0.000 A 
ATOM      3  N   UNL     1       0.272  10.167  19.741  0.00  0.00    +0.000 N 
ATOM      4  N   UNL     1      -0.351   9.906  20.908  0.00  0.00    +0.000 NA
ATOM      5  N   UNL     1       0.186   8.803  21.409  0.00  0.00    +0.000 NA
ENDROOT
BRANCH   1   6
ATOM      6  C   UNL     1       1.853   7.081  20.729  0.00  0.00    +0.000 C 
BRANCH   6   7
ATOM      7  C   UNL     1       2.490   6.614  19.425  0.00  0.00    +0.000 C 
BRANCH   7   8
ATOM      8  C   UNL     1       3.607   5.615  19.686  0.00  0.00    +0.000 C 
BRANCH   8   9
ATOM      9  C   UNL     1       4.526   5.524  18.474  0.00  0.00    +0.000 C 
BRANCH   9  10
ATOM     10  C   UNL     1       3.818   4.837  17.316  0.00  0.00    +0.000 C 
BRANCH  10  11
ATOM     11  C   UNL     1       3.799   3.328  17.524  0.00  0.00    +0.000 C 
BRANCH  11  12
ATOM     12  C   UNL     1       2.369   2.804  17.529  0.00  0.00    +0.000 C 
BRANCH  12  13
ATOM     13  C   UNL     1       2.033   2.175  18.875  0.00  0.00    +0.000 C 
BRANCH  13  15
ATOM     14  C   UNL     1       1.270   3.048  21.097  0.00  0.00    +0.000 C 
ATOM     15  C   UNL     1       0.971   2.987  19.609  0.00  0.00    +0.000 C 
ENDBRANCH  13  15
ENDBRANCH  12  13
ENDBRANCH  11  12
ENDBRANCH  10  11
ENDBRANCH   9  10
ENDBRANCH   8   9
ENDBRANCH   7   8
ENDBRANCH   6   7
ENDBRANCH   1   6
BRANCH   3  16
ATOM     16  C   UNL     1      -0.210  11.229  18.885  0.00  0.00    +0.000 C 
BRANCH  16  17
ATOM     17  C   UNL     1      -1.561  10.926  18.283  0.00  0.00    +0.000 A 
ATOM     18  C   UNL     1      -1.682  10.032  17.209  0.00  0.00    +0.000 A 
ATOM     19  C   UNL     1      -2.896   9.881  16.538  0.00  0.00    +0.000 A 
ATOM     20  C   UNL     1      -4.012  10.608  16.950  0.00  0.00    +0.000 A 
ATOM     21  C   UNL     1      -3.915  11.459  18.046  0.00  0.00    +0.000 A 
ATOM     22 CL   UNL     1      -5.296  12.353  18.558  0.00  0.00    +0.000 Cl
ATOM     23  C   UNL     1      -2.701  11.627  18.716  0.00  0.00    +0.000 A 
ENDBRANCH  16  17
ENDBRANCH   3  16
TORSDOF 11
ENDMDL
MODEL 8
REMARK VINA RESULT:      -5.7      5.193      7.710
REMARK  Name = 
REMARK  12 active torsions:
REMARK  status: ('A' for Active; 'I' for Inactive)
REMARK    1  A    between atoms: C_1  and  C_2
REMARK    2  A    between atoms: C_2  and  C_3
REMARK    3  A    between atoms: C_3  and  C_4
REMARK    4  A    between atoms: C_4  and  C_5
REMARK    5  A    between atoms: C_5  and  C_6
REMARK    6  A    between atoms: C_6  and  C_7
REMARK    7  A    between atoms: C_7  and  C_8
REMARK    8  A    between atoms: C_8  and  C_9
REMARK    9  A    between atoms: C_9  and  C_10
REMARK   10  A    between atoms: C_10  and  C_11
REMARK   11  A    between atoms: N_13  and  C_14
REMARK   12  A    between atoms: C_14  and  C_15
REMARK                            x       y       z     vdW  Elec       q    Type
REMARK                         _______ _______ _______ _____ _____    ______ ____
ROOT
ATOM      1  C   UNL     1       7.624   7.711  17.861  0.00  0.00    +0.000 A 
ATOM      2  C   UNL     1       6.629   7.038  17.179  0.00  0.00    +0.000 A 
ATOM      3  N   UNL     1       6.703   5.767  17.665  0.00  0.00    +0.000 N 
ATOM      4  N   UNL     1       7.643   5.667  18.627  0.00  0.00    +0.000 NA
ATOM      5  N   UNL     1       8.207   6.859  18.757  0.00  0.00    +0.000 NA
ENDROOT
BRANCH   1   6
ATOM      6  C   UNL     1       8.105   9.089  17.651  0.00  0.00    +0.000 C 
BRANCH   6   7
ATOM      7  C   UNL     1       8.897   9.579  18.858  0.00  0.00    +0.000 C 
BRANCH   7   8
ATOM      8  C   UNL     1       9.362  11.015  18.664  0.00  0.00    +0.000 C 
BRANCH   8   9
ATOM      9  C   UNL     1      10.876  11.104  18.819  0.00  0.00    +0.000 C 
BRANCH   9  10
ATOM     10  C   UNL     1      11.446  12.179  17.906  0.00  0.00    +0.000 C 
BRANCH  10  11
ATOM     11  C   UNL     1      10.333  13.076  17.382  0.00  0.00    +0.000 C 
BRANCH  11  12
ATOM     12  C   UNL     1      10.645  14.540  17.666  0.00  0.00    +0.000 C 
BRANCH  12  13
ATOM     13  C   UNL     1      11.071  14.726  19.117  0.00  0.00    +0.000 C 
BRANCH  13  15
ATOM     14  C   UNL     1      10.111  13.868  21.266  0.00  0.00    +0.000 C 
ATOM     15  C   UNL     1       9.861  14.735  20.045  0.00  0.00    +0.000 C 
ENDBRANCH  13  15
ENDBRANCH  12  13
ENDBRANCH  11  12
ENDBRANCH  10  11
ENDBRANCH   9  10
ENDBRANCH   8   9
ENDBRANCH   7   8
ENDBRANCH   6   7
ENDBRANCH   1   6
BRANCH   3  16
ATOM     16  C   UNL     1       6.025   4.581  17.189  0.00  0.00    +0.000 C 
BRANCH  16  17
ATOM     17  C   UNL     1       4.594   4.497  17.665  0.00  0.00    +0.000 A 
ATOM     18  C   UNL     1       3.696   3.592  17.079  0.00  0.00    +0.000 A 
ATOM     19  C   UNL     1       2.337   3.629  17.391  0.00  0.00    +0.000 A 
ATOM     20  C   UNL     1       1.863   4.560  18.315  0.00  0.00    +0.000 A 
ATOM     21  C   UNL     1       2.753   5.427  18.940  0.00  0.00    +0.000 A 
ATOM     22 CL   UNL     1       2.167   6.573  20.085  0.00  0.00    +0.000 Cl
ATOM     23  C   UNL     1       4.113   5.407  18.624  0.00  0.00    +0.000 A 
ENDBRANCH  16  17
ENDBRANCH   3  16
TORSDOF 11
ENDMDL
MODEL 9
REMARK VINA RESULT:      -5.6      3.970      5.894
REMARK  Name = 
REMARK  12 active torsions:
REMARK  status: ('A' for Active; 'I' for Inactive)
REMARK    1  A    between atoms: C_1  and  C_2
REMARK    2  A    between atoms: C_2  and  C_3
REMARK    3  A    between atoms: C_3  and  C_4
REMARK    4  A    between atoms: C_4  and  C_5
REMARK    5  A    between atoms: C_5  and  C_6
REMARK    6  A    between atoms: C_6  and  C_7
REMARK    7  A    between atoms: C_7  and  C_8
REMARK    8  A    between atoms: C_8  and  C_9
REMARK    9  A    between atoms: C_9  and  C_10
REMARK   10  A    between atoms: C_10  and  C_11
REMARK   11  A    between atoms: N_13  and  C_14
REMARK   12  A    between atoms: C_14  and  C_15
REMARK                            x       y       z     vdW  Elec       q    Type
REMARK                         _______ _______ _______ _____ _____    ______ ____
ROOT
ATOM      1  C   UNL     1       5.986   4.413  16.552  0.00  0.00    +0.000 A 
ATOM      2  C   UNL     1       6.236   3.784  15.349  0.00  0.00    +0.000 A 
ATOM      3  N   UNL     1       6.959   4.701  14.646  0.00  0.00    +0.000 N 
ATOM      4  N   UNL     1       7.193   5.805  15.384  0.00  0.00    +0.000 NA
ATOM      5  N   UNL     1       6.605   5.632  16.558  0.00  0.00    +0.000 NA
ENDROOT
BRANCH   1   6
ATOM      6  C   UNL     1       5.125   3.957  17.660  0.00  0.00    +0.000 C 
BRANCH   6   7
ATOM      7  C   UNL     1       5.450   4.710  18.946  0.00  0.00    +0.000 C 
BRANCH   7   8
ATOM      8  C   UNL     1       4.245   5.498  19.439  0.00  0.00    +0.000 C 
BRANCH   8   9
ATOM      9  C   UNL     1       3.370   5.912  18.263  0.00  0.00    +0.000 C 
BRANCH   9  10
ATOM     10  C   UNL     1       1.909   5.593  18.544  0.00  0.00    +0.000 C 
BRANCH  10  11
ATOM     11  C   UNL     1       1.542   4.232  17.967  0.00  0.00    +0.000 C 
BRANCH  11  12
ATOM     12  C   UNL     1       1.162   3.262  19.078  0.00  0.00    +0.000 C 
BRANCH  12  13
ATOM     13  C   UNL     1       2.328   2.337  19.404  0.00  0.00    +0.000 C 
BRANCH  13  15
ATOM     14  C   UNL     1       1.761   3.327  21.636  0.00  0.00    +0.000 C 
ATOM     15  C   UNL     1       2.771   2.506  20.854  0.00  0.00    +0.000 C 
ENDBRANCH  13  15
ENDBRANCH  12  13
ENDBRANCH  11  12
ENDBRANCH  10  11
ENDBRANCH   9  10
ENDBRANCH   8   9
ENDBRANCH   7   8
ENDBRANCH   6   7
ENDBRANCH   1   6
BRANCH   3  16
ATOM     16  C   UNL     1       7.348   4.665  13.253  0.00  0.00    +0.000 C 
BRANCH  16  17
ATOM     17  C   UNL     1       6.629   3.589  12.474  0.00  0.00    +0.000 A 
ATOM     18  C   UNL     1       7.331   2.492  11.953  0.00  0.00    +0.000 A 
ATOM     19  C   UNL     1       6.709   1.590  11.089  0.00  0.00    +0.000 A 
ATOM     20  C   UNL     1       5.366   1.763  10.755  0.00  0.00    +0.000 A 
ATOM     21  C   UNL     1       4.648   2.818  11.308  0.00  0.00    +0.000 A 
ATOM     22 CL   UNL     1       2.987   3.027  10.899  0.00  0.00    +0.000 Cl
ATOM     23  C   UNL     1       5.265   3.734  12.162  0.00  0.00    +0.000 A 
ENDBRANCH  16  17
ENDBRANCH   3  16
TORSDOF 11
ENDMDL
