MODEL 1
REMARK VINA RESULT:      -6.2      0.000      0.000
REMARK  Name = 
REMARK  5 active torsions:
REMARK  status: ('A' for Active; 'I' for Inactive)
REMARK    1  A    between atoms: C_2  and  C_3
REMARK    2  A    between atoms: C_3  and  N_4
REMARK    3  A    between atoms: N_4  and  C_5
REMARK    4  A    between atoms: C_5  and  C_6
REMARK    5  A    between atoms: C_6  and  C_8
REMARK                            x       y       z     vdW  Elec       q    Type
REMARK                         _______ _______ _______ _____ _____    ______ ____
ROOT
ATOM      1  C   UNL     1       3.954   5.539  17.416  0.00  0.00    +0.000 C 
ATOM      2  C   UNL     1       4.002   6.889  17.460  0.00  0.00    +0.000 C 
ENDROOT
BRANCH   1   3
ATOM      3  C   UNL     1       3.139   4.819  18.422  0.00  0.00    +0.000 A 
ATOM      4  C   UNL     1       3.274   5.087  19.800  0.00  0.00    +0.000 A 
ATOM      5  C   UNL     1       2.464   4.449  20.739  0.00  0.00    +0.000 A 
ATOM      6  C   UNL     1       1.500   3.544  20.316  0.00  0.00    +0.000 A 
ATOM      7  F   UNL     1       0.706   2.956  21.213  0.00  0.00    +0.000 F 
ATOM      8  C   UNL     1       1.358   3.264  18.962  0.00  0.00    +0.000 A 
ATOM      9  F   UNL     1       0.425   2.395  18.548  0.00  0.00    +0.000 F 
ATOM     10  C   UNL     1       2.168   3.881  18.023  0.00  0.00    +0.000 A 
ENDBRANCH   1   3
BRANCH   1  11
ATOM     11  C   UNL     1       4.758   4.719  16.419  0.00  0.00    +0.000 C 
BRANCH  11  12
ATOM     12  N   UNL     1       5.781   3.897  17.074  0.00  0.00    +0.000 NA
ATOM     13  H   UNL     1       5.594   3.859  18.074  0.00  0.00    +0.000 HD
BRANCH  12  14
ATOM     14  C   UNL     1       7.116   4.456  16.889  0.00  0.00    +0.000 C 
BRANCH  14  16
ATOM     15  C   UNL     1       7.830   5.887  19.216  0.00  0.00    +0.000 C 
ATOM     16  C   UNL     1       7.501   5.226  18.141  0.00  0.00    +0.000 C 
ENDBRANCH  14  16
ENDBRANCH  12  14
ENDBRANCH  11  12
ENDBRANCH   1  11
TORSDOF 5
ENDMDL
MODEL 2
REMARK VINA RESULT:      -6.1      1.254      1.647
REMARK  Name = 
REMARK  5 active torsions:
REMARK  status: ('A' for Active; 'I' for Inactive)
REMARK    1  A    between atoms: C_2  and  C_3
REMARK    2  A    between atoms: C_3  and  N_4
REMARK    3  A    between atoms: N_4  and  C_5
REMARK    4  A    between atoms: C_5  and  C_6
REMARK    5  A    between atoms: C_6  and  C_8
REMARK                            x       y       z     vdW  Elec       q    Type
REMARK                         _______ _______ _______ _____ _____    ______ ____
ROOT
ATOM      1  C   UNL     1       4.667   5.026  16.863  0.00  0.00    +0.000 C 
ATOM      2  C   UNL     1       5.193   3.989  16.174  0.00  0.00    +0.000 C 
ENDROOT
BRANCH   1   3
ATOM      3  C   UNL     1       3.637   4.754  17.892  0.00  0.00    +0.000 A 
ATOM      4  C   UNL     1       3.630   5.449  19.119  0.00  0.00    +0.000 A 
ATOM      5  C   UNL     1       2.625   5.231  20.061  0.00  0.00    +0.000 A 
ATOM      6  C   UNL     1       1.608   4.326  19.788  0.00  0.00    +0.000 A 
ATOM      7  F   UNL     1       0.631   4.140  20.679  0.00  0.00    +0.000 F 
ATOM      8  C   UNL     1       1.605   3.629  18.586  0.00  0.00    +0.000 A 
ATOM      9  F   UNL     1       0.623   2.757  18.316  0.00  0.00    +0.000 F 
ATOM     10  C   UNL     1       2.606   3.826  17.650  0.00  0.00    +0.000 A 
ENDBRANCH   1   3
BRANCH   1  11
ATOM     11  C   UNL     1       5.038   6.473  16.579  0.00  0.00    +0.000 C 
BRANCH  11  12
ATOM     12  N   UNL     1       6.465   6.633  16.280  0.00  0.00    +0.000 NA
ATOM     13  H   UNL     1       6.903   5.715  16.227  0.00  0.00    +0.000 HD
BRANCH  12  14
ATOM     14  C   UNL     1       7.148   7.397  17.318  0.00  0.00    +0.000 C 
BRANCH  14  16
ATOM     15  C   UNL     1       7.926   5.633  19.381  0.00  0.00    +0.000 C 
ATOM     16  C   UNL     1       7.567   6.447  18.428  0.00  0.00    +0.000 C 
ENDBRANCH  14  16
ENDBRANCH  12  14
ENDBRANCH  11  12
ENDBRANCH   1  11
TORSDOF 5
ENDMDL
MODEL 3
REMARK VINA RESULT:      -6.1      1.026      1.871
REMARK  Name = 
REMARK  5 active torsions:
REMARK  status: ('A' for Active; 'I' for Inactive)
REMARK    1  A    between atoms: C_2  and  C_3
REMARK    2  A    between atoms: C_3  and  N_4
REMARK    3  A    between atoms: N_4  and  C_5
REMARK    4  A    between atoms: C_5  and  C_6
REMARK    5  A    between atoms: C_6  and  C_8
REMARK                            x       y       z     vdW  Elec       q    Type
REMARK                         _______ _______ _______ _____ _____    ______ ____
ROOT
ATOM      1  C   UNL     1       4.312   5.415  17.263  0.00  0.00    +0.000 C 
ATOM      2  C   UNL     1       4.218   6.717  16.911  0.00  0.00    +0.000 C 
ENDROOT
BRANCH   1   3
ATOM      3  C   UNL     1       3.265   4.831  18.134  0.00  0.00    +0.000 A 
ATOM      4  C   UNL     1       2.259   3.996  17.606  0.00  0.00    +0.000 A 
ATOM      5  C   UNL     1       1.310   3.403  18.438  0.00  0.00    +0.000 A 
ATOM      6  C   UNL     1       1.359   3.623  19.808  0.00  0.00    +0.000 A 
ATOM      7  F   UNL     1       0.467   3.030  20.605  0.00  0.00    +0.000 F 
ATOM      8  C   UNL     1       2.341   4.448  20.342  0.00  0.00    +0.000 A 
ATOM      9  F   UNL     1       2.396   4.660  21.665  0.00  0.00    +0.000 F 
ATOM     10  C   UNL     1       3.279   5.055  19.524  0.00  0.00    +0.000 A 
ENDBRANCH   1   3
BRANCH   1  11
ATOM     11  C   UNL     1       5.486   4.537  16.859  0.00  0.00    +0.000 C 
BRANCH  11  12
ATOM     12  N   UNL     1       6.324   4.170  18.006  0.00  0.00    +0.000 NA
ATOM     13  H   UNL     1       5.942   4.590  18.851  0.00  0.00    +0.000 HD
BRANCH  12  14
ATOM     14  C   UNL     1       7.692   4.650  17.845  0.00  0.00    +0.000 C 
BRANCH  14  16
ATOM     15  C   UNL     1       7.674   7.473  17.899  0.00  0.00    +0.000 C 
ATOM     16  C   UNL     1       7.683   6.170  17.874  0.00  0.00    +0.000 C 
ENDBRANCH  14  16
ENDBRANCH  12  14
ENDBRANCH  11  12
ENDBRANCH   1  11
TORSDOF 5
ENDMDL
MODEL 4
REMARK VINA RESULT:      -6.0      1.402      1.545
REMARK  Name = 
REMARK  5 active torsions:
REMARK  status: ('A' for Active; 'I' for Inactive)
REMARK    1  A    between atoms: C_2  and  C_3
REMARK    2  A    between atoms: C_3  and  N_4
REMARK    3  A    between atoms: N_4  and  C_5
REMARK    4  A    between atoms: C_5  and  C_6
REMARK    5  A    between atoms: C_6  and  C_8
REMARK                            x       y       z     vdW  Elec       q    Type
REMARK                         _______ _______ _______ _____ _____    ______ ____
ROOT
ATOM      1  C   UNL     1       3.406   6.877  17.880  0.00  0.00    +0.000 C 
ATOM      2  C   UNL     1       2.892   8.127  17.869  0.00  0.00    +0.000 C 
ENDROOT
BRANCH   1   3
ATOM      3  C   UNL     1       2.717   5.826  18.664  0.00  0.00    +0.000 A 
ATOM      4  C   UNL     1       2.509   5.968  20.052  0.00  0.00    +0.000 A 
ATOM      5  C   UNL     1       1.808   5.004  20.775  0.00  0.00    +0.000 A 
ATOM      6  C   UNL     1       1.295   3.890  20.124  0.00  0.00    +0.000 A 
ATOM      7  F   UNL     1       0.600   2.982  20.813  0.00  0.00    +0.000 F 
ATOM      8  C   UNL     1       1.497   3.733  18.758  0.00  0.00    +0.000 A 
ATOM      9  F   UNL     1       1.000   2.662  18.123  0.00  0.00    +0.000 F 
ATOM     10  C   UNL     1       2.204   4.677  18.033  0.00  0.00    +0.000 A 
ENDBRANCH   1   3
BRANCH   1  11
ATOM     11  C   UNL     1       4.704   6.516  17.176  0.00  0.00    +0.000 C 
BRANCH  11  12
ATOM     12  N   UNL     1       5.640   5.814  18.062  0.00  0.00    +0.000 NA
ATOM     13  H   UNL     1       5.620   6.247  18.984  0.00  0.00    +0.000 HD
BRANCH  12  14
ATOM     14  C   UNL     1       7.008   5.887  17.562  0.00  0.00    +0.000 C 
BRANCH  14  16
ATOM     15  C   UNL     1       7.873   8.573  17.669  0.00  0.00    +0.000 C 
ATOM     16  C   UNL     1       7.473   7.333  17.619  0.00  0.00    +0.000 C 
ENDBRANCH  14  16
ENDBRANCH  12  14
ENDBRANCH  11  12
ENDBRANCH   1  11
TORSDOF 5
ENDMDL
MODEL 5
REMARK VINA RESULT:      -6.0      1.649      2.455
REMARK  Name = 
REMARK  5 active torsions:
REMARK  status: ('A' for Active; 'I' for Inactive)
REMARK    1  A    between atoms: C_2  and  C_3
REMARK    2  A    between atoms: C_3  and  N_4
REMARK    3  A    between atoms: N_4  and  C_5
REMARK    4  A    between atoms: C_5  and  C_6
REMARK    5  A    between atoms: C_6  and  C_8
REMARK                            x       y       z     vdW  Elec       q    Type
REMARK                         _______ _______ _______ _____ _____    ______ ____
ROOT
ATOM      1  C   UNL     1       5.722   4.519  15.886  0.00  0.00    +0.000 C 
ATOM      2  C   UNL     1       5.584   4.317  14.557  0.00  0.00    +0.000 C 
ENDROOT
BRANCH   1   3
ATOM      3  C   UNL     1       4.522   4.438  16.751  0.00  0.00    +0.000 A 
ATOM      4  C   UNL     1       3.987   5.587  17.368  0.00  0.00    +0.000 A 
ATOM      5  C   UNL     1       2.824   5.515  18.135  0.00  0.00    +0.000 A 
ATOM      6  C   UNL     1       2.172   4.299  18.286  0.00  0.00    +0.000 A 
ATOM      7  F   UNL     1       1.043   4.238  18.996  0.00  0.00    +0.000 F 
ATOM      8  C   UNL     1       2.690   3.156  17.689  0.00  0.00    +0.000 A 
ATOM      9  F   UNL     1       2.061   1.980  17.828  0.00  0.00    +0.000 F 
ATOM     10  C   UNL     1       3.852   3.213  16.939  0.00  0.00    +0.000 A 
ENDBRANCH   1   3
BRANCH   1  11
ATOM     11  C   UNL     1       7.048   4.897  16.527  0.00  0.00    +0.000 C 
BRANCH  11  12
ATOM     12  N   UNL     1       7.462   6.261  16.183  0.00  0.00    +0.000 NA
ATOM     13  H   UNL     1       8.424   6.247  15.849  0.00  0.00    +0.000 HD
BRANCH  12  14
ATOM     14  C   UNL     1       7.403   7.147  17.340  0.00  0.00    +0.000 C 
BRANCH  14  16
ATOM     15  C   UNL     1       7.942   5.640  19.666  0.00  0.00    +0.000 C 
ATOM     16  C   UNL     1       7.692   6.336  18.592  0.00  0.00    +0.000 C 
ENDBRANCH  14  16
ENDBRANCH  12  14
ENDBRANCH  11  12
ENDBRANCH   1  11
TORSDOF 5
ENDMDL
MODEL 6
REMARK VINA RESULT:      -6.0      1.365      1.636
REMARK  Name = 
REMARK  5 active torsions:
REMARK  status: ('A' for Active; 'I' for Inactive)
REMARK    1  A    between atoms: C_2  and  C_3
REMARK    2  A    between atoms: C_3  and  N_4
REMARK    3  A    between atoms: N_4  and  C_5
REMARK    4  A    between atoms: C_5  and  C_6
REMARK    5  A    between atoms: C_6  and  C_8
REMARK                            x       y       z     vdW  Elec       q    Type
REMARK                         _______ _______ _______ _____ _____    ______ ____
ROOT
ATOM      1  C   UNL     1       5.037   5.195  16.618  0.00  0.00    +0.000 C 
ATOM      2  C   UNL     1       4.989   6.311  15.858  0.00  0.00    +0.000 C 
ENDROOT
BRANCH   1   3
ATOM      3  C   UNL     1       3.936   4.932  17.575  0.00  0.00    +0.000 A 
ATOM      4  C   UNL     1       3.646   5.834  18.619  0.00  0.00    +0.000 A 
ATOM      5  C   UNL     1       2.572   5.613  19.481  0.00  0.00    +0.000 A 
ATOM      6  C   UNL     1       1.766   4.496  19.306  0.00  0.00    +0.000 A 
ATOM      7  F   UNL     1       0.722   4.301  20.115  0.00  0.00    +0.000 F 
ATOM      8  C   UNL     1       2.043   3.595  18.285  0.00  0.00    +0.000 A 
ATOM      9  F   UNL     1       1.265   2.517  18.108  0.00  0.00    +0.000 F 
ATOM     10  C   UNL     1       3.115   3.797  17.433  0.00  0.00    +0.000 A 
ENDBRANCH   1   3
BRANCH   1  11
ATOM     11  C   UNL     1       6.208   4.226  16.585  0.00  0.00    +0.000 C 
BRANCH  11  12
ATOM     12  N   UNL     1       7.490   4.898  16.823  0.00  0.00    +0.000 NA
ATOM     13  H   UNL     1       8.246   4.219  16.746  0.00  0.00    +0.000 HD
BRANCH  12  14
ATOM     14  C   UNL     1       7.550   5.483  18.158  0.00  0.00    +0.000 C 
BRANCH  14  16
ATOM     15  C   UNL     1       8.019   8.257  17.911  0.00  0.00    +0.000 C 
ATOM     16  C   UNL     1       7.803   6.976  18.025  0.00  0.00    +0.000 C 
ENDBRANCH  14  16
ENDBRANCH  12  14
ENDBRANCH  11  12
ENDBRANCH   1  11
TORSDOF 5
ENDMDL
MODEL 7
REMARK VINA RESULT:      -6.0      1.636      2.476
REMARK  Name = 
REMARK  5 active torsions:
REMARK  status: ('A' for Active; 'I' for Inactive)
REMARK    1  A    between atoms: C_2  and  C_3
REMARK    2  A    between atoms: C_3  and  N_4
REMARK    3  A    between atoms: N_4  and  C_5
REMARK    4  A    between atoms: C_5  and  C_6
REMARK    5  A    between atoms: C_6  and  C_8
REMARK                            x       y       z     vdW  Elec       q    Type
REMARK                         _______ _______ _______ _____ _____    ______ ____
ROOT
ATOM      1  C   UNL     1       4.872   4.886  16.498  0.00  0.00    +0.000 C 
ATOM      2  C   UNL     1       5.513   3.804  16.002  0.00  0.00    +0.000 C 
ENDROOT
BRANCH   1   3
ATOM      3  C   UNL     1       3.712   4.681  17.397  0.00  0.00    +0.000 A 
ATOM      4  C   UNL     1       2.842   3.584  17.229  0.00  0.00    +0.000 A 
ATOM      5  C   UNL     1       1.787   3.362  18.113  0.00  0.00    +0.000 A 
ATOM      6  C   UNL     1       1.591   4.225  19.183  0.00  0.00    +0.000 A 
ATOM      7  F   UNL     1       0.597   3.994  20.045  0.00  0.00    +0.000 F 
ATOM      8  C   UNL     1       2.436   5.314  19.359  0.00  0.00    +0.000 A 
ATOM      9  F   UNL     1       2.255   6.146  20.394  0.00  0.00    +0.000 F 
ATOM     10  C   UNL     1       3.478   5.551  18.479  0.00  0.00    +0.000 A 
ENDBRANCH   1   3
BRANCH   1  11
ATOM     11  C   UNL     1       5.246   6.310  16.118  0.00  0.00    +0.000 C 
BRANCH  11  12
ATOM     12  N   UNL     1       6.692   6.542  16.195  0.00  0.00    +0.000 NA
ATOM     13  H   UNL     1       7.174   5.648  16.272  0.00  0.00    +0.000 HD
BRANCH  12  14
ATOM     14  C   UNL     1       7.045   7.343  17.362  0.00  0.00    +0.000 C 
BRANCH  14  16
ATOM     15  C   UNL     1       7.985   5.621  19.393  0.00  0.00    +0.000 C 
ATOM     16  C   UNL     1       7.551   6.417  18.456  0.00  0.00    +0.000 C 
ENDBRANCH  14  16
ENDBRANCH  12  14
ENDBRANCH  11  12
ENDBRANCH   1  11
TORSDOF 5
ENDMDL
MODEL 8
REMARK VINA RESULT:      -5.9      1.022      1.809
REMARK  Name = 
REMARK  5 active torsions:
REMARK  status: ('A' for Active; 'I' for Inactive)
REMARK    1  A    between atoms: C_2  and  C_3
REMARK    2  A    between atoms: C_3  and  N_4
REMARK    3  A    between atoms: N_4  and  C_5
REMARK    4  A    between atoms: C_5  and  C_6
REMARK    5  A    between atoms: C_6  and  C_8
REMARK                            x       y       z     vdW  Elec       q    Type
REMARK                         _______ _______ _______ _____ _____    ______ ____
ROOT
ATOM      1  C   UNL     1       3.664   5.903  17.604  0.00  0.00    +0.000 C 
ATOM      2  C   UNL     1       3.525   7.246  17.664  0.00  0.00    +0.000 C 
ENDROOT
BRANCH   1   3
ATOM      3  C   UNL     1       2.916   5.062  18.569  0.00  0.00    +0.000 A 
ATOM      4  C   UNL     1       3.026   5.272  19.959  0.00  0.00    +0.000 A 
ATOM      5  C   UNL     1       2.277   4.517  20.860  0.00  0.00    +0.000 A 
ATOM      6  C   UNL     1       1.398   3.551  20.387  0.00  0.00    +0.000 A 
ATOM      7  F   UNL     1       0.660   2.849  21.251  0.00  0.00    +0.000 F 
ATOM      8  C   UNL     1       1.283   3.329  19.020  0.00  0.00    +0.000 A 
ATOM      9  F   UNL     1       0.432   2.401  18.559  0.00  0.00    +0.000 F 
ATOM     10  C   UNL     1       2.034   4.062  18.118  0.00  0.00    +0.000 A 
ENDBRANCH   1   3
BRANCH   1  11
ATOM     11  C   UNL     1       4.610   5.216  16.632  0.00  0.00    +0.000 C 
BRANCH  11  12
ATOM     12  N   UNL     1       5.736   4.571  17.315  0.00  0.00    +0.000 NA
ATOM     13  H   UNL     1       5.952   5.084  18.168  0.00  0.00    +0.000 HD
BRANCH  12  14
ATOM     14  C   UNL     1       6.933   4.559  16.482  0.00  0.00    +0.000 C 
BRANCH  14  16
ATOM     15  C   UNL     1       6.190   3.927  13.832  0.00  0.00    +0.000 C 
ATOM     16  C   UNL     1       6.533   4.218  15.056  0.00  0.00    +0.000 C 
ENDBRANCH  14  16
ENDBRANCH  12  14
ENDBRANCH  11  12
ENDBRANCH   1  11
TORSDOF 5
ENDMDL
MODEL 9
REMARK VINA RESULT:      -5.9      1.815      2.640
REMARK  Name = 
REMARK  5 active torsions:
REMARK  status: ('A' for Active; 'I' for Inactive)
REMARK    1  A    between atoms: C_2  and  C_3
REMARK    2  A    between atoms: C_3  and  N_4
REMARK    3  A    between atoms: N_4  and  C_5
REMARK    4  A    between atoms: C_5  and  C_6
REMARK    5  A    between atoms: C_6  and  C_8
REMARK                            x       y       z     vdW  Elec       q    Type
REMARK                         _______ _______ _______ _____ _____    ______ ____
ROOT
ATOM      1  C   UNL     1       4.866   5.361  17.236  0.00  0.00    +0.000 C 
ATOM      2  C   UNL     1       4.857   6.595  16.685  0.00  0.00    +0.000 C 
ENDROOT
BRANCH   1   3
ATOM      3  C   UNL     1       3.756   4.970  18.136  0.00  0.00    +0.000 A 
ATOM      4  C   UNL     1       3.591   5.577  19.398  0.00  0.00    +0.000 A 
ATOM      5  C   UNL     1       2.512   5.248  20.217  0.00  0.00    +0.000 A 
ATOM      6  C   UNL     1       1.576   4.318  19.784  0.00  0.00    +0.000 A 
ATOM      7  F   UNL     1       0.528   4.025  20.558  0.00  0.00    +0.000 F 
ATOM      8  C   UNL     1       1.728   3.706  18.545  0.00  0.00    +0.000 A 
ATOM      9  F   UNL     1       0.825   2.812  18.121  0.00  0.00    +0.000 F 
ATOM     10  C   UNL     1       2.804   4.015  17.731  0.00  0.00    +0.000 A 
ENDBRANCH   1   3
BRANCH   1  11
ATOM     11  C   UNL     1       6.005   4.376  17.026  0.00  0.00    +0.000 C 
BRANCH  11  12
ATOM     12  N   UNL     1       5.880   3.643  15.762  0.00  0.00    +0.000 NA
ATOM     13  H   UNL     1       6.264   2.706  15.875  0.00  0.00    +0.000 HD
BRANCH  12  14
ATOM     14  C   UNL     1       6.612   4.301  14.685  0.00  0.00    +0.000 C 
BRANCH  14  16
ATOM     15  C   UNL     1       5.745   3.241  12.216  0.00  0.00    +0.000 C 
ATOM     16  C   UNL     1       6.145   3.730  13.357  0.00  0.00    +0.000 C 
ENDBRANCH  14  16
ENDBRANCH  12  14
ENDBRANCH  11  12
ENDBRANCH   1  11
TORSDOF 5
ENDMDL
