MODEL 1
REMARK VINA RESULT:      -7.1      0.000      0.000
REMARK  Name = 
REMARK  11 active torsions:
REMARK  status: ('A' for Active; 'I' for Inactive)
REMARK    1  A    between atoms: C_1  and  O_2
REMARK    2  A    between atoms: O_2  and  C_3
REMARK    3  A    between atoms: C_9  and  C_10
REMARK    4  A    between atoms: C_10  and  C_11
REMARK    5  A    between atoms: C_14  and  O_15
REMARK    6  A    between atoms: O_15  and  C_16
REMARK    7  A    between atoms: C_17  and  O_18
REMARK    8  A    between atoms: O_18  and  C_19
REMARK    9  A    between atoms: C_19  and  C_20
REMARK   10  A    between atoms: C_25  and  O_26
REMARK   11  A    between atoms: O_26  and  C_27
REMARK                            x       y       z     vdW  Elec       q    Type
REMARK                         _______ _______ _______ _____ _____    ______ ____
ROOT
ATOM      1  C   UNL     1       6.141   4.385  16.847  0.00  0.00    +0.000 A 
ATOM      2  C   UNL     1       4.926   3.675  16.713  0.00  0.00    +0.000 A 
ATOM      3  C   UNL     1       3.795   3.952  17.505  0.00  0.00    +0.000 A 
ATOM      4  C   UNL     1       2.575   3.299  17.291  0.00  0.00    +0.000 A 
ATOM      5  C   UNL     1       1.480   3.650  18.059  0.00  0.00    +0.000 A 
ATOM      6  N   UNL     1       1.519   4.595  19.017  0.00  0.00    +0.000 NA
ATOM      7  C   UNL     1       2.706   5.223  19.247  0.00  0.00    +0.000 A 
ATOM      8  C   UNL     1       3.884   4.930  18.511  0.00  0.00    +0.000 A 
ATOM      9  C   UNL     1       5.132   5.575  18.678  0.00  0.00    +0.000 A 
ATOM     10  C   UNL     1       6.241   5.359  17.838  0.00  0.00    +0.000 A 
ENDROOT
BRANCH   1  12
ATOM     11  C   UNL     1       6.573   4.615  14.502  0.00  0.00    +0.000 C 
ATOM     12  O   UNL     1       6.992   4.195  15.799  0.00  0.00    +0.000 OA
ENDBRANCH   1  12
BRANCH  10  13
ATOM     13  O   UNL     1       7.240   6.225  18.152  0.00  0.00    +0.000 OA
ATOM     14  C   UNL     1       7.642   7.271  17.291  0.00  0.00    +0.000 C 
ENDBRANCH  10  13
BRANCH   7  15
ATOM     15  C   UNL     1       2.665   6.269  20.351  0.00  0.00    +0.000 C 
BRANCH  15  16
ATOM     16  C   UNL     1       1.993   7.559  19.931  0.00  0.00    +0.000 A 
ATOM     17  C   UNL     1       2.170   8.043  18.632  0.00  0.00    +0.000 A 
ATOM     18  C   UNL     1       1.447   9.149  18.190  0.00  0.00    +0.000 A 
ATOM     19  C   UNL     1       0.536   9.799  19.029  0.00  0.00    +0.000 A 
ATOM     20  C   UNL     1       0.407   9.373  20.363  0.00  0.00    +0.000 A 
ATOM     21  C   UNL     1       1.140   8.258  20.803  0.00  0.00    +0.000 A 
BRANCH  19  22
ATOM     22  O   UNL     1      -0.128  10.812  18.388  0.00  0.00    +0.000 OA
ATOM     23  C   UNL     1      -1.464  10.599  17.961  0.00  0.00    +0.000 C 
ENDBRANCH  19  22
BRANCH  20  24
ATOM     24  O   UNL     1      -0.496  10.009  21.165  0.00  0.00    +0.000 OA
BRANCH  24  25
ATOM     25  C   UNL     1      -0.115  11.252  21.749  0.00  0.00    +0.000 C 
BRANCH  25  26
ATOM     26  C   UNL     1      -1.390  12.025  22.038  0.00  0.00    +0.000 C 
ATOM     27  F   UNL     1      -1.493  12.255  23.372  0.00  0.00    +0.000 F 
ENDBRANCH  25  26
ENDBRANCH  24  25
ENDBRANCH  20  24
ENDBRANCH  15  16
ENDBRANCH   7  15
TORSDOF 8
ENDMDL
MODEL 2
REMARK VINA RESULT:      -7.1      2.866      7.216
REMARK  Name = 
REMARK  11 active torsions:
REMARK  status: ('A' for Active; 'I' for Inactive)
REMARK    1  A    between atoms: C_1  and  O_2
REMARK    2  A    between atoms: O_2  and  C_3
REMARK    3  A    between atoms: C_9  and  C_10
REMARK    4  A    between atoms: C_10  and  C_11
REMARK    5  A    between atoms: C_14  and  O_15
REMARK    6  A    between atoms: O_15  and  C_16
REMARK    7  A    between atoms: C_17  and  O_18
REMARK    8  A    between atoms: O_18  and  C_19
REMARK    9  A    between atoms: C_19  and  C_20
REMARK   10  A    between atoms: C_25  and  O_26
REMARK   11  A    between atoms: O_26  and  C_27
REMARK                            x       y       z     vdW  Elec       q    Type
REMARK                         _______ _______ _______ _____ _____    ______ ____
ROOT
ATOM      1  C   UNL     1       1.845   7.604  20.122  0.00  0.00    +0.000 A 
ATOM      2  C   UNL     1       1.814   6.468  20.962  0.00  0.00    +0.000 A 
ATOM      3  C   UNL     1       2.050   5.164  20.483  0.00  0.00    +0.000 A 
ATOM      4  C   UNL     1       2.106   4.066  21.350  0.00  0.00    +0.000 A 
ATOM      5  C   UNL     1       2.399   2.817  20.836  0.00  0.00    +0.000 A 
ATOM      6  N   UNL     1       2.634   2.590  19.530  0.00  0.00    +0.000 NA
ATOM      7  C   UNL     1       2.563   3.648  18.675  0.00  0.00    +0.000 A 
ATOM      8  C   UNL     1       2.269   4.968  19.109  0.00  0.00    +0.000 A 
ATOM      9  C   UNL     1       2.220   6.109  18.276  0.00  0.00    +0.000 A 
ATOM     10  C   UNL     1       2.064   7.421  18.758  0.00  0.00    +0.000 A 
ENDROOT
BRANCH   1  12
ATOM     11  C   UNL     1       1.226   8.871  22.059  0.00  0.00    +0.000 C 
ATOM     12  O   UNL     1       1.910   8.779  20.810  0.00  0.00    +0.000 OA
ENDBRANCH   1  12
BRANCH  10  13
ATOM     13  O   UNL     1       2.206   8.313  17.743  0.00  0.00    +0.000 OA
ATOM     14  C   UNL     1       1.735   9.642  17.821  0.00  0.00    +0.000 C 
ENDBRANCH  10  13
BRANCH   7  15
ATOM     15  C   UNL     1       2.833   3.303  17.218  0.00  0.00    +0.000 C 
BRANCH  15  16
ATOM     16  C   UNL     1       4.197   3.753  16.738  0.00  0.00    +0.000 A 
ATOM     17  C   UNL     1       4.388   4.069  15.389  0.00  0.00    +0.000 A 
ATOM     18  C   UNL     1       5.596   4.617  14.961  0.00  0.00    +0.000 A 
ATOM     19  C   UNL     1       6.639   4.859  15.861  0.00  0.00    +0.000 A 
ATOM     20  C   UNL     1       6.490   4.470  17.204  0.00  0.00    +0.000 A 
ATOM     21  C   UNL     1       5.271   3.917  17.629  0.00  0.00    +0.000 A 
BRANCH  19  22
ATOM     22  O   UNL     1       7.709   5.468  15.261  0.00  0.00    +0.000 OA
ATOM     23  C   UNL     1       7.895   5.315  13.863  0.00  0.00    +0.000 C 
ENDBRANCH  19  22
BRANCH  20  24
ATOM     24  O   UNL     1       7.513   4.725  18.072  0.00  0.00    +0.000 OA
BRANCH  24  25
ATOM     25  C   UNL     1       7.325   5.751  19.044  0.00  0.00    +0.000 C 
BRANCH  25  26
ATOM     26  C   UNL     1       8.070   6.981  18.551  0.00  0.00    +0.000 C 
ATOM     27  F   UNL     1       7.311   7.638  17.637  0.00  0.00    +0.000 F 
ENDBRANCH  25  26
ENDBRANCH  24  25
ENDBRANCH  20  24
ENDBRANCH  15  16
ENDBRANCH   7  15
TORSDOF 8
ENDMDL
MODEL 3
REMARK VINA RESULT:      -6.9      1.155      1.194
REMARK  Name = 
REMARK  11 active torsions:
REMARK  status: ('A' for Active; 'I' for Inactive)
REMARK    1  A    between atoms: C_1  and  O_2
REMARK    2  A    between atoms: O_2  and  C_3
REMARK    3  A    between atoms: C_9  and  C_10
REMARK    4  A    between atoms: C_10  and  C_11
REMARK    5  A    between atoms: C_14  and  O_15
REMARK    6  A    between atoms: O_15  and  C_16
REMARK    7  A    between atoms: C_17  and  O_18
REMARK    8  A    between atoms: O_18  and  C_19
REMARK    9  A    between atoms: C_19  and  C_20
REMARK   10  A    between atoms: C_25  and  O_26
REMARK   11  A    between atoms: O_26  and  C_27
REMARK                            x       y       z     vdW  Elec       q    Type
REMARK                         _______ _______ _______ _____ _____    ______ ____
ROOT
ATOM      1  C   UNL     1       4.999   4.698  16.270  0.00  0.00    +0.000 A 
ATOM      2  C   UNL     1       3.978   3.864  16.778  0.00  0.00    +0.000 A 
ATOM      3  C   UNL     1       3.143   4.253  17.845  0.00  0.00    +0.000 A 
ATOM      4  C   UNL     1       2.079   3.448  18.270  0.00  0.00    +0.000 A 
ATOM      5  C   UNL     1       1.254   3.903  19.282  0.00  0.00    +0.000 A 
ATOM      6  N   UNL     1       1.419   5.090  19.895  0.00  0.00    +0.000 NA
ATOM      7  C   UNL     1       2.463   5.872  19.502  0.00  0.00    +0.000 A 
ATOM      8  C   UNL     1       3.363   5.491  18.472  0.00  0.00    +0.000 A 
ATOM      9  C   UNL     1       4.439   6.276  17.996  0.00  0.00    +0.000 A 
ATOM     10  C   UNL     1       5.224   5.929  16.882  0.00  0.00    +0.000 A 
ENDROOT
BRANCH   1  12
ATOM     11  C   UNL     1       6.887   4.255  14.863  0.00  0.00    +0.000 C 
ATOM     12  O   UNL     1       5.474   4.288  15.060  0.00  0.00    +0.000 OA
ENDBRANCH   1  12
BRANCH  10  13
ATOM     13  O   UNL     1       6.075   6.944  16.576  0.00  0.00    +0.000 OA
ATOM     14  C   UNL     1       7.219   7.242  17.350  0.00  0.00    +0.000 C 
ENDBRANCH  10  13
BRANCH   7  15
ATOM     15  C   UNL     1       2.581   7.191  20.250  0.00  0.00    +0.000 C 
BRANCH  15  16
ATOM     16  C   UNL     1       1.692   8.282  19.690  0.00  0.00    +0.000 A 
ATOM     17  C   UNL     1       1.608   8.467  18.306  0.00  0.00    +0.000 A 
ATOM     18  C   UNL     1       0.690   9.369  17.773  0.00  0.00    +0.000 A 
ATOM     19  C   UNL     1      -0.162  10.108  18.601  0.00  0.00    +0.000 A 
ATOM     20  C   UNL     1      -0.032   9.991  19.996  0.00  0.00    +0.000 A 
ATOM     21  C   UNL     1       0.896   9.081  20.528  0.00  0.00    +0.000 A 
BRANCH  19  22
ATOM     22  O   UNL     1      -1.039  10.879  17.885  0.00  0.00    +0.000 OA
ATOM     23  C   UNL     1      -1.966  10.244  17.018  0.00  0.00    +0.000 C 
ENDBRANCH  19  22
BRANCH  20  24
ATOM     24  O   UNL     1      -0.880  10.709  20.790  0.00  0.00    +0.000 OA
BRANCH  24  25
ATOM     25  C   UNL     1      -0.343  11.326  21.958  0.00  0.00    +0.000 C 
BRANCH  25  26
ATOM     26  C   UNL     1      -1.171  10.852  23.140  0.00  0.00    +0.000 C 
ATOM     27  F   UNL     1      -0.861   9.562  23.427  0.00  0.00    +0.000 F 
ENDBRANCH  25  26
ENDBRANCH  24  25
ENDBRANCH  20  24
ENDBRANCH  15  16
ENDBRANCH   7  15
TORSDOF 8
ENDMDL
MODEL 4
REMARK VINA RESULT:      -6.6      1.659      2.289
REMARK  Name = 
REMARK  11 active torsions:
REMARK  status: ('A' for Active; 'I' for Inactive)
REMARK    1  A    between atoms: C_1  and  O_2
REMARK    2  A    between atoms: O_2  and  C_3
REMARK    3  A    between atoms: C_9  and  C_10
REMARK    4  A    between atoms: C_10  and  C_11
REMARK    5  A    between atoms: C_14  and  O_15
REMARK    6  A    between atoms: O_15  and  C_16
REMARK    7  A    between atoms: C_17  and  O_18
REMARK    8  A    between atoms: O_18  and  C_19
REMARK    9  A    between atoms: C_19  and  C_20
REMARK   10  A    between atoms: C_25  and  O_26
REMARK   11  A    between atoms: O_26  and  C_27
REMARK                            x       y       z     vdW  Elec       q    Type
REMARK                         _______ _______ _______ _____ _____    ______ ____
ROOT
ATOM      1  C   UNL     1       6.088   4.398  16.756  0.00  0.00    +0.000 A 
ATOM      2  C   UNL     1       4.841   3.751  16.605  0.00  0.00    +0.000 A 
ATOM      3  C   UNL     1       3.738   4.028  17.437  0.00  0.00    +0.000 A 
ATOM      4  C   UNL     1       2.487   3.442  17.209  0.00  0.00    +0.000 A 
ATOM      5  C   UNL     1       1.422   3.793  18.019  0.00  0.00    +0.000 A 
ATOM      6  N   UNL     1       1.521   4.675  19.032  0.00  0.00    +0.000 NA
ATOM      7  C   UNL     1       2.739   5.235  19.274  0.00  0.00    +0.000 A 
ATOM      8  C   UNL     1       3.890   4.937  18.497  0.00  0.00    +0.000 A 
ATOM      9  C   UNL     1       5.168   5.515  18.676  0.00  0.00    +0.000 A 
ATOM     10  C   UNL     1       6.250   5.304  17.802  0.00  0.00    +0.000 A 
ENDROOT
BRANCH   1  12
ATOM     11  C   UNL     1       6.670   5.027  14.519  0.00  0.00    +0.000 C 
ATOM     12  O   UNL     1       6.911   4.236  15.682  0.00  0.00    +0.000 OA
ENDBRANCH   1  12
BRANCH  10  13
ATOM     13  O   UNL     1       7.292   6.105  18.147  0.00  0.00    +0.000 OA
ATOM     14  C   UNL     1       7.534   7.352  17.527  0.00  0.00    +0.000 C 
ENDBRANCH  10  13
BRANCH   7  15
ATOM     15  C   UNL     1       2.765   6.212  20.440  0.00  0.00    +0.000 C 
BRANCH  15  16
ATOM     16  C   UNL     1       1.843   7.398  20.250  0.00  0.00    +0.000 A 
ATOM     17  C   UNL     1       0.913   7.721  21.243  0.00  0.00    +0.000 A 
ATOM     18  C   UNL     1       0.159   8.888  21.146  0.00  0.00    +0.000 A 
ATOM     19  C   UNL     1       0.309   9.757  20.060  0.00  0.00    +0.000 A 
ATOM     20  C   UNL     1       1.181   9.404  19.015  0.00  0.00    +0.000 A 
ATOM     21  C   UNL     1       1.938   8.225  19.118  0.00  0.00    +0.000 A 
BRANCH  19  22
ATOM     22  O   UNL     1      -0.464  10.881  20.186  0.00  0.00    +0.000 OA
ATOM     23  C   UNL     1      -1.512  11.105  19.257  0.00  0.00    +0.000 C 
ENDBRANCH  19  22
BRANCH  20  24
ATOM     24  O   UNL     1       1.326  10.270  17.969  0.00  0.00    +0.000 OA
BRANCH  24  25
ATOM     25  C   UNL     1       2.476  11.113  17.952  0.00  0.00    +0.000 C 
BRANCH  25  26
ATOM     26  C   UNL     1       2.047  12.473  18.476  0.00  0.00    +0.000 C 
ATOM     27  F   UNL     1       2.593  13.451  17.710  0.00  0.00    +0.000 F 
ENDBRANCH  25  26
ENDBRANCH  24  25
ENDBRANCH  20  24
ENDBRANCH  15  16
ENDBRANCH   7  15
TORSDOF 8
ENDMDL
MODEL 5
REMARK VINA RESULT:      -6.6      3.726      7.697
REMARK  Name = 
REMARK  11 active torsions:
REMARK  status: ('A' for Active; 'I' for Inactive)
REMARK    1  A    between atoms: C_1  and  O_2
REMARK    2  A    between atoms: O_2  and  C_3
REMARK    3  A    between atoms: C_9  and  C_10
REMARK    4  A    between atoms: C_10  and  C_11
REMARK    5  A    between atoms: C_14  and  O_15
REMARK    6  A    between atoms: O_15  and  C_16
REMARK    7  A    between atoms: C_17  and  O_18
REMARK    8  A    between atoms: O_18  and  C_19
REMARK    9  A    between atoms: C_19  and  C_20
REMARK   10  A    between atoms: C_25  and  O_26
REMARK   11  A    between atoms: O_26  and  C_27
REMARK                            x       y       z     vdW  Elec       q    Type
REMARK                         _______ _______ _______ _____ _____    ______ ____
ROOT
ATOM      1  C   UNL     1       1.594   7.152  20.380  0.00  0.00    +0.000 A 
ATOM      2  C   UNL     1       1.480   6.002  21.192  0.00  0.00    +0.000 A 
ATOM      3  C   UNL     1       2.016   4.754  20.819  0.00  0.00    +0.000 A 
ATOM      4  C   UNL     1       1.971   3.652  21.682  0.00  0.00    +0.000 A 
ATOM      5  C   UNL     1       2.563   2.466  21.291  0.00  0.00    +0.000 A 
ATOM      6  N   UNL     1       3.188   2.304  20.109  0.00  0.00    +0.000 NA
ATOM      7  C   UNL     1       3.220   3.364  19.253  0.00  0.00    +0.000 A 
ATOM      8  C   UNL     1       2.640   4.621  19.567  0.00  0.00    +0.000 A 
ATOM      9  C   UNL     1       2.676   5.767  18.738  0.00  0.00    +0.000 A 
ATOM     10  C   UNL     1       2.213   7.034  19.137  0.00  0.00    +0.000 A 
ENDROOT
BRANCH   1  12
ATOM     11  C   UNL     1      -0.044   8.526  21.459  0.00  0.00    +0.000 C 
ATOM     12  O   UNL     1       1.302   8.308  21.040  0.00  0.00    +0.000 OA
ENDBRANCH   1  12
BRANCH  10  13
ATOM     13  O   UNL     1       2.517   7.961  18.191  0.00  0.00    +0.000 OA
ATOM     14  C   UNL     1       3.593   7.808  17.288  0.00  0.00    +0.000 C 
ENDBRANCH  10  13
BRANCH   7  15
ATOM     15  C   UNL     1       3.937   3.094  17.939  0.00  0.00    +0.000 C 
BRANCH  15  16
ATOM     16  C   UNL     1       4.893   4.198  17.539  0.00  0.00    +0.000 A 
ATOM     17  C   UNL     1       5.616   4.880  18.522  0.00  0.00    +0.000 A 
ATOM     18  C   UNL     1       6.600   5.798  18.160  0.00  0.00    +0.000 A 
ATOM     19  C   UNL     1       6.886   6.059  16.815  0.00  0.00    +0.000 A 
ATOM     20  C   UNL     1       6.112   5.440  15.818  0.00  0.00    +0.000 A 
ATOM     21  C   UNL     1       5.119   4.518  16.189  0.00  0.00    +0.000 A 
BRANCH  19  22
ATOM     22  O   UNL     1       7.933   6.930  16.668  0.00  0.00    +0.000 OA
ATOM     23  C   UNL     1       7.955   8.118  17.443  0.00  0.00    +0.000 C 
ENDBRANCH  19  22
BRANCH  20  24
ATOM     24  O   UNL     1       6.412   5.695  14.510  0.00  0.00    +0.000 OA
BRANCH  24  25
ATOM     25  C   UNL     1       7.258   4.774  13.826  0.00  0.00    +0.000 C 
BRANCH  25  26
ATOM     26  C   UNL     1       7.927   5.533  12.692  0.00  0.00    +0.000 C 
ATOM     27  F   UNL     1       9.162   5.939  13.081  0.00  0.00    +0.000 F 
ENDBRANCH  25  26
ENDBRANCH  24  25
ENDBRANCH  20  24
ENDBRANCH  15  16
ENDBRANCH   7  15
TORSDOF 8
ENDMDL
MODEL 6
REMARK VINA RESULT:      -6.5      3.226      8.384
REMARK  Name = 
REMARK  11 active torsions:
REMARK  status: ('A' for Active; 'I' for Inactive)
REMARK    1  A    between atoms: C_1  and  O_2
REMARK    2  A    between atoms: O_2  and  C_3
REMARK    3  A    between atoms: C_9  and  C_10
REMARK    4  A    between atoms: C_10  and  C_11
REMARK    5  A    between atoms: C_14  and  O_15
REMARK    6  A    between atoms: O_15  and  C_16
REMARK    7  A    between atoms: C_17  and  O_18
REMARK    8  A    between atoms: O_18  and  C_19
REMARK    9  A    between atoms: C_19  and  C_20
REMARK   10  A    between atoms: C_25  and  O_26
REMARK   11  A    between atoms: O_26  and  C_27
REMARK                            x       y       z     vdW  Elec       q    Type
REMARK                         _______ _______ _______ _____ _____    ______ ____
ROOT
ATOM      1  C   UNL     1      -3.143  11.159  17.842  0.00  0.00    +0.000 A 
ATOM      2  C   UNL     1      -2.645  11.217  19.163  0.00  0.00    +0.000 A 
ATOM      3  C   UNL     1      -1.326  10.846  19.493  0.00  0.00    +0.000 A 
ATOM      4  C   UNL     1      -0.827  11.000  20.792  0.00  0.00    +0.000 A 
ATOM      5  C   UNL     1       0.492  10.676  21.049  0.00  0.00    +0.000 A 
ATOM      6  N   UNL     1       1.337  10.210  20.110  0.00  0.00    +0.000 NA
ATOM      7  C   UNL     1       0.856  10.038  18.847  0.00  0.00    +0.000 A 
ATOM      8  C   UNL     1      -0.483  10.343  18.487  0.00  0.00    +0.000 A 
ATOM      9  C   UNL     1      -1.027  10.222  17.187  0.00  0.00    +0.000 A 
ATOM     10  C   UNL     1      -2.315  10.664  16.836  0.00  0.00    +0.000 A 
ENDROOT
BRANCH   1  12
ATOM     11  C   UNL     1      -5.087  12.146  18.833  0.00  0.00    +0.000 C 
ATOM     12  O   UNL     1      -4.308  11.846  17.676  0.00  0.00    +0.000 OA
ENDBRANCH   1  12
BRANCH  10  13
ATOM     13  O   UNL     1      -2.497  10.553  15.494  0.00  0.00    +0.000 OA
ATOM     14  C   UNL     1      -3.700  10.083  14.922  0.00  0.00    +0.000 C 
ENDBRANCH  10  13
BRANCH   7  15
ATOM     15  C   UNL     1       1.873   9.501  17.851  0.00  0.00    +0.000 C 
BRANCH  15  16
ATOM     16  C   UNL     1       2.403   8.129  18.214  0.00  0.00    +0.000 A 
ATOM     17  C   UNL     1       3.518   7.617  17.544  0.00  0.00    +0.000 A 
ATOM     18  C   UNL     1       4.100   6.422  17.962  0.00  0.00    +0.000 A 
ATOM     19  C   UNL     1       3.586   5.710  19.051  0.00  0.00    +0.000 A 
ATOM     20  C   UNL     1       2.417   6.172  19.682  0.00  0.00    +0.000 A 
ATOM     21  C   UNL     1       1.834   7.376  19.255  0.00  0.00    +0.000 A 
BRANCH  19  22
ATOM     22  O   UNL     1       4.340   4.606  19.351  0.00  0.00    +0.000 OA
ATOM     23  C   UNL     1       5.615   4.459  18.746  0.00  0.00    +0.000 C 
ENDBRANCH  19  22
BRANCH  20  24
ATOM     24  O   UNL     1       1.936   5.473  20.752  0.00  0.00    +0.000 OA
BRANCH  24  25
ATOM     25  C   UNL     1       1.005   4.423  20.502  0.00  0.00    +0.000 C 
BRANCH  25  26
ATOM     26  C   UNL     1       1.588   3.152  21.098  0.00  0.00    +0.000 C 
ATOM     27  F   UNL     1       2.326   3.458  22.195  0.00  0.00    +0.000 F 
ENDBRANCH  25  26
ENDBRANCH  24  25
ENDBRANCH  20  24
ENDBRANCH  15  16
ENDBRANCH   7  15
TORSDOF 8
ENDMDL
MODEL 7
REMARK VINA RESULT:      -6.5      2.665      8.270
REMARK  Name = 
REMARK  11 active torsions:
REMARK  status: ('A' for Active; 'I' for Inactive)
REMARK    1  A    between atoms: C_1  and  O_2
REMARK    2  A    between atoms: O_2  and  C_3
REMARK    3  A    between atoms: C_9  and  C_10
REMARK    4  A    between atoms: C_10  and  C_11
REMARK    5  A    between atoms: C_14  and  O_15
REMARK    6  A    between atoms: O_15  and  C_16
REMARK    7  A    between atoms: C_17  and  O_18
REMARK    8  A    between atoms: O_18  and  C_19
REMARK    9  A    between atoms: C_19  and  C_20
REMARK   10  A    between atoms: C_25  and  O_26
REMARK   11  A    between atoms: O_26  and  C_27
REMARK                            x       y       z     vdW  Elec       q    Type
REMARK                         _______ _______ _______ _____ _____    ______ ____
ROOT
ATOM      1  C   UNL     1      -1.676  11.794  20.086  0.00  0.00    +0.000 A 
ATOM      2  C   UNL     1      -1.034  11.063  21.111  0.00  0.00    +0.000 A 
ATOM      3  C   UNL     1      -0.065  10.075  20.844  0.00  0.00    +0.000 A 
ATOM      4  C   UNL     1       0.624   9.430  21.878  0.00  0.00    +0.000 A 
ATOM      5  C   UNL     1       1.607   8.511  21.560  0.00  0.00    +0.000 A 
ATOM      6  N   UNL     1       1.942   8.192  20.295  0.00  0.00    +0.000 NA
ATOM      7  C   UNL     1       1.264   8.800  19.282  0.00  0.00    +0.000 A 
ATOM      8  C   UNL     1       0.240   9.756  19.510  0.00  0.00    +0.000 A 
ATOM      9  C   UNL     1      -0.470  10.447  18.500  0.00  0.00    +0.000 A 
ATOM     10  C   UNL     1      -1.380  11.489  18.759  0.00  0.00    +0.000 A 
ENDROOT
BRANCH   1  12
ATOM     11  C   UNL     1      -3.748  12.845  20.671  0.00  0.00    +0.000 C 
ATOM     12  O   UNL     1      -2.328  12.900  20.544  0.00  0.00    +0.000 OA
ENDBRANCH   1  12
BRANCH  10  13
ATOM     13  O   UNL     1      -1.786  12.056  17.593  0.00  0.00    +0.000 OA
ATOM     14  C   UNL     1      -2.541  11.357  16.626  0.00  0.00    +0.000 C 
ENDBRANCH  10  13
BRANCH   7  15
ATOM     15  C   UNL     1       1.700   8.377  17.887  0.00  0.00    +0.000 C 
BRANCH  15  16
ATOM     16  C   UNL     1       2.654   7.202  17.886  0.00  0.00    +0.000 A 
ATOM     17  C   UNL     1       3.988   7.392  17.510  0.00  0.00    +0.000 A 
ATOM     18  C   UNL     1       4.907   6.353  17.639  0.00  0.00    +0.000 A 
ATOM     19  C   UNL     1       4.523   5.105  18.140  0.00  0.00    +0.000 A 
ATOM     20  C   UNL     1       3.169   4.876  18.445  0.00  0.00    +0.000 A 
ATOM     21  C   UNL     1       2.246   5.926  18.312  0.00  0.00    +0.000 A 
BRANCH  19  22
ATOM     22  O   UNL     1       5.584   4.246  18.260  0.00  0.00    +0.000 OA
ATOM     23  C   UNL     1       6.890   4.721  17.975  0.00  0.00    +0.000 C 
ENDBRANCH  19  22
BRANCH  20  24
ATOM     24  O   UNL     1       2.813   3.657  18.946  0.00  0.00    +0.000 OA
BRANCH  24  25
ATOM     25  C   UNL     1       2.725   3.514  20.362  0.00  0.00    +0.000 C 
BRANCH  25  26
ATOM     26  C   UNL     1       1.293   3.125  20.688  0.00  0.00    +0.000 C 
ATOM     27  F   UNL     1       0.474   4.189  20.490  0.00  0.00    +0.000 F 
ENDBRANCH  25  26
ENDBRANCH  24  25
ENDBRANCH  20  24
ENDBRANCH  15  16
ENDBRANCH   7  15
TORSDOF 8
ENDMDL
MODEL 8
REMARK VINA RESULT:      -6.5      2.908      4.592
REMARK  Name = 
REMARK  11 active torsions:
REMARK  status: ('A' for Active; 'I' for Inactive)
REMARK    1  A    between atoms: C_1  and  O_2
REMARK    2  A    between atoms: O_2  and  C_3
REMARK    3  A    between atoms: C_9  and  C_10
REMARK    4  A    between atoms: C_10  and  C_11
REMARK    5  A    between atoms: C_14  and  O_15
REMARK    6  A    between atoms: O_15  and  C_16
REMARK    7  A    between atoms: C_17  and  O_18
REMARK    8  A    between atoms: O_18  and  C_19
REMARK    9  A    between atoms: C_19  and  C_20
REMARK   10  A    between atoms: C_25  and  O_26
REMARK   11  A    between atoms: O_26  and  C_27
REMARK                            x       y       z     vdW  Elec       q    Type
REMARK                         _______ _______ _______ _____ _____    ______ ____
ROOT
ATOM      1  C   UNL     1       3.058   4.189  19.134  0.00  0.00    +0.000 A 
ATOM      2  C   UNL     1       3.081   5.248  18.199  0.00  0.00    +0.000 A 
ATOM      3  C   UNL     1       2.621   6.543  18.511  0.00  0.00    +0.000 A 
ATOM      4  C   UNL     1       2.740   7.599  17.599  0.00  0.00    +0.000 A 
ATOM      5  C   UNL     1       2.327   8.864  17.977  0.00  0.00    +0.000 A 
ATOM      6  N   UNL     1       1.805   9.142  19.186  0.00  0.00    +0.000 NA
ATOM      7  C   UNL     1       1.667   8.118  20.074  0.00  0.00    +0.000 A 
ATOM      8  C   UNL     1       2.063   6.787  19.777  0.00  0.00    +0.000 A 
ATOM      9  C   UNL     1       1.980   5.693  20.670  0.00  0.00    +0.000 A 
ATOM     10  C   UNL     1       2.509   4.419  20.394  0.00  0.00    +0.000 A 
ENDROOT
BRANCH   1  12
ATOM     11  C   UNL     1       3.171   1.989  18.191  0.00  0.00    +0.000 C 
ATOM     12  O   UNL     1       3.823   3.125  18.758  0.00  0.00    +0.000 OA
ENDBRANCH   1  12
BRANCH  10  13
ATOM     13  O   UNL     1       2.412   3.625  21.492  0.00  0.00    +0.000 OA
ATOM     14  C   UNL     1       1.503   2.547  21.578  0.00  0.00    +0.000 C 
ENDBRANCH  10  13
BRANCH   7  15
ATOM     15  C   UNL     1       1.062   8.517  21.411  0.00  0.00    +0.000 C 
BRANCH  15  16
ATOM     16  C   UNL     1       0.075   9.660  21.307  0.00  0.00    +0.000 A 
ATOM     17  C   UNL     1      -0.284  10.374  22.454  0.00  0.00    +0.000 A 
ATOM     18  C   UNL     1      -1.080  11.513  22.353  0.00  0.00    +0.000 A 
ATOM     19  C   UNL     1      -1.538  11.966  21.111  0.00  0.00    +0.000 A 
ATOM     20  C   UNL     1      -1.252  11.212  19.958  0.00  0.00    +0.000 A 
ATOM     21  C   UNL     1      -0.451  10.064  20.068  0.00  0.00    +0.000 A 
BRANCH  19  22
ATOM     22  O   UNL     1      -2.238  13.139  21.213  0.00  0.00    +0.000 OA
ATOM     23  C   UNL     1      -3.574  13.104  21.691  0.00  0.00    +0.000 C 
ENDBRANCH  19  22
BRANCH  20  24
ATOM     24  O   UNL     1      -1.695  11.675  18.752  0.00  0.00    +0.000 OA
BRANCH  24  25
ATOM     25  C   UNL     1      -2.997  11.286  18.323  0.00  0.00    +0.000 C 
BRANCH  25  26
ATOM     26  C   UNL     1      -2.829  10.094  17.396  0.00  0.00    +0.000 C 
ATOM     27  F   UNL     1      -3.524   9.035  17.883  0.00  0.00    +0.000 F 
ENDBRANCH  25  26
ENDBRANCH  24  25
ENDBRANCH  20  24
ENDBRANCH  15  16
ENDBRANCH   7  15
TORSDOF 8
ENDMDL
MODEL 9
REMARK VINA RESULT:      -6.5      3.613      8.914
REMARK  Name = 
REMARK  11 active torsions:
REMARK  status: ('A' for Active; 'I' for Inactive)
REMARK    1  A    between atoms: C_1  and  O_2
REMARK    2  A    between atoms: O_2  and  C_3
REMARK    3  A    between atoms: C_9  and  C_10
REMARK    4  A    between atoms: C_10  and  C_11
REMARK    5  A    between atoms: C_14  and  O_15
REMARK    6  A    between atoms: O_15  and  C_16
REMARK    7  A    between atoms: C_17  and  O_18
REMARK    8  A    between atoms: O_18  and  C_19
REMARK    9  A    between atoms: C_19  and  C_20
REMARK   10  A    between atoms: C_25  and  O_26
REMARK   11  A    between atoms: O_26  and  C_27
REMARK                            x       y       z     vdW  Elec       q    Type
REMARK                         _______ _______ _______ _____ _____    ______ ____
ROOT
ATOM      1  C   UNL     1      -3.316  11.212  18.079  0.00  0.00    +0.000 A 
ATOM      2  C   UNL     1      -2.514  11.689  19.139  0.00  0.00    +0.000 A 
ATOM      3  C   UNL     1      -1.155  11.343  19.276  0.00  0.00    +0.000 A 
ATOM      4  C   UNL     1      -0.356  11.901  20.282  0.00  0.00    +0.000 A 
ATOM      5  C   UNL     1       0.986  11.572  20.336  0.00  0.00    +0.000 A 
ATOM      6  N   UNL     1       1.578  10.731  19.467  0.00  0.00    +0.000 NA
ATOM      7  C   UNL     1       0.806  10.168  18.497  0.00  0.00    +0.000 A 
ATOM      8  C   UNL     1      -0.580  10.444  18.361  0.00  0.00    +0.000 A 
ATOM      9  C   UNL     1      -1.422   9.920  17.353  0.00  0.00    +0.000 A 
ATOM     10  C   UNL     1      -2.757  10.322  17.164  0.00  0.00    +0.000 A 
ENDROOT
BRANCH   1  12
ATOM     11  C   UNL     1      -5.711  11.186  18.109  0.00  0.00    +0.000 C 
ATOM     12  O   UNL     1      -4.486  11.898  17.941  0.00  0.00    +0.000 OA
ENDBRANCH   1  12
BRANCH  10  13
ATOM     13  O   UNL     1      -3.258   9.762  16.032  0.00  0.00    +0.000 OA
ATOM     14  C   UNL     1      -2.909  10.209  14.738  0.00  0.00    +0.000 C 
ENDBRANCH  10  13
BRANCH   7  15
ATOM     15  C   UNL     1       1.551   9.225  17.564  0.00  0.00    +0.000 C 
BRANCH  15  16
ATOM     16  C   UNL     1       2.233   8.081  18.285  0.00  0.00    +0.000 A 
ATOM     17  C   UNL     1       1.669   7.563  19.454  0.00  0.00    +0.000 A 
ATOM     18  C   UNL     1       2.206   6.423  20.048  0.00  0.00    +0.000 A 
ATOM     19  C   UNL     1       3.315   5.775  19.495  0.00  0.00    +0.000 A 
ATOM     20  C   UNL     1       3.941   6.331  18.365  0.00  0.00    +0.000 A 
ATOM     21  C   UNL     1       3.396   7.482  17.772  0.00  0.00    +0.000 A 
BRANCH  19  22
ATOM     22  O   UNL     1       3.643   4.634  20.180  0.00  0.00    +0.000 OA
ATOM     23  C   UNL     1       2.722   3.554  20.201  0.00  0.00    +0.000 C 
ENDBRANCH  19  22
BRANCH  20  24
ATOM     24  O   UNL     1       5.015   5.678  17.830  0.00  0.00    +0.000 OA
BRANCH  24  25
ATOM     25  C   UNL     1       5.206   5.749  16.419  0.00  0.00    +0.000 C 
BRANCH  25  26
ATOM     26  C   UNL     1       4.978   4.354  15.862  0.00  0.00    +0.000 C 
ATOM     27  F   UNL     1       6.115   3.623  15.983  0.00  0.00    +0.000 F 
ENDBRANCH  25  26
ENDBRANCH  24  25
ENDBRANCH  20  24
ENDBRANCH  15  16
ENDBRANCH   7  15
TORSDOF 8
ENDMDL
