MODEL 1
REMARK VINA RESULT:      -9.3      0.000      0.000
REMARK  Name = 
REMARK  1 active torsions:
REMARK  status: ('A' for Active; 'I' for Inactive)
REMARK    1  A    between atoms: C_11  and  C_12
REMARK                            x       y       z     vdW  Elec       q    Type
REMARK                         _______ _______ _______ _____ _____    ______ ____
ROOT
ATOM      1  O   UNL     1       4.321   6.735  17.020  0.00  0.00    +0.000 OA
ATOM      2  C   UNL     1       3.762   5.839  17.625  0.00  0.00    +0.000 C 
ATOM      3  N   UNL     1       2.781   6.014  18.586  0.00  0.00    +0.000 N 
ATOM      4  C   UNL     1       2.307   4.798  19.058  0.00  0.00    +0.000 A 
ATOM      5  C   UNL     1       1.325   4.624  20.010  0.00  0.00    +0.000 A 
ATOM      6  C   UNL     1       0.997   3.315  20.357  0.00  0.00    +0.000 A 
ATOM      7  C   UNL     1       1.658   2.228  19.754  0.00  0.00    +0.000 A 
ATOM      8  C   UNL     1       2.654   2.429  18.785  0.00  0.00    +0.000 A 
ATOM      9  C   UNL     1       2.965   3.731  18.433  0.00  0.00    +0.000 A 
ATOM     10  C   UNL     1       3.923   4.341  17.500  0.00  0.00    +0.000 C 
ATOM     11  C   UNL     1       4.801   3.720  16.694  0.00  0.00    +0.000 C 
ATOM     12  H   UNL     1       2.467   6.927  18.870  0.00  0.00    +0.000 HD
ENDROOT
BRANCH  11  13
ATOM     13  C   UNL     1       5.786   4.389  15.908  0.00  0.00    +0.000 A 
ATOM     14  C   UNL     1       6.755   5.234  16.397  0.00  0.00    +0.000 A 
ATOM     15  N   UNL     1       7.592   5.544  15.354  0.00  0.00    +0.000 N 
ATOM     16  C   UNL     1       7.152   4.953  14.189  0.00  0.00    +0.000 A 
ATOM     17  C   UNL     1       7.698   4.971  12.900  0.00  0.00    +0.000 A 
ATOM     18  C   UNL     1       7.035   4.249  11.903  0.00  0.00    +0.000 A 
ATOM     19  C   UNL     1       5.871   3.538  12.185  0.00  0.00    +0.000 A 
ATOM     20  C   UNL     1       5.344   3.521  13.481  0.00  0.00    +0.000 A 
ATOM     21  C   UNL     1       5.997   4.237  14.506  0.00  0.00    +0.000 A 
ATOM     22  H   UNL     1       8.437   6.093  15.430  0.00  0.00    +0.000 HD
ENDBRANCH  11  13
TORSDOF 1
ENDMDL
MODEL 2
REMARK VINA RESULT:      -8.9      1.425      6.496
REMARK  Name = 
REMARK  1 active torsions:
REMARK  status: ('A' for Active; 'I' for Inactive)
REMARK    1  A    between atoms: C_11  and  C_12
REMARK                            x       y       z     vdW  Elec       q    Type
REMARK                         _______ _______ _______ _____ _____    ______ ____
ROOT
ATOM      1  O   UNL     1       6.450   5.400  17.776  0.00  0.00    +0.000 OA
ATOM      2  C   UNL     1       6.435   5.097  16.597  0.00  0.00    +0.000 C 
ATOM      3  N   UNL     1       7.373   5.491  15.658  0.00  0.00    +0.000 N 
ATOM      4  C   UNL     1       7.106   4.944  14.412  0.00  0.00    +0.000 A 
ATOM      5  C   UNL     1       7.852   5.132  13.267  0.00  0.00    +0.000 A 
ATOM      6  C   UNL     1       7.410   4.501  12.106  0.00  0.00    +0.000 A 
ATOM      7  C   UNL     1       6.242   3.713  12.120  0.00  0.00    +0.000 A 
ATOM      8  C   UNL     1       5.500   3.535  13.298  0.00  0.00    +0.000 A 
ATOM      9  C   UNL     1       5.953   4.152  14.452  0.00  0.00    +0.000 A 
ATOM     10  C   UNL     1       5.469   4.217  15.839  0.00  0.00    +0.000 C 
ATOM     11  C   UNL     1       4.374   3.638  16.360  0.00  0.00    +0.000 C 
ATOM     12  H   UNL     1       8.147   6.090  15.894  0.00  0.00    +0.000 HD
ENDROOT
BRANCH  11  13
ATOM     13  C   UNL     1       3.905   3.852  17.690  0.00  0.00    +0.000 A 
ATOM     14  C   UNL     1       4.037   2.965  18.733  0.00  0.00    +0.000 A 
ATOM     15  N   UNL     1       3.601   3.600  19.869  0.00  0.00    +0.000 N 
ATOM     16  C   UNL     1       3.145   4.866  19.569  0.00  0.00    +0.000 A 
ATOM     17  C   UNL     1       2.639   5.869  20.405  0.00  0.00    +0.000 A 
ATOM     18  C   UNL     1       2.269   7.081  19.814  0.00  0.00    +0.000 A 
ATOM     19  C   UNL     1       2.398   7.281  18.442  0.00  0.00    +0.000 A 
ATOM     20  C   UNL     1       2.916   6.272  17.622  0.00  0.00    +0.000 A 
ATOM     21  C   UNL     1       3.301   5.042  18.194  0.00  0.00    +0.000 A 
ATOM     22  H   UNL     1       3.646   3.217  20.803  0.00  0.00    +0.000 HD
ENDBRANCH  11  13
TORSDOF 1
ENDMDL
MODEL 3
REMARK VINA RESULT:      -8.8      1.518      1.749
REMARK  Name = 
REMARK  1 active torsions:
REMARK  status: ('A' for Active; 'I' for Inactive)
REMARK    1  A    between atoms: C_11  and  C_12
REMARK                            x       y       z     vdW  Elec       q    Type
REMARK                         _______ _______ _______ _____ _____    ______ ____
ROOT
ATOM      1  O   UNL     1       6.550   4.035  18.552  0.00  0.00    +0.000 OA
ATOM      2  C   UNL     1       5.369   3.884  18.803  0.00  0.00    +0.000 C 
ATOM      3  N   UNL     1       4.865   3.222  19.909  0.00  0.00    +0.000 N 
ATOM      4  C   UNL     1       3.478   3.261  19.938  0.00  0.00    +0.000 A 
ATOM      5  C   UNL     1       2.671   2.705  20.909  0.00  0.00    +0.000 A 
ATOM      6  C   UNL     1       1.294   2.843  20.750  0.00  0.00    +0.000 A 
ATOM      7  C   UNL     1       0.767   3.521  19.633  0.00  0.00    +0.000 A 
ATOM      8  C   UNL     1       1.609   4.080  18.659  0.00  0.00    +0.000 A 
ATOM      9  C   UNL     1       2.977   3.952  18.829  0.00  0.00    +0.000 A 
ATOM     10  C   UNL     1       4.152   4.375  18.053  0.00  0.00    +0.000 C 
ATOM     11  C   UNL     1       4.176   5.048  16.891  0.00  0.00    +0.000 C 
ATOM     12  H   UNL     1       5.464   2.792  20.594  0.00  0.00    +0.000 HD
ENDROOT
BRANCH  11  13
ATOM     13  C   UNL     1       5.357   5.311  16.137  0.00  0.00    +0.000 A 
ATOM     14  C   UNL     1       6.425   6.064  16.568  0.00  0.00    +0.000 A 
ATOM     15  N   UNL     1       7.415   5.949  15.625  0.00  0.00    +0.000 N 
ATOM     16  C   UNL     1       6.988   5.173  14.568  0.00  0.00    +0.000 A 
ATOM     17  C   UNL     1       7.662   4.771  13.408  0.00  0.00    +0.000 A 
ATOM     18  C   UNL     1       6.972   3.952  12.509  0.00  0.00    +0.000 A 
ATOM     19  C   UNL     1       5.661   3.554  12.758  0.00  0.00    +0.000 A 
ATOM     20  C   UNL     1       5.006   3.957  13.928  0.00  0.00    +0.000 A 
ATOM     21  C   UNL     1       5.681   4.778  14.854  0.00  0.00    +0.000 A 
ATOM     22  H   UNL     1       8.343   6.340  15.706  0.00  0.00    +0.000 HD
ENDBRANCH  11  13
TORSDOF 1
ENDMDL
MODEL 4
REMARK VINA RESULT:      -8.8      0.965      6.635
REMARK  Name = 
REMARK  1 active torsions:
REMARK  status: ('A' for Active; 'I' for Inactive)
REMARK    1  A    between atoms: C_11  and  C_12
REMARK                            x       y       z     vdW  Elec       q    Type
REMARK                         _______ _______ _______ _____ _____    ______ ____
ROOT
ATOM      1  O   UNL     1       6.370   6.124  17.584  0.00  0.00    +0.000 OA
ATOM      2  C   UNL     1       6.323   5.626  16.474  0.00  0.00    +0.000 C 
ATOM      3  N   UNL     1       7.317   5.716  15.515  0.00  0.00    +0.000 N 
ATOM      4  C   UNL     1       6.988   5.002  14.372  0.00  0.00    +0.000 A 
ATOM      5  C   UNL     1       7.764   4.882  13.238  0.00  0.00    +0.000 A 
ATOM      6  C   UNL     1       7.248   4.127  12.187  0.00  0.00    +0.000 A 
ATOM      7  C   UNL     1       5.979   3.525  12.295  0.00  0.00    +0.000 A 
ATOM      8  C   UNL     1       5.207   3.659  13.460  0.00  0.00    +0.000 A 
ATOM      9  C   UNL     1       5.732   4.398  14.507  0.00  0.00    +0.000 A 
ATOM     10  C   UNL     1       5.248   4.770  15.844  0.00  0.00    +0.000 C 
ATOM     11  C   UNL     1       4.077   4.449  16.418  0.00  0.00    +0.000 C 
ATOM     12  H   UNL     1       8.167   6.232  15.672  0.00  0.00    +0.000 HD
ENDROOT
BRANCH  11  13
ATOM     13  C   UNL     1       3.629   4.955  17.674  0.00  0.00    +0.000 A 
ATOM     14  C   UNL     1       3.317   6.269  17.938  0.00  0.00    +0.000 A 
ATOM     15  N   UNL     1       2.784   6.318  19.202  0.00  0.00    +0.000 N 
ATOM     16  C   UNL     1       2.791   5.066  19.778  0.00  0.00    +0.000 A 
ATOM     17  C   UNL     1       2.328   4.640  21.029  0.00  0.00    +0.000 A 
ATOM     18  C   UNL     1       2.448   3.282  21.338  0.00  0.00    +0.000 A 
ATOM     19  C   UNL     1       3.011   2.386  20.433  0.00  0.00    +0.000 A 
ATOM     20  C   UNL     1       3.459   2.825  19.182  0.00  0.00    +0.000 A 
ATOM     21  C   UNL     1       3.344   4.189  18.843  0.00  0.00    +0.000 A 
ATOM     22  H   UNL     1       2.400   7.144  19.639  0.00  0.00    +0.000 HD
ENDBRANCH  11  13
TORSDOF 1
ENDMDL
MODEL 5
REMARK VINA RESULT:      -8.5      1.045      1.142
REMARK  Name = 
REMARK  1 active torsions:
REMARK  status: ('A' for Active; 'I' for Inactive)
REMARK    1  A    between atoms: C_11  and  C_12
REMARK                            x       y       z     vdW  Elec       q    Type
REMARK                         _______ _______ _______ _____ _____    ______ ____
ROOT
ATOM      1  O   UNL     1       3.648   6.365  17.134  0.00  0.00    +0.000 OA
ATOM      2  C   UNL     1       3.382   5.577  18.023  0.00  0.00    +0.000 C 
ATOM      3  N   UNL     1       2.247   5.616  18.813  0.00  0.00    +0.000 N 
ATOM      4  C   UNL     1       2.210   4.555  19.706  0.00  0.00    +0.000 A 
ATOM      5  C   UNL     1       1.212   4.300  20.623  0.00  0.00    +0.000 A 
ATOM      6  C   UNL     1       1.367   3.183  21.441  0.00  0.00    +0.000 A 
ATOM      7  C   UNL     1       2.508   2.364  21.326  0.00  0.00    +0.000 A 
ATOM      8  C   UNL     1       3.510   2.643  20.383  0.00  0.00    +0.000 A 
ATOM      9  C   UNL     1       3.343   3.745  19.562  0.00  0.00    +0.000 A 
ATOM     10  C   UNL     1       4.143   4.359  18.493  0.00  0.00    +0.000 C 
ATOM     11  C   UNL     1       5.333   3.955  18.016  0.00  0.00    +0.000 C 
ATOM     12  H   UNL     1       1.549   6.334  18.711  0.00  0.00    +0.000 HD
ENDROOT
BRANCH  11  13
ATOM     13  C   UNL     1       6.105   4.679  17.060  0.00  0.00    +0.000 A 
ATOM     14  C   UNL     1       7.007   5.675  17.355  0.00  0.00    +0.000 A 
ATOM     15  N   UNL     1       7.649   6.006  16.187  0.00  0.00    +0.000 N 
ATOM     16  C   UNL     1       7.142   5.275  15.134  0.00  0.00    +0.000 A 
ATOM     17  C   UNL     1       7.505   5.262  13.781  0.00  0.00    +0.000 A 
ATOM     18  C   UNL     1       6.819   4.387  12.934  0.00  0.00    +0.000 A 
ATOM     19  C   UNL     1       5.809   3.560  13.419  0.00  0.00    +0.000 A 
ATOM     20  C   UNL     1       5.466   3.577  14.776  0.00  0.00    +0.000 A 
ATOM     21  C   UNL     1       6.146   4.447  15.653  0.00  0.00    +0.000 A 
ATOM     22  H   UNL     1       8.414   6.661  16.110  0.00  0.00    +0.000 HD
ENDBRANCH  11  13
TORSDOF 1
ENDMDL
MODEL 6
REMARK VINA RESULT:      -8.2      3.337      5.638
REMARK  Name = 
REMARK  1 active torsions:
REMARK  status: ('A' for Active; 'I' for Inactive)
REMARK    1  A    between atoms: C_11  and  C_12
REMARK                            x       y       z     vdW  Elec       q    Type
REMARK                         _______ _______ _______ _____ _____    ______ ____
ROOT
ATOM      1  O   UNL     1       2.785   5.608  20.663  0.00  0.00    +0.000 OA
ATOM      2  C   UNL     1       2.345   6.661  20.240  0.00  0.00    +0.000 C 
ATOM      3  N   UNL     1       1.642   7.591  20.986  0.00  0.00    +0.000 N 
ATOM      4  C   UNL     1       1.318   8.709  20.232  0.00  0.00    +0.000 A 
ATOM      5  C   UNL     1       0.630   9.818  20.679  0.00  0.00    +0.000 A 
ATOM      6  C   UNL     1       0.393  10.836  19.758  0.00  0.00    +0.000 A 
ATOM      7  C   UNL     1       0.840  10.716  18.427  0.00  0.00    +0.000 A 
ATOM      8  C   UNL     1       1.541   9.579  17.996  0.00  0.00    +0.000 A 
ATOM      9  C   UNL     1       1.787   8.577  18.919  0.00  0.00    +0.000 A 
ATOM     10  C   UNL     1       2.454   7.269  18.861  0.00  0.00    +0.000 C 
ATOM     11  C   UNL     1       3.039   6.686  17.800  0.00  0.00    +0.000 C 
ATOM     12  H   UNL     1       1.426   7.444  21.958  0.00  0.00    +0.000 HD
ENDROOT
BRANCH  11  13
ATOM     13  C   UNL     1       3.557   5.357  17.795  0.00  0.00    +0.000 A 
ATOM     14  C   UNL     1       4.886   5.022  17.678  0.00  0.00    +0.000 A 
ATOM     15  N   UNL     1       4.986   3.667  17.873  0.00  0.00    +0.000 N 
ATOM     16  C   UNL     1       3.738   3.114  18.066  0.00  0.00    +0.000 A 
ATOM     17  C   UNL     1       3.363   1.790  18.324  0.00  0.00    +0.000 A 
ATOM     18  C   UNL     1       2.001   1.524  18.500  0.00  0.00    +0.000 A 
ATOM     19  C   UNL     1       1.054   2.541  18.420  0.00  0.00    +0.000 A 
ATOM     20  C   UNL     1       1.446   3.861  18.173  0.00  0.00    +0.000 A 
ATOM     21  C   UNL     1       2.814   4.157  17.996  0.00  0.00    +0.000 A 
ATOM     22  H   UNL     1       5.851   3.147  17.913  0.00  0.00    +0.000 HD
ENDBRANCH  11  13
TORSDOF 1
ENDMDL
MODEL 7
REMARK VINA RESULT:      -8.2      1.573      6.651
REMARK  Name = 
REMARK  1 active torsions:
REMARK  status: ('A' for Active; 'I' for Inactive)
REMARK    1  A    between atoms: C_11  and  C_12
REMARK                            x       y       z     vdW  Elec       q    Type
REMARK                         _______ _______ _______ _____ _____    ______ ____
ROOT
ATOM      1  O   UNL     1       6.101   4.490  18.864  0.00  0.00    +0.000 OA
ATOM      2  C   UNL     1       6.189   4.487  17.650  0.00  0.00    +0.000 C 
ATOM      3  N   UNL     1       7.265   4.968  16.925  0.00  0.00    +0.000 N 
ATOM      4  C   UNL     1       7.087   4.780  15.562  0.00  0.00    +0.000 A 
ATOM      5  C   UNL     1       7.975   5.139  14.570  0.00  0.00    +0.000 A 
ATOM      6  C   UNL     1       7.604   4.873  13.254  0.00  0.00    +0.000 A 
ATOM      7  C   UNL     1       6.364   4.269  12.968  0.00  0.00    +0.000 A 
ATOM      8  C   UNL     1       5.477   3.911  13.995  0.00  0.00    +0.000 A 
ATOM      9  C   UNL     1       5.857   4.163  15.301  0.00  0.00    +0.000 A 
ATOM     10  C   UNL     1       5.227   3.954  16.613  0.00  0.00    +0.000 C 
ATOM     11  C   UNL     1       4.023   3.417  16.875  0.00  0.00    +0.000 C 
ATOM     12  H   UNL     1       8.067   5.383  17.370  0.00  0.00    +0.000 HD
ENDROOT
BRANCH  11  13
ATOM     13  C   UNL     1       3.430   3.363  18.171  0.00  0.00    +0.000 A 
ATOM     14  C   UNL     1       3.406   2.258  18.989  0.00  0.00    +0.000 A 
ATOM     15  N   UNL     1       2.888   2.654  20.198  0.00  0.00    +0.000 N 
ATOM     16  C   UNL     1       2.533   3.985  20.157  0.00  0.00    +0.000 A 
ATOM     17  C   UNL     1       1.996   4.811  21.153  0.00  0.00    +0.000 A 
ATOM     18  C   UNL     1       1.754   6.149  20.825  0.00  0.00    +0.000 A 
ATOM     19  C   UNL     1       2.035   6.640  19.553  0.00  0.00    +0.000 A 
ATOM     20  C   UNL     1       2.582   5.804  18.573  0.00  0.00    +0.000 A 
ATOM     21  C   UNL     1       2.841   4.452  18.879  0.00  0.00    +0.000 A 
ATOM     22  H   UNL     1       2.814   2.069  21.018  0.00  0.00    +0.000 HD
ENDBRANCH  11  13
TORSDOF 1
ENDMDL
MODEL 8
REMARK VINA RESULT:      -8.1      5.044      8.007
REMARK  Name = 
REMARK  1 active torsions:
REMARK  status: ('A' for Active; 'I' for Inactive)
REMARK    1  A    between atoms: C_11  and  C_12
REMARK                            x       y       z     vdW  Elec       q    Type
REMARK                         _______ _______ _______ _____ _____    ______ ____
ROOT
ATOM      1  O   UNL     1       0.975   8.309  20.737  0.00  0.00    +0.000 OA
ATOM      2  C   UNL     1       1.789   7.761  20.017  0.00  0.00    +0.000 C 
ATOM      3  N   UNL     1       2.488   6.609  20.333  0.00  0.00    +0.000 N 
ATOM      4  C   UNL     1       3.306   6.206  19.287  0.00  0.00    +0.000 A 
ATOM      5  C   UNL     1       4.124   5.095  19.278  0.00  0.00    +0.000 A 
ATOM      6  C   UNL     1       4.880   4.868  18.130  0.00  0.00    +0.000 A 
ATOM      7  C   UNL     1       4.803   5.753  17.036  0.00  0.00    +0.000 A 
ATOM      8  C   UNL     1       3.961   6.876  17.068  0.00  0.00    +0.000 A 
ATOM      9  C   UNL     1       3.201   7.088  18.205  0.00  0.00    +0.000 A 
ATOM     10  C   UNL     1       2.239   8.120  18.620  0.00  0.00    +0.000 C 
ATOM     11  C   UNL     1       1.833   9.196  17.926  0.00  0.00    +0.000 C 
ATOM     12  H   UNL     1       2.378   6.142  21.218  0.00  0.00    +0.000 HD
ENDROOT
BRANCH  11  13
ATOM     13  C   UNL     1       0.988  10.220  18.449  0.00  0.00    +0.000 A 
ATOM     14  C   UNL     1       1.406  11.279  19.220  0.00  0.00    +0.000 A 
ATOM     15  N   UNL     1       0.329  12.114  19.388  0.00  0.00    +0.000 N 
ATOM     16  C   UNL     1      -0.789  11.587  18.779  0.00  0.00    +0.000 A 
ATOM     17  C   UNL     1      -2.089  12.098  18.671  0.00  0.00    +0.000 A 
ATOM     18  C   UNL     1      -3.027  11.341  17.963  0.00  0.00    +0.000 A 
ATOM     19  C   UNL     1      -2.680  10.121  17.388  0.00  0.00    +0.000 A 
ATOM     20  C   UNL     1      -1.374   9.630  17.495  0.00  0.00    +0.000 A 
ATOM     21  C   UNL     1      -0.407  10.377  18.199  0.00  0.00    +0.000 A 
ATOM     22  H   UNL     1       0.355  13.010  19.854  0.00  0.00    +0.000 HD
ENDBRANCH  11  13
TORSDOF 1
ENDMDL
MODEL 9
REMARK VINA RESULT:      -7.9      3.731      6.053
REMARK  Name = 
REMARK  1 active torsions:
REMARK  status: ('A' for Active; 'I' for Inactive)
REMARK    1  A    between atoms: C_11  and  C_12
REMARK                            x       y       z     vdW  Elec       q    Type
REMARK                         _______ _______ _______ _____ _____    ______ ____
ROOT
ATOM      1  O   UNL     1       2.323   7.987  17.702  0.00  0.00    +0.000 OA
ATOM      2  C   UNL     1       1.834   8.463  18.710  0.00  0.00    +0.000 C 
ATOM      3  N   UNL     1       1.252   9.715  18.803  0.00  0.00    +0.000 N 
ATOM      4  C   UNL     1       0.745   9.949  20.073  0.00  0.00    +0.000 A 
ATOM      5  C   UNL     1       0.097  11.093  20.490  0.00  0.00    +0.000 A 
ATOM      6  C   UNL     1      -0.329  11.138  21.816  0.00  0.00    +0.000 A 
ATOM      7  C   UNL     1      -0.092  10.051  22.681  0.00  0.00    +0.000 A 
ATOM      8  C   UNL     1       0.568   8.896  22.232  0.00  0.00    +0.000 A 
ATOM      9  C   UNL     1       0.976   8.851  20.910  0.00  0.00    +0.000 A 
ATOM     10  C   UNL     1       1.683   7.859  20.088  0.00  0.00    +0.000 C 
ATOM     11  C   UNL     1       2.140   6.652  20.460  0.00  0.00    +0.000 C 
ATOM     12  H   UNL     1       1.208  10.344  18.018  0.00  0.00    +0.000 HD
ENDROOT
BRANCH  11  13
ATOM     13  C   UNL     1       2.928   5.798  19.632  0.00  0.00    +0.000 A 
ATOM     14  C   UNL     1       4.254   5.994  19.322  0.00  0.00    +0.000 A 
ATOM     15  N   UNL     1       4.684   4.884  18.639  0.00  0.00    +0.000 N 
ATOM     16  C   UNL     1       3.645   3.995  18.461  0.00  0.00    +0.000 A 
ATOM     17  C   UNL     1       3.625   2.734  17.851  0.00  0.00    +0.000 A 
ATOM     18  C   UNL     1       2.411   2.039  17.838  0.00  0.00    +0.000 A 
ATOM     19  C   UNL     1       1.265   2.584  18.410  0.00  0.00    +0.000 A 
ATOM     20  C   UNL     1       1.305   3.840  19.025  0.00  0.00    +0.000 A 
ATOM     21  C   UNL     1       2.517   4.560  19.057  0.00  0.00    +0.000 A 
ATOM     22  H   UNL     1       5.634   4.715  18.343  0.00  0.00    +0.000 HD
ENDBRANCH  11  13
TORSDOF 1
ENDMDL
