MODEL 1
REMARK VINA RESULT:      -7.3      0.000      0.000
REMARK  Name = 
REMARK  6 active torsions:
REMARK  status: ('A' for Active; 'I' for Inactive)
REMARK    1  A    between atoms: C_1  and  C_2
REMARK    2  A    between atoms: C_8  and  N_9
REMARK    3  A    between atoms: N_12  and  C_13
REMARK    4  A    between atoms: N_18  and  C_19
REMARK    5  A    between atoms: C_22  and  S_23
REMARK    6  A    between atoms: S_23  and  N_24
REMARK                            x       y       z     vdW  Elec       q    Type
REMARK                         _______ _______ _______ _____ _____    ______ ____
ROOT
ATOM      1  C   UNL     1      -4.407  12.274  24.641  0.00  0.00    +0.000 C 
ATOM      2  C   UNL     1      -3.416  13.267  24.177  0.00  0.00    +0.000 A 
ATOM      3  C   UNL     1      -2.569  13.259  23.110  0.00  0.00    +0.000 A 
ATOM      4  C   UNL     1      -1.840  14.463  23.188  0.00  0.00    +0.000 A 
ATOM      5  N   UNL     1      -0.836  14.838  22.383  0.00  0.00    +0.000 N 
ATOM      6  C   UNL     1      -0.026  14.032  21.558  0.00  0.00    +0.000 A 
ATOM      7  C   UNL     1       1.217  14.518  21.242  0.00  0.00    +0.000 A 
ATOM      8  C   UNL     1       2.007  13.775  20.401  0.00  0.00    +0.000 A 
ATOM      9  N   UNL     1       1.602  12.585  19.966  0.00  0.00    +0.000 NA
ATOM     10  C   UNL     1       0.383  12.147  20.323  0.00  0.00    +0.000 A 
ATOM     11  N   UNL     1      -0.071  10.943  19.793  0.00  0.00    +0.000 N 
ATOM     12  N   UNL     1      -0.447  12.839  21.100  0.00  0.00    +0.000 NA
ATOM     13  N   UNL     1      -2.235  15.203  24.229  0.00  0.00    +0.000 NA
ATOM     14  N   UNL     1      -3.176  14.448  24.820  0.00  0.00    +0.000 N 
ATOM     15  H   UNL     1      -0.429  15.740  22.598  0.00  0.00    +0.000 HD
ATOM     16  H   UNL     1      -1.044  10.786  19.998  0.00  0.00    +0.000 HD
ATOM     17  H   UNL     1      -3.613  14.805  25.665  0.00  0.00    +0.000 HD
ENDROOT
BRANCH   8  18
ATOM     18  N   UNL     1       3.239  14.259  20.045  0.00  0.00    +0.000 N 
ATOM     19  C   UNL     1       4.293  14.451  21.039  0.00  0.00    +0.000 C 
ATOM     20  C   UNL     1       5.044  15.753  20.661  0.00  0.00    +0.000 C 
ATOM     21  N   UNL     1       5.577  15.715  19.274  0.00  0.00    +0.000 NA
ATOM     22  C   UNL     1       6.260  16.960  18.950  0.00  0.00    +0.000 C 
ATOM     23  C   UNL     1       4.471  15.458  18.323  0.00  0.00    +0.000 C 
ATOM     24  C   UNL     1       3.700  14.167  18.659  0.00  0.00    +0.000 C 
ENDBRANCH   8  18
BRANCH  11  25
ATOM     25  C   UNL     1       0.707   9.830  19.463  0.00  0.00    +0.000 A 
ATOM     26  C   UNL     1       1.128   9.593  18.143  0.00  0.00    +0.000 A 
ATOM     27  C   UNL     1       1.923   8.500  17.829  0.00  0.00    +0.000 A 
ATOM     28  C   UNL     1       2.281   7.612  18.840  0.00  0.00    +0.000 A 
ATOM     29  C   UNL     1       1.821   7.783  20.146  0.00  0.00    +0.000 A 
ATOM     30  C   UNL     1       1.038   8.900  20.453  0.00  0.00    +0.000 A 
BRANCH  28  31
ATOM     31  S   UNL     1       3.416   6.321  18.460  0.00  0.00    +0.000 S 
ATOM     32  O   UNL     1       4.260   6.738  17.361  0.00  0.00    +0.000 OA
ATOM     33  O   UNL     1       3.948   5.766  19.680  0.00  0.00    +0.000 OA
BRANCH  31  34
ATOM     34  N   UNL     1       2.346   5.190  17.841  0.00  0.00    +0.000 NA
ATOM     35  H   UNL     1       2.483   5.032  16.844  0.00  0.00    +0.000 HD
ATOM     36  H   UNL     1       2.286   4.358  18.428  0.00  0.00    +0.000 HD
ENDBRANCH  31  34
ENDBRANCH  28  31
ENDBRANCH  11  25
TORSDOF 4
ENDMDL
MODEL 2
REMARK VINA RESULT:      -7.2      0.954      1.601
REMARK  Name = 
REMARK  6 active torsions:
REMARK  status: ('A' for Active; 'I' for Inactive)
REMARK    1  A    between atoms: C_1  and  C_2
REMARK    2  A    between atoms: C_8  and  N_9
REMARK    3  A    between atoms: N_12  and  C_13
REMARK    4  A    between atoms: N_18  and  C_19
REMARK    5  A    between atoms: C_22  and  S_23
REMARK    6  A    between atoms: S_23  and  N_24
REMARK                            x       y       z     vdW  Elec       q    Type
REMARK                         _______ _______ _______ _____ _____    ______ ____
ROOT
ATOM      1  C   UNL     1      -4.622  12.258  24.816  0.00  0.00    +0.000 C 
ATOM      2  C   UNL     1      -3.751  13.310  24.251  0.00  0.00    +0.000 A 
ATOM      3  C   UNL     1      -2.959  13.320  23.142  0.00  0.00    +0.000 A 
ATOM      4  C   UNL     1      -2.342  14.586  23.120  0.00  0.00    +0.000 A 
ATOM      5  N   UNL     1      -1.417  15.006  22.245  0.00  0.00    +0.000 N 
ATOM      6  C   UNL     1      -0.575  14.232  21.421  0.00  0.00    +0.000 A 
ATOM      7  C   UNL     1       0.600  14.810  21.016  0.00  0.00    +0.000 A 
ATOM      8  C   UNL     1       1.415  14.096  20.173  0.00  0.00    +0.000 A 
ATOM      9  N   UNL     1       1.102  12.851  19.822  0.00  0.00    +0.000 NA
ATOM     10  C   UNL     1      -0.052  12.326  20.263  0.00  0.00    +0.000 A 
ATOM     11  N   UNL     1      -0.418  11.058  19.820  0.00  0.00    +0.000 N 
ATOM     12  N   UNL     1      -0.905  12.982  21.047  0.00  0.00    +0.000 NA
ATOM     13  N   UNL     1      -2.754  15.344  24.141  0.00  0.00    +0.000 NA
ATOM     14  N   UNL     1      -3.591  14.541  24.819  0.00  0.00    +0.000 N 
ATOM     15  H   UNL     1      -1.086  15.951  22.393  0.00  0.00    +0.000 HD
ATOM     16  H   UNL     1      -1.361  10.826  20.084  0.00  0.00    +0.000 HD
ATOM     17  H   UNL     1      -4.019  14.903  25.666  0.00  0.00    +0.000 HD
ENDROOT
BRANCH   8  18
ATOM     18  N   UNL     1       2.579  14.668  19.730  0.00  0.00    +0.000 N 
ATOM     19  C   UNL     1       2.644  15.347  18.438  0.00  0.00    +0.000 C 
ATOM     20  C   UNL     1       4.023  15.012  17.815  0.00  0.00    +0.000 C 
ATOM     21  N   UNL     1       5.151  15.388  18.708  0.00  0.00    +0.000 NA
ATOM     22  C   UNL     1       6.428  15.043  18.098  0.00  0.00    +0.000 C 
ATOM     23  C   UNL     1       4.995  14.715  20.018  0.00  0.00    +0.000 C 
ATOM     24  C   UNL     1       3.636  15.027  20.676  0.00  0.00    +0.000 C 
ENDBRANCH   8  18
BRANCH  11  25
ATOM     25  C   UNL     1       0.444  10.004  19.507  0.00  0.00    +0.000 A 
ATOM     26  C   UNL     1       0.958   9.155  20.502  0.00  0.00    +0.000 A 
ATOM     27  C   UNL     1       1.791   8.093  20.179  0.00  0.00    +0.000 A 
ATOM     28  C   UNL     1       2.142   7.890  18.846  0.00  0.00    +0.000 A 
ATOM     29  C   UNL     1       1.703   8.757  17.846  0.00  0.00    +0.000 A 
ATOM     30  C   UNL     1       0.847   9.811  18.182  0.00  0.00    +0.000 A 
BRANCH  28  31
ATOM     31  S   UNL     1       3.069   6.451  18.433  0.00  0.00    +0.000 S 
ATOM     32  O   UNL     1       2.181   5.462  17.861  0.00  0.00    +0.000 OA
ATOM     33  O   UNL     1       4.309   6.834  17.806  0.00  0.00    +0.000 OA
BRANCH  31  34
ATOM     34  N   UNL     1       3.450   5.919  19.976  0.00  0.00    +0.000 NA
ATOM     35  H   UNL     1       4.419   5.615  20.052  0.00  0.00    +0.000 HD
ATOM     36  H   UNL     1       3.118   6.562  20.695  0.00  0.00    +0.000 HD
ENDBRANCH  31  34
ENDBRANCH  28  31
ENDBRANCH  11  25
TORSDOF 4
ENDMDL
MODEL 3
REMARK VINA RESULT:      -7.0      0.613      1.071
REMARK  Name = 
REMARK  6 active torsions:
REMARK  status: ('A' for Active; 'I' for Inactive)
REMARK    1  A    between atoms: C_1  and  C_2
REMARK    2  A    between atoms: C_8  and  N_9
REMARK    3  A    between atoms: N_12  and  C_13
REMARK    4  A    between atoms: N_18  and  C_19
REMARK    5  A    between atoms: C_22  and  S_23
REMARK    6  A    between atoms: S_23  and  N_24
REMARK                            x       y       z     vdW  Elec       q    Type
REMARK                         _______ _______ _______ _____ _____    ______ ____
ROOT
ATOM      1  C   UNL     1      -4.508  12.308  24.852  0.00  0.00    +0.000 C 
ATOM      2  C   UNL     1      -3.588  13.333  24.317  0.00  0.00    +0.000 A 
ATOM      3  C   UNL     1      -2.788  13.333  23.214  0.00  0.00    +0.000 A 
ATOM      4  C   UNL     1      -2.115  14.572  23.226  0.00  0.00    +0.000 A 
ATOM      5  N   UNL     1      -1.167  14.970  22.367  0.00  0.00    +0.000 N 
ATOM      6  C   UNL     1      -0.353  14.179  21.530  0.00  0.00    +0.000 A 
ATOM      7  C   UNL     1       0.849  14.714  21.147  0.00  0.00    +0.000 A 
ATOM      8  C   UNL     1       1.639  13.984  20.293  0.00  0.00    +0.000 A 
ATOM      9  N   UNL     1       1.274  12.763  19.911  0.00  0.00    +0.000 NA
ATOM     10  C   UNL     1       0.095  12.278  20.333  0.00  0.00    +0.000 A 
ATOM     11  N   UNL     1      -0.322  11.039  19.858  0.00  0.00    +0.000 N 
ATOM     12  N   UNL     1      -0.734  12.953  21.125  0.00  0.00    +0.000 NA
ATOM     13  N   UNL     1      -2.502  15.323  24.261  0.00  0.00    +0.000 NA
ATOM     14  N   UNL     1      -3.379  14.543  24.915  0.00  0.00    +0.000 N 
ATOM     15  H   UNL     1      -0.796  15.896  22.538  0.00  0.00    +0.000 HD
ATOM     16  H   UNL     1      -1.276  10.842  20.111  0.00  0.00    +0.000 HD
ATOM     17  H   UNL     1      -3.797  14.904  25.767  0.00  0.00    +0.000 HD
ENDROOT
BRANCH   8  18
ATOM     18  N   UNL     1       2.830  14.515  19.870  0.00  0.00    +0.000 N 
ATOM     19  C   UNL     1       3.069  14.810  18.460  0.00  0.00    +0.000 C 
ATOM     20  C   UNL     1       4.545  14.444  18.161  0.00  0.00    +0.000 C 
ATOM     21  N   UNL     1       5.495  15.156  19.056  0.00  0.00    +0.000 NA
ATOM     22  C   UNL     1       6.868  14.773  18.757  0.00  0.00    +0.000 C 
ATOM     23  C   UNL     1       5.163  14.863  20.469  0.00  0.00    +0.000 C 
ATOM     24  C   UNL     1       3.703  15.219  20.811  0.00  0.00    +0.000 C 
ENDBRANCH   8  18
BRANCH  11  25
ATOM     25  C   UNL     1       0.495   9.955  19.526  0.00  0.00    +0.000 A 
ATOM     26  C   UNL     1       0.897   9.716  18.200  0.00  0.00    +0.000 A 
ATOM     27  C   UNL     1       1.731   8.653  17.884  0.00  0.00    +0.000 A 
ATOM     28  C   UNL     1       2.148   7.795  18.899  0.00  0.00    +0.000 A 
ATOM     29  C   UNL     1       1.711   7.967  20.212  0.00  0.00    +0.000 A 
ATOM     30  C   UNL     1       0.887   9.054  20.522  0.00  0.00    +0.000 A 
BRANCH  28  31
ATOM     31  S   UNL     1       3.329   6.548  18.511  0.00  0.00    +0.000 S 
ATOM     32  O   UNL     1       4.186   7.019  17.446  0.00  0.00    +0.000 OA
ATOM     33  O   UNL     1       3.847   5.973  19.728  0.00  0.00    +0.000 OA
BRANCH  31  34
ATOM     34  N   UNL     1       2.306   5.405  17.835  0.00  0.00    +0.000 NA
ATOM     35  H   UNL     1       2.117   5.589  16.852  0.00  0.00    +0.000 HD
ATOM     36  H   UNL     1       2.584   4.453  18.074  0.00  0.00    +0.000 HD
ENDBRANCH  31  34
ENDBRANCH  28  31
ENDBRANCH  11  25
TORSDOF 4
ENDMDL
MODEL 4
REMARK VINA RESULT:      -6.8      1.753      1.965
REMARK  Name = 
REMARK  6 active torsions:
REMARK  status: ('A' for Active; 'I' for Inactive)
REMARK    1  A    between atoms: C_1  and  C_2
REMARK    2  A    between atoms: C_8  and  N_9
REMARK    3  A    between atoms: N_12  and  C_13
REMARK    4  A    between atoms: N_18  and  C_19
REMARK    5  A    between atoms: C_22  and  S_23
REMARK    6  A    between atoms: S_23  and  N_24
REMARK                            x       y       z     vdW  Elec       q    Type
REMARK                         _______ _______ _______ _____ _____    ______ ____
ROOT
ATOM      1  C   UNL     1      -5.807  12.298  21.436  0.00  0.00    +0.000 C 
ATOM      2  C   UNL     1      -4.716  13.272  21.220  0.00  0.00    +0.000 A 
ATOM      3  C   UNL     1      -3.539  13.166  20.542  0.00  0.00    +0.000 A 
ATOM      4  C   UNL     1      -2.889  14.406  20.701  0.00  0.00    +0.000 A 
ATOM      5  N   UNL     1      -1.662  14.723  20.265  0.00  0.00    +0.000 N 
ATOM      6  C   UNL     1      -0.606  13.858  19.914  0.00  0.00    +0.000 A 
ATOM      7  C   UNL     1       0.665  14.364  19.999  0.00  0.00    +0.000 A 
ATOM      8  C   UNL     1       1.709  13.557  19.616  0.00  0.00    +0.000 A 
ATOM      9  N   UNL     1       1.491  12.299  19.244  0.00  0.00    +0.000 NA
ATOM     10  C   UNL     1       0.227  11.848  19.198  0.00  0.00    +0.000 A 
ATOM     11  N   UNL     1      -0.002  10.561  18.722  0.00  0.00    +0.000 N 
ATOM     12  N   UNL     1      -0.830  12.593  19.514  0.00  0.00    +0.000 NA
ATOM     13  N   UNL     1      -3.637  15.258  21.410  0.00  0.00    +0.000 NA
ATOM     14  N   UNL     1      -4.728  14.540  21.727  0.00  0.00    +0.000 N 
ATOM     15  H   UNL     1      -1.363  15.666  20.478  0.00  0.00    +0.000 HD
ATOM     16  H   UNL     1      -0.983  10.380  18.585  0.00  0.00    +0.000 HD
ATOM     17  H   UNL     1      -5.443  14.984  22.296  0.00  0.00    +0.000 HD
ENDROOT
BRANCH   8  18
ATOM     18  N   UNL     1       2.985  14.055  19.661  0.00  0.00    +0.000 N 
ATOM     19  C   UNL     1       3.727  14.126  20.918  0.00  0.00    +0.000 C 
ATOM     20  C   UNL     1       4.536  15.447  20.897  0.00  0.00    +0.000 C 
ATOM     21  N   UNL     1       5.426  15.544  19.710  0.00  0.00    +0.000 NA
ATOM     22  C   UNL     1       6.156  16.804  19.715  0.00  0.00    +0.000 C 
ATOM     23  C   UNL     1       4.624  15.406  18.473  0.00  0.00    +0.000 C 
ATOM     24  C   UNL     1       3.806  14.099  18.451  0.00  0.00    +0.000 C 
ENDBRANCH   8  18
BRANCH  11  25
ATOM     25  C   UNL     1       0.844   9.457  18.860  0.00  0.00    +0.000 A 
ATOM     26  C   UNL     1       1.007   8.806  20.096  0.00  0.00    +0.000 A 
ATOM     27  C   UNL     1       1.828   7.694  20.218  0.00  0.00    +0.000 A 
ATOM     28  C   UNL     1       2.522   7.240  19.099  0.00  0.00    +0.000 A 
ATOM     29  C   UNL     1       2.433   7.906  17.877  0.00  0.00    +0.000 A 
ATOM     30  C   UNL     1       1.586   9.013  17.761  0.00  0.00    +0.000 A 
BRANCH  28  31
ATOM     31  S   UNL     1       3.434   5.739  19.230  0.00  0.00    +0.000 S 
ATOM     32  O   UNL     1       2.949   4.801  18.242  0.00  0.00    +0.000 OA
ATOM     33  O   UNL     1       4.835   6.035  19.398  0.00  0.00    +0.000 OA
BRANCH  31  34
ATOM     34  N   UNL     1       2.870   5.207  20.716  0.00  0.00    +0.000 NA
ATOM     35  H   UNL     1       3.534   4.594  21.184  0.00  0.00    +0.000 HD
ATOM     36  H   UNL     1       2.483   5.968  21.273  0.00  0.00    +0.000 HD
ENDBRANCH  31  34
ENDBRANCH  28  31
ENDBRANCH  11  25
TORSDOF 4
ENDMDL
MODEL 5
REMARK VINA RESULT:      -6.7      4.461      7.130
REMARK  Name = 
REMARK  6 active torsions:
REMARK  status: ('A' for Active; 'I' for Inactive)
REMARK    1  A    between atoms: C_1  and  C_2
REMARK    2  A    between atoms: C_8  and  N_9
REMARK    3  A    between atoms: N_12  and  C_13
REMARK    4  A    between atoms: N_18  and  C_19
REMARK    5  A    between atoms: C_22  and  S_23
REMARK    6  A    between atoms: S_23  and  N_24
REMARK                            x       y       z     vdW  Elec       q    Type
REMARK                         _______ _______ _______ _____ _____    ______ ____
ROOT
ATOM      1  C   UNL     1      -4.997  17.501  25.213  0.00  0.00    +0.000 C 
ATOM      2  C   UNL     1      -5.369  16.294  24.446  0.00  0.00    +0.000 A 
ATOM      3  C   UNL     1      -4.610  15.407  23.743  0.00  0.00    +0.000 A 
ATOM      4  C   UNL     1      -5.513  14.473  23.198  0.00  0.00    +0.000 A 
ATOM      5  N   UNL     1      -5.211  13.465  22.367  0.00  0.00    +0.000 N 
ATOM      6  C   UNL     1      -4.072  13.314  21.551  0.00  0.00    +0.000 A 
ATOM      7  C   UNL     1      -4.204  12.517  20.443  0.00  0.00    +0.000 A 
ATOM      8  C   UNL     1      -3.096  12.314  19.657  0.00  0.00    +0.000 A 
ATOM      9  N   UNL     1      -1.950  12.933  19.929  0.00  0.00    +0.000 NA
ATOM     10  C   UNL     1      -1.882  13.719  21.015  0.00  0.00    +0.000 A 
ATOM     11  N   UNL     1      -0.658  14.293  21.344  0.00  0.00    +0.000 N 
ATOM     12  N   UNL     1      -2.907  13.922  21.840  0.00  0.00    +0.000 NA
ATOM     13  N   UNL     1      -6.769  14.738  23.571  0.00  0.00    +0.000 NA
ATOM     14  N   UNL     1      -6.655  15.855  24.310  0.00  0.00    +0.000 N 
ATOM     15  H   UNL     1      -5.999  12.899  22.077  0.00  0.00    +0.000 HD
ATOM     16  H   UNL     1      -0.680  14.731  22.251  0.00  0.00    +0.000 HD
ATOM     17  H   UNL     1      -7.503  16.264  24.690  0.00  0.00    +0.000 HD
ENDROOT
BRANCH   8  18
ATOM     18  N   UNL     1      -3.197  11.494  18.564  0.00  0.00    +0.000 N 
ATOM     19  C   UNL     1      -2.188  10.475  18.285  0.00  0.00    +0.000 C 
ATOM     20  C   UNL     1      -1.987  10.439  16.749  0.00  0.00    +0.000 C 
ATOM     21  N   UNL     1      -3.259  10.188  16.020  0.00  0.00    +0.000 NA
ATOM     22  C   UNL     1      -3.034  10.178  14.581  0.00  0.00    +0.000 C 
ATOM     23  C   UNL     1      -4.257  11.218  16.390  0.00  0.00    +0.000 C 
ATOM     24  C   UNL     1      -4.491  11.283  17.912  0.00  0.00    +0.000 C 
ENDBRANCH   8  18
BRANCH  11  25
ATOM     25  C   UNL     1       0.338  14.702  20.454  0.00  0.00    +0.000 A 
ATOM     26  C   UNL     1       0.166  15.823  19.624  0.00  0.00    +0.000 A 
ATOM     27  C   UNL     1       1.171  16.239  18.762  0.00  0.00    +0.000 A 
ATOM     28  C   UNL     1       2.356  15.510  18.703  0.00  0.00    +0.000 A 
ATOM     29  C   UNL     1       2.529  14.354  19.465  0.00  0.00    +0.000 A 
ATOM     30  C   UNL     1       1.517  13.957  20.345  0.00  0.00    +0.000 A 
BRANCH  28  31
ATOM     31  S   UNL     1       3.679  16.136  17.725  0.00  0.00    +0.000 S 
ATOM     32  O   UNL     1       3.182  16.468  16.408  0.00  0.00    +0.000 OA
ATOM     33  O   UNL     1       4.472  17.051  18.509  0.00  0.00    +0.000 OA
BRANCH  31  34
ATOM     34  N   UNL     1       4.582  14.734  17.558  0.00  0.00    +0.000 NA
ATOM     35  H   UNL     1       4.000  13.917  17.387  0.00  0.00    +0.000 HD
ATOM     36  H   UNL     1       5.378  14.864  16.933  0.00  0.00    +0.000 HD
ENDBRANCH  31  34
ENDBRANCH  28  31
ENDBRANCH  11  25
TORSDOF 4
ENDMDL
MODEL 6
REMARK VINA RESULT:      -6.6      3.117      6.192
REMARK  Name = 
REMARK  6 active torsions:
REMARK  status: ('A' for Active; 'I' for Inactive)
REMARK    1  A    between atoms: C_1  and  C_2
REMARK    2  A    between atoms: C_8  and  N_9
REMARK    3  A    between atoms: N_12  and  C_13
REMARK    4  A    between atoms: N_18  and  C_19
REMARK    5  A    between atoms: C_22  and  S_23
REMARK    6  A    between atoms: S_23  and  N_24
REMARK                            x       y       z     vdW  Elec       q    Type
REMARK                         _______ _______ _______ _____ _____    ______ ____
ROOT
ATOM      1  C   UNL     1       4.910  14.879  21.717  0.00  0.00    +0.000 C 
ATOM      2  C   UNL     1       3.572  14.926  21.092  0.00  0.00    +0.000 A 
ATOM      3  C   UNL     1       2.632  13.957  20.909  0.00  0.00    +0.000 A 
ATOM      4  C   UNL     1       1.564  14.578  20.231  0.00  0.00    +0.000 A 
ATOM      5  N   UNL     1       0.455  13.979  19.775  0.00  0.00    +0.000 N 
ATOM      6  C   UNL     1       0.244  12.611  19.507  0.00  0.00    +0.000 A 
ATOM      7  C   UNL     1      -0.731  12.301  18.595  0.00  0.00    +0.000 A 
ATOM      8  C   UNL     1      -0.990  10.974  18.352  0.00  0.00    +0.000 A 
ATOM      9  N   UNL     1      -0.262  10.025  18.933  0.00  0.00    +0.000 NA
ATOM     10  C   UNL     1       0.695  10.385  19.803  0.00  0.00    +0.000 A 
ATOM     11  N   UNL     1       1.392   9.386  20.476  0.00  0.00    +0.000 N 
ATOM     12  N   UNL     1       0.965  11.651  20.114  0.00  0.00    +0.000 NA
ATOM     13  N   UNL     1       1.807  15.877  20.032  0.00  0.00    +0.000 NA
ATOM     14  N   UNL     1       3.035  16.057  20.547  0.00  0.00    +0.000 N 
ATOM     15  H   UNL     1      -0.200  14.592  19.307  0.00  0.00    +0.000 HD
ATOM     16  H   UNL     1       1.972   9.762  21.209  0.00  0.00    +0.000 HD
ATOM     17  H   UNL     1       3.446  16.983  20.488  0.00  0.00    +0.000 HD
ENDROOT
BRANCH   8  18
ATOM     18  N   UNL     1      -1.984  10.641  17.469  0.00  0.00    +0.000 N 
ATOM     19  C   UNL     1      -2.066   9.302  16.890  0.00  0.00    +0.000 C 
ATOM     20  C   UNL     1      -2.511   9.469  15.415  0.00  0.00    +0.000 C 
ATOM     21  N   UNL     1      -3.791  10.216  15.294  0.00  0.00    +0.000 NA
ATOM     22  C   UNL     1      -4.168  10.367  13.895  0.00  0.00    +0.000 C 
ATOM     23  C   UNL     1      -3.661  11.537  15.950  0.00  0.00    +0.000 C 
ATOM     24  C   UNL     1      -3.225  11.417  17.423  0.00  0.00    +0.000 C 
ENDBRANCH   8  18
BRANCH  11  25
ATOM     25  C   UNL     1       1.712   8.118  19.986  0.00  0.00    +0.000 A 
ATOM     26  C   UNL     1       1.551   6.964  20.772  0.00  0.00    +0.000 A 
ATOM     27  C   UNL     1       1.845   5.705  20.268  0.00  0.00    +0.000 A 
ATOM     28  C   UNL     1       2.336   5.595  18.969  0.00  0.00    +0.000 A 
ATOM     29  C   UNL     1       2.571   6.727  18.189  0.00  0.00    +0.000 A 
ATOM     30  C   UNL     1       2.251   7.988  18.701  0.00  0.00    +0.000 A 
BRANCH  28  31
ATOM     31  S   UNL     1       2.555   3.985  18.289  0.00  0.00    +0.000 S 
ATOM     32  O   UNL     1       2.956   3.075  19.340  0.00  0.00    +0.000 OA
ATOM     33  O   UNL     1       1.478   3.691  17.378  0.00  0.00    +0.000 OA
BRANCH  31  34
ATOM     34  N   UNL     1       3.917   4.267  17.354  0.00  0.00    +0.000 NA
ATOM     35  H   UNL     1       4.208   5.243  17.379  0.00  0.00    +0.000 HD
ATOM     36  H   UNL     1       4.644   3.571  17.517  0.00  0.00    +0.000 HD
ENDBRANCH  31  34
ENDBRANCH  28  31
ENDBRANCH  11  25
TORSDOF 4
ENDMDL
MODEL 7
REMARK VINA RESULT:      -6.6      2.922      5.889
REMARK  Name = 
REMARK  6 active torsions:
REMARK  status: ('A' for Active; 'I' for Inactive)
REMARK    1  A    between atoms: C_1  and  C_2
REMARK    2  A    between atoms: C_8  and  N_9
REMARK    3  A    between atoms: N_12  and  C_13
REMARK    4  A    between atoms: N_18  and  C_19
REMARK    5  A    between atoms: C_22  and  S_23
REMARK    6  A    between atoms: S_23  and  N_24
REMARK                            x       y       z     vdW  Elec       q    Type
REMARK                         _______ _______ _______ _____ _____    ______ ____
ROOT
ATOM      1  C   UNL     1       3.913  15.474  22.193  0.00  0.00    +0.000 C 
ATOM      2  C   UNL     1       2.611  15.405  21.498  0.00  0.00    +0.000 A 
ATOM      3  C   UNL     1       1.789  14.350  21.233  0.00  0.00    +0.000 A 
ATOM      4  C   UNL     1       0.698  14.882  20.516  0.00  0.00    +0.000 A 
ATOM      5  N   UNL     1      -0.317  14.188  19.982  0.00  0.00    +0.000 N 
ATOM      6  C   UNL     1      -0.367  12.817  19.660  0.00  0.00    +0.000 A 
ATOM      7  C   UNL     1      -1.256  12.440  18.686  0.00  0.00    +0.000 A 
ATOM      8  C   UNL     1      -1.360  11.104  18.388  0.00  0.00    +0.000 A 
ATOM      9  N   UNL     1      -0.566  10.214  18.978  0.00  0.00    +0.000 NA
ATOM     10  C   UNL     1       0.301  10.640  19.910  0.00  0.00    +0.000 A 
ATOM     11  N   UNL     1       1.065   9.695  20.589  0.00  0.00    +0.000 N 
ATOM     12  N   UNL     1       0.419  11.915  20.275  0.00  0.00    +0.000 NA
ATOM     13  N   UNL     1       0.812  16.206  20.373  0.00  0.00    +0.000 NA
ATOM     14  N   UNL     1       1.986  16.493  20.959  0.00  0.00    +0.000 N 
ATOM     15  H   UNL     1      -1.008  14.746  19.498  0.00  0.00    +0.000 HD
ATOM     16  H   UNL     1       1.562  10.101  21.364  0.00  0.00    +0.000 HD
ATOM     17  H   UNL     1       2.299  17.459  20.952  0.00  0.00    +0.000 HD
ENDROOT
BRANCH   8  18
ATOM     18  N   UNL     1      -2.267  10.702  17.441  0.00  0.00    +0.000 N 
ATOM     19  C   UNL     1      -2.161   9.395  16.798  0.00  0.00    +0.000 C 
ATOM     20  C   UNL     1      -2.557   9.584  15.312  0.00  0.00    +0.000 C 
ATOM     21  N   UNL     1      -3.911  10.180  15.161  0.00  0.00    +0.000 NA
ATOM     22  C   UNL     1      -4.240  10.358  13.753  0.00  0.00    +0.000 C 
ATOM     23  C   UNL     1      -3.970  11.471  15.883  0.00  0.00    +0.000 C 
ATOM     24  C   UNL     1      -3.588  11.327  17.369  0.00  0.00    +0.000 C 
ENDBRANCH   8  18
BRANCH  11  25
ATOM     25  C   UNL     1       1.542   8.485  20.077  0.00  0.00    +0.000 A 
ATOM     26  C   UNL     1       2.071   8.394  18.778  0.00  0.00    +0.000 A 
ATOM     27  C   UNL     1       2.567   7.195  18.288  0.00  0.00    +0.000 A 
ATOM     28  C   UNL     1       2.510   6.060  19.093  0.00  0.00    +0.000 A 
ATOM     29  C   UNL     1       1.929   6.104  20.360  0.00  0.00    +0.000 A 
ATOM     30  C   UNL     1       1.451   7.324  20.851  0.00  0.00    +0.000 A 
BRANCH  28  31
ATOM     31  S   UNL     1       3.285   4.585  18.521  0.00  0.00    +0.000 S 
ATOM     32  O   UNL     1       4.294   4.927  17.543  0.00  0.00    +0.000 OA
ATOM     33  O   UNL     1       3.549   3.711  19.637  0.00  0.00    +0.000 OA
BRANCH  31  34
ATOM     34  N   UNL     1       2.003   3.915  17.675  0.00  0.00    +0.000 NA
ATOM     35  H   UNL     1       2.267   3.629  16.734  0.00  0.00    +0.000 HD
ATOM     36  H   UNL     1       1.494   3.228  18.232  0.00  0.00    +0.000 HD
ENDBRANCH  31  34
ENDBRANCH  28  31
ENDBRANCH  11  25
TORSDOF 4
ENDMDL
MODEL 8
REMARK VINA RESULT:      -6.6      3.141      6.719
REMARK  Name = 
REMARK  6 active torsions:
REMARK  status: ('A' for Active; 'I' for Inactive)
REMARK    1  A    between atoms: C_1  and  C_2
REMARK    2  A    between atoms: C_8  and  N_9
REMARK    3  A    between atoms: N_12  and  C_13
REMARK    4  A    between atoms: N_18  and  C_19
REMARK    5  A    between atoms: C_22  and  S_23
REMARK    6  A    between atoms: S_23  and  N_24
REMARK                            x       y       z     vdW  Elec       q    Type
REMARK                         _______ _______ _______ _____ _____    ______ ____
ROOT
ATOM      1  C   UNL     1       6.132  14.698  17.840  0.00  0.00    +0.000 C 
ATOM      2  C   UNL     1       4.676  14.918  17.963  0.00  0.00    +0.000 A 
ATOM      3  C   UNL     1       3.696  14.150  18.516  0.00  0.00    +0.000 A 
ATOM      4  C   UNL     1       2.493  14.858  18.317  0.00  0.00    +0.000 A 
ATOM      5  N   UNL     1       1.260  14.437  18.633  0.00  0.00    +0.000 N 
ATOM      6  C   UNL     1       0.816  13.118  18.859  0.00  0.00    +0.000 A 
ATOM      7  C   UNL     1      -0.517  12.869  18.655  0.00  0.00    +0.000 A 
ATOM      8  C   UNL     1      -0.986  11.605  18.914  0.00  0.00    +0.000 A 
ATOM      9  N   UNL     1      -0.151  10.636  19.282  0.00  0.00    +0.000 NA
ATOM     10  C   UNL     1       1.148  10.929  19.447  0.00  0.00    +0.000 A 
ATOM     11  N   UNL     1       2.000   9.935  19.918  0.00  0.00    +0.000 N 
ATOM     12  N   UNL     1       1.656  12.145  19.254  0.00  0.00    +0.000 NA
ATOM     13  N   UNL     1       2.713  16.025  17.705  0.00  0.00    +0.000 NA
ATOM     14  N   UNL     1       4.039  16.028  17.485  0.00  0.00    +0.000 N 
ATOM     15  H   UNL     1       0.516  15.085  18.409  0.00  0.00    +0.000 HD
ATOM     16  H   UNL     1       2.909  10.299  20.151  0.00  0.00    +0.000 HD
ATOM     17  H   UNL     1       4.441  16.824  17.001  0.00  0.00    +0.000 HD
ENDROOT
BRANCH   8  18
ATOM     18  N   UNL     1      -2.321  11.343  18.750  0.00  0.00    +0.000 N 
ATOM     19  C   UNL     1      -2.782  10.303  17.834  0.00  0.00    +0.000 C 
ATOM     20  C   UNL     1      -4.067  10.833  17.149  0.00  0.00    +0.000 C 
ATOM     21  N   UNL     1      -5.111  11.222  18.134  0.00  0.00    +0.000 NA
ATOM     22  C   UNL     1      -6.295  11.731  17.455  0.00  0.00    +0.000 C 
ATOM     23  C   UNL     1      -4.564  12.233  19.067  0.00  0.00    +0.000 C 
ATOM     24  C   UNL     1      -3.286  11.742  19.776  0.00  0.00    +0.000 C 
ENDBRANCH   8  18
BRANCH  11  25
ATOM     25  C   UNL     1       1.896   8.563  19.673  0.00  0.00    +0.000 A 
ATOM     26  C   UNL     1       2.068   8.032  18.383  0.00  0.00    +0.000 A 
ATOM     27  C   UNL     1       1.991   6.665  18.154  0.00  0.00    +0.000 A 
ATOM     28  C   UNL     1       1.708   5.816  19.221  0.00  0.00    +0.000 A 
ATOM     29  C   UNL     1       1.465   6.320  20.498  0.00  0.00    +0.000 A 
ATOM     30  C   UNL     1       1.566   7.697  20.721  0.00  0.00    +0.000 A 
BRANCH  28  31
ATOM     31  S   UNL     1       1.768   4.077  18.947  0.00  0.00    +0.000 S 
ATOM     32  O   UNL     1       1.195   3.779  17.653  0.00  0.00    +0.000 OA
ATOM     33  O   UNL     1       3.049   3.563  19.366  0.00  0.00    +0.000 OA
BRANCH  31  34
ATOM     34  N   UNL     1       0.650   3.582  20.094  0.00  0.00    +0.000 NA
ATOM     35  H   UNL     1       0.541   2.570  20.116  0.00  0.00    +0.000 HD
ATOM     36  H   UNL     1       0.794   4.043  20.992  0.00  0.00    +0.000 HD
ENDBRANCH  31  34
ENDBRANCH  28  31
ENDBRANCH  11  25
TORSDOF 4
ENDMDL
MODEL 9
REMARK VINA RESULT:      -6.5      3.960      8.267
REMARK  Name = 
REMARK  6 active torsions:
REMARK  status: ('A' for Active; 'I' for Inactive)
REMARK    1  A    between atoms: C_1  and  C_2
REMARK    2  A    between atoms: C_8  and  N_9
REMARK    3  A    between atoms: N_12  and  C_13
REMARK    4  A    between atoms: N_18  and  C_19
REMARK    5  A    between atoms: C_22  and  S_23
REMARK    6  A    between atoms: S_23  and  N_24
REMARK                            x       y       z     vdW  Elec       q    Type
REMARK                         _______ _______ _______ _____ _____    ______ ____
ROOT
ATOM      1  C   UNL     1       4.415   5.630  18.529  0.00  0.00    +0.000 C 
ATOM      2  C   UNL     1       3.297   5.947  19.442  0.00  0.00    +0.000 A 
ATOM      3  C   UNL     1       2.439   7.005  19.476  0.00  0.00    +0.000 A 
ATOM      4  C   UNL     1       1.598   6.783  20.586  0.00  0.00    +0.000 A 
ATOM      5  N   UNL     1       0.652   7.614  21.046  0.00  0.00    +0.000 N 
ATOM      6  C   UNL     1       0.518   9.000  20.821  0.00  0.00    +0.000 A 
ATOM      7  C   UNL     1      -0.174   9.717  21.763  0.00  0.00    +0.000 A 
ATOM      8  C   UNL     1      -0.362  11.059  21.544  0.00  0.00    +0.000 A 
ATOM      9  N   UNL     1       0.177  11.654  20.483  0.00  0.00    +0.000 NA
ATOM     10  C   UNL     1       0.864  10.908  19.602  0.00  0.00    +0.000 A 
ATOM     11  N   UNL     1       1.348  11.518  18.449  0.00  0.00    +0.000 N 
ATOM     12  N   UNL     1       1.043   9.596  19.735  0.00  0.00    +0.000 NA
ATOM     13  N   UNL     1       1.890   5.629  21.192  0.00  0.00    +0.000 NA
ATOM     14  N   UNL     1       2.933   5.153  20.491  0.00  0.00    +0.000 N 
ATOM     15  H   UNL     1       0.151   7.283  21.860  0.00  0.00    +0.000 HD
ATOM     16  H   UNL     1       1.707  10.846  17.792  0.00  0.00    +0.000 HD
ATOM     17  H   UNL     1       3.348   4.275  20.789  0.00  0.00    +0.000 HD
ENDROOT
BRANCH   8  18
ATOM     18  N   UNL     1      -1.080  11.788  22.456  0.00  0.00    +0.000 N 
ATOM     19  C   UNL     1      -1.963  11.137  23.419  0.00  0.00    +0.000 C 
ATOM     20  C   UNL     1      -3.219  12.033  23.566  0.00  0.00    +0.000 C 
ATOM     21  N   UNL     1      -2.875  13.424  23.966  0.00  0.00    +0.000 NA
ATOM     22  C   UNL     1      -4.077  14.239  24.077  0.00  0.00    +0.000 C 
ATOM     23  C   UNL     1      -1.933  14.006  22.983  0.00  0.00    +0.000 C 
ATOM     24  C   UNL     1      -0.665  13.146  22.810  0.00  0.00    +0.000 C 
ENDBRANCH   8  18
BRANCH  11  25
ATOM     25  C   UNL     1       1.784  12.840  18.326  0.00  0.00    +0.000 A 
ATOM     26  C   UNL     1       0.888  13.920  18.403  0.00  0.00    +0.000 A 
ATOM     27  C   UNL     1       1.334  15.231  18.307  0.00  0.00    +0.000 A 
ATOM     28  C   UNL     1       2.691  15.469  18.100  0.00  0.00    +0.000 A 
ATOM     29  C   UNL     1       3.593  14.417  17.951  0.00  0.00    +0.000 A 
ATOM     30  C   UNL     1       3.134  13.101  18.071  0.00  0.00    +0.000 A 
BRANCH  28  31
ATOM     31  S   UNL     1       3.264  17.134  18.137  0.00  0.00    +0.000 S 
ATOM     32  O   UNL     1       4.685  17.141  18.408  0.00  0.00    +0.000 OA
ATOM     33  O   UNL     1       2.678  17.875  17.049  0.00  0.00    +0.000 OA
BRANCH  31  34
ATOM     34  N   UNL     1       2.506  17.653  19.539  0.00  0.00    +0.000 NA
ATOM     35  H   UNL     1       1.607  18.092  19.353  0.00  0.00    +0.000 HD
ATOM     36  H   UNL     1       2.521  16.939  20.268  0.00  0.00    +0.000 HD
ENDBRANCH  31  34
ENDBRANCH  28  31
ENDBRANCH  11  25
TORSDOF 4
ENDMDL
