MODEL 1
REMARK VINA RESULT:      -6.7      0.000      0.000
REMARK  Name = 
REMARK  5 active torsions:
REMARK  status: ('A' for Active; 'I' for Inactive)
REMARK    1  A    between atoms: C_1  and  S_2
REMARK    2  A    between atoms: S_2  and  C_5
REMARK    3  A    between atoms: C_10  and  N_11
REMARK    4  A    between atoms: N_11  and  C_12
REMARK    5  A    between atoms: C_12  and  C_13
REMARK                            x       y       z     vdW  Elec       q    Type
REMARK                         _______ _______ _______ _____ _____    ______ ____
ROOT
ATOM      1  C   UNL     1       3.508   4.522  18.494  0.00  0.00    +0.000 A 
ATOM      2  C   UNL     1       2.389   5.372  18.372  0.00  0.00    +0.000 A 
ATOM      3  C   UNL     1       2.530   6.694  17.966  0.00  0.00    +0.000 A 
ATOM      4  C   UNL     1       3.791   7.203  17.683  0.00  0.00    +0.000 A 
ATOM      5  C   UNL     1       4.914   6.384  17.784  0.00  0.00    +0.000 A 
ATOM      6  C   UNL     1       4.806   5.030  18.175  0.00  0.00    +0.000 A 
ENDROOT
BRANCH   1   8
ATOM      7  C   UNL     1       1.646   1.958  19.421  0.00  0.00    +0.000 C 
ATOM      8  S   UNL     1       3.192   2.803  18.976  0.00  0.00    +0.000 S 
ATOM      9  O   UNL     1       4.282   2.399  19.980  0.00  0.00    +0.000 OA
ATOM     10  O   UNL     1       3.709   1.954  17.800  0.00  0.00    +0.000 OA
ENDBRANCH   1   8
BRANCH   6  11
ATOM     11  N   UNL     1       5.985   4.210  18.220  0.00  0.00    +0.000 N 
ATOM     12  H   UNL     1       5.935   3.263  18.620  0.00  0.00    +0.000 HD
BRANCH  11  13
ATOM     13  C   UNL     1       7.174   4.541  17.428  0.00  0.00    +0.000 C 
BRANCH  13  14
ATOM     14  C   UNL     1       7.008   4.487  15.923  0.00  0.00    +0.000 C 
ATOM     15  N   UNL     1       6.179   3.673  15.388  0.00  0.00    +0.000 NA
ATOM     16  C   UNL     1       6.171   3.806  13.953  0.00  0.00    +0.000 C 
ATOM     17  C   UNL     1       7.132   4.980  13.678  0.00  0.00    +0.000 C 
ATOM     18  N   UNL     1       7.660   5.287  14.977  0.00  0.00    +0.000 N 
ATOM     19  H   UNL     1       8.353   6.021  15.183  0.00  0.00    +0.000 HD
ENDBRANCH  13  14
ENDBRANCH  11  13
ENDBRANCH   6  11
TORSDOF 4
ENDMDL
MODEL 2
REMARK VINA RESULT:      -6.6      0.989      1.399
REMARK  Name = 
REMARK  5 active torsions:
REMARK  status: ('A' for Active; 'I' for Inactive)
REMARK    1  A    between atoms: C_1  and  S_2
REMARK    2  A    between atoms: S_2  and  C_5
REMARK    3  A    between atoms: C_10  and  N_11
REMARK    4  A    between atoms: N_11  and  C_12
REMARK    5  A    between atoms: C_12  and  C_13
REMARK                            x       y       z     vdW  Elec       q    Type
REMARK                         _______ _______ _______ _____ _____    ______ ____
ROOT
ATOM      1  C   UNL     1       3.840   4.481  18.721  0.00  0.00    +0.000 A 
ATOM      2  C   UNL     1       2.616   5.107  18.408  0.00  0.00    +0.000 A 
ATOM      3  C   UNL     1       2.578   6.400  17.900  0.00  0.00    +0.000 A 
ATOM      4  C   UNL     1       3.759   7.104  17.703  0.00  0.00    +0.000 A 
ATOM      5  C   UNL     1       4.985   6.508  17.992  0.00  0.00    +0.000 A 
ATOM      6  C   UNL     1       5.061   5.187  18.492  0.00  0.00    +0.000 A 
ENDROOT
BRANCH   1   8
ATOM      7  C   UNL     1       3.645   1.199  18.420  0.00  0.00    +0.000 C 
ATOM      8  S   UNL     1       3.765   2.772  19.322  0.00  0.00    +0.000 S 
ATOM      9  O   UNL     1       2.779   2.742  20.500  0.00  0.00    +0.000 OA
ATOM     10  O   UNL     1       5.045   2.582  20.156  0.00  0.00    +0.000 OA
ENDBRANCH   1   8
BRANCH   6  11
ATOM     11  N   UNL     1       6.349   4.595  18.732  0.00  0.00    +0.000 N 
ATOM     12  H   UNL     1       6.463   3.905  19.488  0.00  0.00    +0.000 HD
BRANCH  11  13
ATOM     13  C   UNL     1       7.427   4.689  17.742  0.00  0.00    +0.000 C 
BRANCH  13  14
ATOM     14  C   UNL     1       7.015   4.535  16.292  0.00  0.00    +0.000 C 
ATOM     15  N   UNL     1       7.488   5.315  15.395  0.00  0.00    +0.000 NA
ATOM     16  C   UNL     1       6.976   4.976  14.090  0.00  0.00    +0.000 C 
ATOM     17  C   UNL     1       6.121   3.718  14.335  0.00  0.00    +0.000 C 
ATOM     18  N   UNL     1       6.152   3.568  15.762  0.00  0.00    +0.000 N 
ATOM     19  H   UNL     1       5.673   2.830  16.297  0.00  0.00    +0.000 HD
ENDBRANCH  13  14
ENDBRANCH  11  13
ENDBRANCH   6  11
TORSDOF 4
ENDMDL
MODEL 3
REMARK VINA RESULT:      -6.5      0.985      1.488
REMARK  Name = 
REMARK  5 active torsions:
REMARK  status: ('A' for Active; 'I' for Inactive)
REMARK    1  A    between atoms: C_1  and  S_2
REMARK    2  A    between atoms: S_2  and  C_5
REMARK    3  A    between atoms: C_10  and  N_11
REMARK    4  A    between atoms: N_11  and  C_12
REMARK    5  A    between atoms: C_12  and  C_13
REMARK                            x       y       z     vdW  Elec       q    Type
REMARK                         _______ _______ _______ _____ _____    ______ ____
ROOT
ATOM      1  C   UNL     1       3.754   4.266  18.735  0.00  0.00    +0.000 A 
ATOM      2  C   UNL     1       2.534   4.952  18.565  0.00  0.00    +0.000 A 
ATOM      3  C   UNL     1       2.501   6.250  18.070  0.00  0.00    +0.000 A 
ATOM      4  C   UNL     1       3.684   6.900  17.743  0.00  0.00    +0.000 A 
ATOM      5  C   UNL     1       4.904   6.243  17.889  0.00  0.00    +0.000 A 
ATOM      6  C   UNL     1       4.974   4.916  18.372  0.00  0.00    +0.000 A 
ENDROOT
BRANCH   1   8
ATOM      7  C   UNL     1       4.621   1.694  20.615  0.00  0.00    +0.000 C 
ATOM      8  S   UNL     1       3.665   2.556  19.332  0.00  0.00    +0.000 S 
ATOM      9  O   UNL     1       3.557   1.644  18.101  0.00  0.00    +0.000 OA
ATOM     10  O   UNL     1       2.216   2.374  19.818  0.00  0.00    +0.000 OA
ENDBRANCH   1   8
BRANCH   6  11
ATOM     11  N   UNL     1       6.250   4.262  18.461  0.00  0.00    +0.000 N 
ATOM     12  H   UNL     1       6.349   3.405  19.023  0.00  0.00    +0.000 HD
BRANCH  11  13
ATOM     13  C   UNL     1       7.337   4.578  17.528  0.00  0.00    +0.000 C 
BRANCH  13  14
ATOM     14  C   UNL     1       7.003   4.461  16.054  0.00  0.00    +0.000 C 
ATOM     15  N   UNL     1       7.491   5.288  15.209  0.00  0.00    +0.000 NA
ATOM     16  C   UNL     1       7.058   4.978  13.869  0.00  0.00    +0.000 C 
ATOM     17  C   UNL     1       6.239   3.682  14.028  0.00  0.00    +0.000 C 
ATOM     18  N   UNL     1       6.204   3.483  15.448  0.00  0.00    +0.000 N 
ATOM     19  H   UNL     1       5.727   2.710  15.933  0.00  0.00    +0.000 HD
ENDBRANCH  13  14
ENDBRANCH  11  13
ENDBRANCH   6  11
TORSDOF 4
ENDMDL
MODEL 4
REMARK VINA RESULT:      -6.5      0.805      1.215
REMARK  Name = 
REMARK  5 active torsions:
REMARK  status: ('A' for Active; 'I' for Inactive)
REMARK    1  A    between atoms: C_1  and  S_2
REMARK    2  A    between atoms: S_2  and  C_5
REMARK    3  A    between atoms: C_10  and  N_11
REMARK    4  A    between atoms: N_11  and  C_12
REMARK    5  A    between atoms: C_12  and  C_13
REMARK                            x       y       z     vdW  Elec       q    Type
REMARK                         _______ _______ _______ _____ _____    ______ ____
ROOT
ATOM      1  C   UNL     1       3.171   4.677  18.171  0.00  0.00    +0.000 A 
ATOM      2  C   UNL     1       2.256   5.708  18.470  0.00  0.00    +0.000 A 
ATOM      3  C   UNL     1       2.540   7.033  18.163  0.00  0.00    +0.000 A 
ATOM      4  C   UNL     1       3.746   7.363  17.559  0.00  0.00    +0.000 A 
ATOM      5  C   UNL     1       4.665   6.365  17.240  0.00  0.00    +0.000 A 
ATOM      6  C   UNL     1       4.401   5.004  17.522  0.00  0.00    +0.000 A 
ENDROOT
BRANCH   1   8
ATOM      7  C   UNL     1       1.088   2.326  19.192  0.00  0.00    +0.000 C 
ATOM      8  S   UNL     1       2.664   2.981  18.567  0.00  0.00    +0.000 S 
ATOM      9  O   UNL     1       3.814   2.329  19.349  0.00  0.00    +0.000 OA
ATOM     10  O   UNL     1       2.862   2.187  17.263  0.00  0.00    +0.000 OA
ENDBRANCH   1   8
BRANCH   6  11
ATOM     11  N   UNL     1       5.356   4.004  17.133  0.00  0.00    +0.000 N 
ATOM     12  H   UNL     1       5.053   3.028  17.007  0.00  0.00    +0.000 HD
BRANCH  11  13
ATOM     13  C   UNL     1       6.670   4.371  16.594  0.00  0.00    +0.000 C 
BRANCH  13  14
ATOM     14  C   UNL     1       6.787   4.396  15.084  0.00  0.00    +0.000 C 
ATOM     15  N   UNL     1       7.535   5.256  14.503  0.00  0.00    +0.000 NA
ATOM     16  C   UNL     1       7.509   5.084  13.071  0.00  0.00    +0.000 C 
ATOM     17  C   UNL     1       6.632   3.835  12.857  0.00  0.00    +0.000 C 
ATOM     18  N   UNL     1       6.168   3.524  14.179  0.00  0.00    +0.000 N 
ATOM     19  H   UNL     1       5.540   2.746  14.426  0.00  0.00    +0.000 HD
ENDBRANCH  13  14
ENDBRANCH  11  13
ENDBRANCH   6  11
TORSDOF 4
ENDMDL
MODEL 5
REMARK VINA RESULT:      -6.4      2.548      3.637
REMARK  Name = 
REMARK  5 active torsions:
REMARK  status: ('A' for Active; 'I' for Inactive)
REMARK    1  A    between atoms: C_1  and  S_2
REMARK    2  A    between atoms: S_2  and  C_5
REMARK    3  A    between atoms: C_10  and  N_11
REMARK    4  A    between atoms: N_11  and  C_12
REMARK    5  A    between atoms: C_12  and  C_13
REMARK                            x       y       z     vdW  Elec       q    Type
REMARK                         _______ _______ _______ _____ _____    ______ ____
ROOT
ATOM      1  C   UNL     1       5.474   4.972  18.534  0.00  0.00    +0.000 A 
ATOM      2  C   UNL     1       4.561   5.223  19.580  0.00  0.00    +0.000 A 
ATOM      3  C   UNL     1       3.246   4.779  19.509  0.00  0.00    +0.000 A 
ATOM      4  C   UNL     1       2.806   4.085  18.389  0.00  0.00    +0.000 A 
ATOM      5  C   UNL     1       3.688   3.812  17.345  0.00  0.00    +0.000 A 
ATOM      6  C   UNL     1       5.038   4.232  17.392  0.00  0.00    +0.000 A 
ENDROOT
BRANCH   1   8
ATOM      7  C   UNL     1       7.969   7.125  18.327  0.00  0.00    +0.000 C 
ATOM      8  S   UNL     1       7.177   5.550  18.767  0.00  0.00    +0.000 S 
ATOM      9  O   UNL     1       8.112   4.399  18.365  0.00  0.00    +0.000 OA
ATOM     10  O   UNL     1       7.428   5.463  20.284  0.00  0.00    +0.000 OA
ENDBRANCH   1   8
BRANCH   6  11
ATOM     11  N   UNL     1       5.924   3.888  16.314  0.00  0.00    +0.000 N 
ATOM     12  H   UNL     1       6.010   2.906  16.016  0.00  0.00    +0.000 HD
BRANCH  11  13
ATOM     13  C   UNL     1       6.461   4.912  15.412  0.00  0.00    +0.000 C 
BRANCH  13  14
ATOM     14  C   UNL     1       6.639   4.497  13.966  0.00  0.00    +0.000 C 
ATOM     15  N   UNL     1       7.410   5.160  13.189  0.00  0.00    +0.000 NA
ATOM     16  C   UNL     1       7.443   4.577  11.870  0.00  0.00    +0.000 C 
ATOM     17  C   UNL     1       6.577   3.309  11.996  0.00  0.00    +0.000 C 
ATOM     18  N   UNL     1       6.060   3.390  13.332  0.00  0.00    +0.000 N 
ATOM     19  H   UNL     1       5.423   2.710  13.770  0.00  0.00    +0.000 HD
ENDBRANCH  13  14
ENDBRANCH  11  13
ENDBRANCH   6  11
TORSDOF 4
ENDMDL
MODEL 6
REMARK VINA RESULT:      -6.4      2.855      5.208
REMARK  Name = 
REMARK  5 active torsions:
REMARK  status: ('A' for Active; 'I' for Inactive)
REMARK    1  A    between atoms: C_1  and  S_2
REMARK    2  A    between atoms: S_2  and  C_5
REMARK    3  A    between atoms: C_10  and  N_11
REMARK    4  A    between atoms: N_11  and  C_12
REMARK    5  A    between atoms: C_12  and  C_13
REMARK                            x       y       z     vdW  Elec       q    Type
REMARK                         _______ _______ _______ _____ _____    ______ ____
ROOT
ATOM      1  C   UNL     1       5.105   5.734  17.528  0.00  0.00    +0.000 A 
ATOM      2  C   UNL     1       4.500   6.890  16.993  0.00  0.00    +0.000 A 
ATOM      3  C   UNL     1       3.429   7.503  17.632  0.00  0.00    +0.000 A 
ATOM      4  C   UNL     1       2.928   6.972  18.813  0.00  0.00    +0.000 A 
ATOM      5  C   UNL     1       3.512   5.837  19.372  0.00  0.00    +0.000 A 
ATOM      6  C   UNL     1       4.615   5.199  18.760  0.00  0.00    +0.000 A 
ENDROOT
BRANCH   1   8
ATOM      7  C   UNL     1       6.623   4.070  15.113  0.00  0.00    +0.000 C 
ATOM      8  S   UNL     1       6.532   5.058  16.636  0.00  0.00    +0.000 S 
ATOM      9  O   UNL     1       7.478   4.445  17.679  0.00  0.00    +0.000 OA
ATOM     10  O   UNL     1       7.408   6.278  16.295  0.00  0.00    +0.000 OA
ENDBRANCH   1   8
BRANCH   6  11
ATOM     11  N   UNL     1       5.216   4.059  19.396  0.00  0.00    +0.000 N 
ATOM     12  H   UNL     1       5.992   4.193  20.060  0.00  0.00    +0.000 HD
BRANCH  11  13
ATOM     13  C   UNL     1       4.561   2.747  19.388  0.00  0.00    +0.000 C 
BRANCH  13  14
ATOM     14  C   UNL     1       3.136   2.712  19.901  0.00  0.00    +0.000 C 
ATOM     15  N   UNL     1       2.896   2.743  21.157  0.00  0.00    +0.000 NA
ATOM     16  C   UNL     1       1.477   2.719  21.415  0.00  0.00    +0.000 C 
ATOM     17  C   UNL     1       0.838   2.762  20.014  0.00  0.00    +0.000 C 
ATOM     18  N   UNL     1       1.966   2.681  19.131  0.00  0.00    +0.000 N 
ATOM     19  H   UNL     1       1.923   2.670  18.102  0.00  0.00    +0.000 HD
ENDBRANCH  13  14
ENDBRANCH  11  13
ENDBRANCH   6  11
TORSDOF 4
ENDMDL
MODEL 7
REMARK VINA RESULT:      -6.4      2.491      3.514
REMARK  Name = 
REMARK  5 active torsions:
REMARK  status: ('A' for Active; 'I' for Inactive)
REMARK    1  A    between atoms: C_1  and  S_2
REMARK    2  A    between atoms: S_2  and  C_5
REMARK    3  A    between atoms: C_10  and  N_11
REMARK    4  A    between atoms: N_11  and  C_12
REMARK    5  A    between atoms: C_12  and  C_13
REMARK                            x       y       z     vdW  Elec       q    Type
REMARK                         _______ _______ _______ _____ _____    ______ ____
ROOT
ATOM      1  C   UNL     1       5.380   5.060  18.418  0.00  0.00    +0.000 A 
ATOM      2  C   UNL     1       4.464   5.494  19.398  0.00  0.00    +0.000 A 
ATOM      3  C   UNL     1       3.126   5.120  19.349  0.00  0.00    +0.000 A 
ATOM      4  C   UNL     1       2.667   4.315  18.314  0.00  0.00    +0.000 A 
ATOM      5  C   UNL     1       3.551   3.860  17.338  0.00  0.00    +0.000 A 
ATOM      6  C   UNL     1       4.923   4.205  17.367  0.00  0.00    +0.000 A 
ENDROOT
BRANCH   1   8
ATOM      7  C   UNL     1       7.946   7.129  18.227  0.00  0.00    +0.000 C 
ATOM      8  S   UNL     1       7.110   5.565  18.621  0.00  0.00    +0.000 S 
ATOM      9  O   UNL     1       7.988   4.401  18.139  0.00  0.00    +0.000 OA
ATOM     10  O   UNL     1       7.403   5.400  20.124  0.00  0.00    +0.000 OA
ENDBRANCH   1   8
BRANCH   6  11
ATOM     11  N   UNL     1       5.807   3.676  16.367  0.00  0.00    +0.000 N 
ATOM     12  H   UNL     1       6.624   3.116  16.649  0.00  0.00    +0.000 HD
BRANCH  11  13
ATOM     13  C   UNL     1       5.417   3.626  14.954  0.00  0.00    +0.000 C 
BRANCH  13  14
ATOM     14  C   UNL     1       6.423   4.183  13.966  0.00  0.00    +0.000 C 
ATOM     15  N   UNL     1       6.424   3.792  12.748  0.00  0.00    +0.000 NA
ATOM     16  C   UNL     1       7.447   4.466  11.988  0.00  0.00    +0.000 C 
ATOM     17  C   UNL     1       8.059   5.469  12.984  0.00  0.00    +0.000 C 
ATOM     18  N   UNL     1       7.395   5.159  14.218  0.00  0.00    +0.000 N 
ATOM     19  H   UNL     1       7.560   5.626  15.120  0.00  0.00    +0.000 HD
ENDBRANCH  13  14
ENDBRANCH  11  13
ENDBRANCH   6  11
TORSDOF 4
ENDMDL
MODEL 8
REMARK VINA RESULT:      -6.4      2.639      5.248
REMARK  Name = 
REMARK  5 active torsions:
REMARK  status: ('A' for Active; 'I' for Inactive)
REMARK    1  A    between atoms: C_1  and  S_2
REMARK    2  A    between atoms: S_2  and  C_5
REMARK    3  A    between atoms: C_10  and  N_11
REMARK    4  A    between atoms: N_11  and  C_12
REMARK    5  A    between atoms: C_12  and  C_13
REMARK                            x       y       z     vdW  Elec       q    Type
REMARK                         _______ _______ _______ _____ _____    ______ ____
ROOT
ATOM      1  C   UNL     1       4.726   5.736  17.408  0.00  0.00    +0.000 A 
ATOM      2  C   UNL     1       5.055   6.166  16.106  0.00  0.00    +0.000 A 
ATOM      3  C   UNL     1       6.143   5.633  15.424  0.00  0.00    +0.000 A 
ATOM      4  C   UNL     1       6.935   4.666  16.029  0.00  0.00    +0.000 A 
ATOM      5  C   UNL     1       6.629   4.212  17.311  0.00  0.00    +0.000 A 
ATOM      6  C   UNL     1       5.519   4.719  18.026  0.00  0.00    +0.000 A 
ENDROOT
BRANCH   1   8
ATOM      7  C   UNL     1       2.475   8.090  17.946  0.00  0.00    +0.000 C 
ATOM      8  S   UNL     1       3.251   6.463  18.172  0.00  0.00    +0.000 S 
ATOM      9  O   UNL     1       3.308   6.147  19.674  0.00  0.00    +0.000 OA
ATOM     10  O   UNL     1       2.103   5.495  17.829  0.00  0.00    +0.000 OA
ENDBRANCH   1   8
BRANCH   6  11
ATOM     11  N   UNL     1       5.212   4.188  19.325  0.00  0.00    +0.000 N 
ATOM     12  H   UNL     1       5.214   4.810  20.146  0.00  0.00    +0.000 HD
BRANCH  11  13
ATOM     13  C   UNL     1       4.582   2.873  19.483  0.00  0.00    +0.000 C 
BRANCH  13  14
ATOM     14  C   UNL     1       3.173   2.873  20.041  0.00  0.00    +0.000 C 
ATOM     15  N   UNL     1       2.965   2.652  21.284  0.00  0.00    +0.000 NA
ATOM     16  C   UNL     1       1.559   2.719  21.595  0.00  0.00    +0.000 C 
ATOM     17  C   UNL     1       0.897   3.135  20.267  0.00  0.00    +0.000 C 
ATOM     18  N   UNL     1       1.990   3.133  19.337  0.00  0.00    +0.000 N 
ATOM     19  H   UNL     1       1.923   3.354  18.334  0.00  0.00    +0.000 HD
ENDBRANCH  13  14
ENDBRANCH  11  13
ENDBRANCH   6  11
TORSDOF 4
ENDMDL
MODEL 9
REMARK VINA RESULT:      -6.4      2.543      3.704
REMARK  Name = 
REMARK  5 active torsions:
REMARK  status: ('A' for Active; 'I' for Inactive)
REMARK    1  A    between atoms: C_1  and  S_2
REMARK    2  A    between atoms: S_2  and  C_5
REMARK    3  A    between atoms: C_10  and  N_11
REMARK    4  A    between atoms: N_11  and  C_12
REMARK    5  A    between atoms: C_12  and  C_13
REMARK                            x       y       z     vdW  Elec       q    Type
REMARK                         _______ _______ _______ _____ _____    ______ ____
ROOT
ATOM      1  C   UNL     1       5.412   4.913  18.149  0.00  0.00    +0.000 A 
ATOM      2  C   UNL     1       4.408   5.237  19.085  0.00  0.00    +0.000 A 
ATOM      3  C   UNL     1       3.098   4.803  18.916  0.00  0.00    +0.000 A 
ATOM      4  C   UNL     1       2.756   4.046  17.803  0.00  0.00    +0.000 A 
ATOM      5  C   UNL     1       3.729   3.699  16.867  0.00  0.00    +0.000 A 
ATOM      6  C   UNL     1       5.074   4.107  17.018  0.00  0.00    +0.000 A 
ENDROOT
BRANCH   1   8
ATOM      7  C   UNL     1       7.907   7.075  18.168  0.00  0.00    +0.000 C 
ATOM      8  S   UNL     1       7.094   5.486  18.509  0.00  0.00    +0.000 S 
ATOM      9  O   UNL     1       8.057   4.349  18.134  0.00  0.00    +0.000 OA
ATOM     10  O   UNL     1       7.247   5.353  20.035  0.00  0.00    +0.000 OA
ENDBRANCH   1   8
BRANCH   6  11
ATOM     11  N   UNL     1       6.053   3.688  16.053  0.00  0.00    +0.000 N 
ATOM     12  H   UNL     1       6.425   2.728  16.084  0.00  0.00    +0.000 HD
BRANCH  11  13
ATOM     13  C   UNL     1       6.302   4.463  14.833  0.00  0.00    +0.000 C 
BRANCH  13  14
ATOM     14  C   UNL     1       5.945   3.782  13.527  0.00  0.00    +0.000 C 
ATOM     15  N   UNL     1       4.778   3.920  13.019  0.00  0.00    +0.000 NA
ATOM     16  C   UNL     1       4.667   3.205  11.773  0.00  0.00    +0.000 C 
ATOM     17  C   UNL     1       6.080   2.638  11.535  0.00  0.00    +0.000 C 
ATOM     18  N   UNL     1       6.787   2.996  12.731  0.00  0.00    +0.000 N 
ATOM     19  H   UNL     1       7.770   2.769  12.937  0.00  0.00    +0.000 HD
ENDBRANCH  13  14
ENDBRANCH  11  13
ENDBRANCH   6  11
TORSDOF 4
ENDMDL
