MODEL 1
REMARK VINA RESULT:      -8.8      0.000      0.000
REMARK  Name = 
REMARK  6 active torsions:
REMARK  status: ('A' for Active; 'I' for Inactive)
REMARK    1  A    between atoms: O_1  and  C_2
REMARK    2  A    between atoms: C_4  and  C_5
REMARK    3  A    between atoms: C_8  and  C_9
REMARK    4  A    between atoms: C_10  and  C_11
REMARK    5  A    between atoms: C_14  and  C_15
REMARK    6  A    between atoms: N_22  and  C_23
REMARK                            x       y       z     vdW  Elec       q    Type
REMARK                         _______ _______ _______ _____ _____    ______ ____
ROOT
ATOM      1  C   UNL     1       0.794   9.248  21.502  0.00  0.00    +0.000 A 
ATOM      2  N   UNL     1       1.029   9.128  22.792  0.00  0.00    +0.000 NA
ATOM      3  N   UNL     1       0.348  10.106  23.454  0.00  0.00    +0.000 NA
ATOM      4  C   UNL     1      -0.353  10.809  22.584  0.00  0.00    +0.000 A 
ATOM      5  N   UNL     1      -0.047  10.352  21.287  0.00  0.00    +0.000 N 
ENDROOT
BRANCH   4   6
ATOM      6  C   UNL     1      -1.317  11.856  22.986  0.00  0.00    +0.000 A 
ATOM      7  C   UNL     1      -0.926  13.208  22.949  0.00  0.00    +0.000 A 
ATOM      8  C   UNL     1      -1.820  14.228  23.312  0.00  0.00    +0.000 A 
ATOM      9  C   UNL     1      -3.109  13.902  23.708  0.00  0.00    +0.000 A 
ATOM     10  F   UNL     1      -3.971  14.876  24.036  0.00  0.00    +0.000 F 
ATOM     11  C   UNL     1      -3.514  12.577  23.776  0.00  0.00    +0.000 A 
ATOM     12  C   UNL     1      -2.612  11.556  23.440  0.00  0.00    +0.000 A 
ENDBRANCH   4   6
BRANCH   5  13
ATOM     13  C   UNL     1      -0.430  10.983  20.055  0.00  0.00    +0.000 A 
ATOM     14  C   UNL     1      -1.413  10.343  19.269  0.00  0.00    +0.000 A 
ATOM     15  C   UNL     1      -1.768  10.832  18.011  0.00  0.00    +0.000 A 
ATOM     16  C   UNL     1      -1.216  12.018  17.550  0.00  0.00    +0.000 A 
ATOM     17  C   UNL     1      -0.276  12.688  18.328  0.00  0.00    +0.000 A 
ATOM     18  C   UNL     1       0.158  12.156  19.554  0.00  0.00    +0.000 A 
ATOM     19 CL   UNL     1       1.580  12.901  20.196  0.00  0.00    +0.000 Cl
ENDBRANCH   5  13
BRANCH   1  21
ATOM     20  C   UNL     1       1.595   7.140  20.660  0.00  0.00    +0.000 C 
ATOM     21  C   UNL     1       1.338   8.441  20.470  0.00  0.00    +0.000 C 
BRANCH  20  25
ATOM     22  C   UNL     1       3.668   5.537  18.260  0.00  0.00    +0.000 A 
ATOM     23  N   UNL     1       2.707   4.648  18.372  0.00  0.00    +0.000 NA
ATOM     24  N   UNL     1       1.797   5.165  19.261  0.00  0.00    +0.000 NA
ATOM     25  C   UNL     1       2.248   6.338  19.683  0.00  0.00    +0.000 A 
ATOM     26  O   UNL     1       3.463   6.632  19.068  0.00  0.00    +0.000 OA
BRANCH  22  29
ATOM     27  C   UNL     1       6.941   6.455  16.721  0.00  0.00    +0.000 A 
ATOM     28  C   UNL     1       5.804   6.522  17.505  0.00  0.00    +0.000 A 
ATOM     29  C   UNL     1       4.849   5.498  17.402  0.00  0.00    +0.000 A 
ATOM     30  C   UNL     1       5.088   4.466  16.493  0.00  0.00    +0.000 A 
ATOM     31  C   UNL     1       6.257   4.497  15.747  0.00  0.00    +0.000 A 
ATOM     32  N   UNL     1       7.186   5.472  15.844  0.00  0.00    +0.000 NA
BRANCH  27  33
ATOM     33  O   UNL     1       7.909   7.414  16.785  0.00  0.00    +0.000 OA
ATOM     34  H   UNL     1       8.750   7.018  16.514  0.00  0.00    +0.000 HD
ENDBRANCH  27  33
ENDBRANCH  22  29
ENDBRANCH  20  25
ENDBRANCH   1  21
TORSDOF 6
ENDMDL
MODEL 2
REMARK VINA RESULT:      -8.7      0.818      1.154
REMARK  Name = 
REMARK  6 active torsions:
REMARK  status: ('A' for Active; 'I' for Inactive)
REMARK    1  A    between atoms: O_1  and  C_2
REMARK    2  A    between atoms: C_4  and  C_5
REMARK    3  A    between atoms: C_8  and  C_9
REMARK    4  A    between atoms: C_10  and  C_11
REMARK    5  A    between atoms: C_14  and  C_15
REMARK    6  A    between atoms: N_22  and  C_23
REMARK                            x       y       z     vdW  Elec       q    Type
REMARK                         _______ _______ _______ _____ _____    ______ ____
ROOT
ATOM      1  C   UNL     1       0.756   9.196  21.475  0.00  0.00    +0.000 A 
ATOM      2  N   UNL     1       0.978   9.034  22.762  0.00  0.00    +0.000 NA
ATOM      3  N   UNL     1       0.309  10.005  23.447  0.00  0.00    +0.000 NA
ATOM      4  C   UNL     1      -0.372  10.746  22.593  0.00  0.00    +0.000 A 
ATOM      5  N   UNL     1      -0.063  10.321  21.285  0.00  0.00    +0.000 N 
ENDROOT
BRANCH   4   6
ATOM      6  C   UNL     1      -1.319  11.798  23.017  0.00  0.00    +0.000 A 
ATOM      7  C   UNL     1      -0.904  13.143  23.025  0.00  0.00    +0.000 A 
ATOM      8  C   UNL     1      -1.782  14.169  23.409  0.00  0.00    +0.000 A 
ATOM      9  C   UNL     1      -3.081  13.856  23.784  0.00  0.00    +0.000 A 
ATOM     10  F   UNL     1      -3.927  14.835  24.134  0.00  0.00    +0.000 F 
ATOM     11  C   UNL     1      -3.511  12.536  23.810  0.00  0.00    +0.000 A 
ATOM     12  C   UNL     1      -2.625  11.509  23.451  0.00  0.00    +0.000 A 
ENDBRANCH   4   6
BRANCH   5  13
ATOM     13  C   UNL     1      -0.423  10.995  20.069  0.00  0.00    +0.000 A 
ATOM     14  C   UNL     1      -1.391  10.382  19.243  0.00  0.00    +0.000 A 
ATOM     15  C   UNL     1      -1.723  10.915  17.996  0.00  0.00    +0.000 A 
ATOM     16  C   UNL     1      -1.164  12.117  17.587  0.00  0.00    +0.000 A 
ATOM     17  C   UNL     1      -0.239  12.759  18.407  0.00  0.00    +0.000 A 
ATOM     18  C   UNL     1       0.172  12.185  19.621  0.00  0.00    +0.000 A 
ATOM     19 CL   UNL     1       1.581  12.908  20.315  0.00  0.00    +0.000 Cl
ENDBRANCH   5  13
BRANCH   1  21
ATOM     20  C   UNL     1       1.650   7.132  20.616  0.00  0.00    +0.000 C 
ATOM     21  C   UNL     1       1.294   8.410  20.423  0.00  0.00    +0.000 C 
BRANCH  20  25
ATOM     22  C   UNL     1       3.732   5.576  18.193  0.00  0.00    +0.000 A 
ATOM     23  N   UNL     1       2.725   4.732  18.216  0.00  0.00    +0.000 NA
ATOM     24  N   UNL     1       1.809   5.239  19.104  0.00  0.00    +0.000 NA
ATOM     25  C   UNL     1       2.300   6.360  19.613  0.00  0.00    +0.000 A 
ATOM     26  O   UNL     1       3.550   6.629  19.061  0.00  0.00    +0.000 OA
BRANCH  22  29
ATOM     27  C   UNL     1       6.177   4.550  15.567  0.00  0.00    +0.000 A 
ATOM     28  C   UNL     1       5.048   4.559  16.366  0.00  0.00    +0.000 A 
ATOM     29  C   UNL     1       4.940   5.530  17.375  0.00  0.00    +0.000 A 
ATOM     30  C   UNL     1       5.995   6.431  17.535  0.00  0.00    +0.000 A 
ATOM     31  C   UNL     1       7.087   6.331  16.686  0.00  0.00    +0.000 A 
ATOM     32  N   UNL     1       7.197   5.409  15.707  0.00  0.00    +0.000 NA
BRANCH  27  33
ATOM     33  O   UNL     1       6.333   3.640  14.564  0.00  0.00    +0.000 OA
ATOM     34  H   UNL     1       7.075   3.061  14.789  0.00  0.00    +0.000 HD
ENDBRANCH  27  33
ENDBRANCH  22  29
ENDBRANCH  20  25
ENDBRANCH   1  21
TORSDOF 6
ENDMDL
MODEL 3
REMARK VINA RESULT:      -8.7      0.854      1.214
REMARK  Name = 
REMARK  6 active torsions:
REMARK  status: ('A' for Active; 'I' for Inactive)
REMARK    1  A    between atoms: O_1  and  C_2
REMARK    2  A    between atoms: C_4  and  C_5
REMARK    3  A    between atoms: C_8  and  C_9
REMARK    4  A    between atoms: C_10  and  C_11
REMARK    5  A    between atoms: C_14  and  C_15
REMARK    6  A    between atoms: N_22  and  C_23
REMARK                            x       y       z     vdW  Elec       q    Type
REMARK                         _______ _______ _______ _____ _____    ______ ____
ROOT
ATOM      1  C   UNL     1       0.472   9.150  21.460  0.00  0.00    +0.000 A 
ATOM      2  N   UNL     1       0.687   8.991  22.749  0.00  0.00    +0.000 NA
ATOM      3  N   UNL     1       0.134  10.042  23.418  0.00  0.00    +0.000 NA
ATOM      4  C   UNL     1      -0.471  10.835  22.553  0.00  0.00    +0.000 A 
ATOM      5  N   UNL     1      -0.223  10.353  21.252  0.00  0.00    +0.000 N 
ENDROOT
BRANCH   4   6
ATOM      6  C   UNL     1      -1.295  11.992  22.962  0.00  0.00    +0.000 A 
ATOM      7  C   UNL     1      -2.637  11.790  23.337  0.00  0.00    +0.000 A 
ATOM      8  C   UNL     1      -3.444  12.864  23.743  0.00  0.00    +0.000 A 
ATOM      9  C   UNL     1      -2.913  14.146  23.781  0.00  0.00    +0.000 A 
ATOM     10  F   UNL     1      -3.675  15.171  24.187  0.00  0.00    +0.000 F 
ATOM     11  C   UNL     1      -1.600  14.379  23.393  0.00  0.00    +0.000 A 
ATOM     12  C   UNL     1      -0.803  13.309  22.962  0.00  0.00    +0.000 A 
ENDBRANCH   4   6
BRANCH   5  13
ATOM     13  C   UNL     1      -0.519  11.037  20.025  0.00  0.00    +0.000 A 
ATOM     14  C   UNL     1      -1.537  10.500  19.206  0.00  0.00    +0.000 A 
ATOM     15  C   UNL     1      -1.818  11.041  17.950  0.00  0.00    +0.000 A 
ATOM     16  C   UNL     1      -1.153  12.181  17.524  0.00  0.00    +0.000 A 
ATOM     17  C   UNL     1      -0.176  12.751  18.335  0.00  0.00    +0.000 A 
ATOM     18  C   UNL     1       0.181  12.162  19.559  0.00  0.00    +0.000 A 
ATOM     19 CL   UNL     1       1.648  12.767  20.246  0.00  0.00    +0.000 Cl
ENDBRANCH   5  13
BRANCH   1  21
ATOM     20  C   UNL     1       1.908   7.413  20.613  0.00  0.00    +0.000 C 
ATOM     21  C   UNL     1       0.911   8.289  20.422  0.00  0.00    +0.000 C 
BRANCH  20  25
ATOM     22  C   UNL     1       3.768   5.707  18.112  0.00  0.00    +0.000 A 
ATOM     23  N   UNL     1       2.616   5.082  18.015  0.00  0.00    +0.000 NA
ATOM     24  N   UNL     1       1.772   5.677  18.921  0.00  0.00    +0.000 NA
ATOM     25  C   UNL     1       2.446   6.624  19.558  0.00  0.00    +0.000 A 
ATOM     26  O   UNL     1       3.751   6.689  19.077  0.00  0.00    +0.000 OA
BRANCH  22  29
ATOM     27  C   UNL     1       7.222   4.639  17.184  0.00  0.00    +0.000 A 
ATOM     28  C   UNL     1       6.087   4.874  17.941  0.00  0.00    +0.000 A 
ATOM     29  C   UNL     1       4.986   5.497  17.334  0.00  0.00    +0.000 A 
ATOM     30  C   UNL     1       5.098   5.870  15.993  0.00  0.00    +0.000 A 
ATOM     31  C   UNL     1       6.282   5.596  15.325  0.00  0.00    +0.000 A 
ATOM     32  N   UNL     1       7.344   4.989  15.896  0.00  0.00    +0.000 NA
BRANCH  27  33
ATOM     33  O   UNL     1       8.318   4.027  17.714  0.00  0.00    +0.000 OA
ATOM     34  H   UNL     1       9.026   4.042  17.054  0.00  0.00    +0.000 HD
ENDBRANCH  27  33
ENDBRANCH  22  29
ENDBRANCH  20  25
ENDBRANCH   1  21
TORSDOF 6
ENDMDL
MODEL 4
REMARK VINA RESULT:      -8.5      2.573      2.961
REMARK  Name = 
REMARK  6 active torsions:
REMARK  status: ('A' for Active; 'I' for Inactive)
REMARK    1  A    between atoms: O_1  and  C_2
REMARK    2  A    between atoms: C_4  and  C_5
REMARK    3  A    between atoms: C_8  and  C_9
REMARK    4  A    between atoms: C_10  and  C_11
REMARK    5  A    between atoms: C_14  and  C_15
REMARK    6  A    between atoms: N_22  and  C_23
REMARK                            x       y       z     vdW  Elec       q    Type
REMARK                         _______ _______ _______ _____ _____    ______ ____
ROOT
ATOM      1  C   UNL     1      -0.365   9.831  21.823  0.00  0.00    +0.000 A 
ATOM      2  N   UNL     1      -0.715   9.624  23.076  0.00  0.00    +0.000 NA
ATOM      3  N   UNL     1      -1.110  10.808  23.622  0.00  0.00    +0.000 NA
ATOM      4  C   UNL     1      -1.055  11.749  22.698  0.00  0.00    +0.000 A 
ATOM      5  N   UNL     1      -0.505  11.196  21.525  0.00  0.00    +0.000 N 
ENDROOT
BRANCH   4   6
ATOM      6  C   UNL     1      -1.554  13.124  22.919  0.00  0.00    +0.000 A 
ATOM      7  C   UNL     1      -0.636  14.184  23.036  0.00  0.00    +0.000 A 
ATOM      8  C   UNL     1      -1.076  15.503  23.233  0.00  0.00    +0.000 A 
ATOM      9  C   UNL     1      -2.436  15.768  23.310  0.00  0.00    +0.000 A 
ATOM     10  F   UNL     1      -2.859  17.029  23.479  0.00  0.00    +0.000 F 
ATOM     11  C   UNL     1      -3.363  14.739  23.223  0.00  0.00    +0.000 A 
ATOM     12  C   UNL     1      -2.922  13.419  23.052  0.00  0.00    +0.000 A 
ENDBRANCH   4   6
BRANCH   5  13
ATOM     13  C   UNL     1      -0.081  11.925  20.363  0.00  0.00    +0.000 A 
ATOM     14  C   UNL     1       1.277  12.302  20.286  0.00  0.00    +0.000 A 
ATOM     15  C   UNL     1       1.751  13.100  19.242  0.00  0.00    +0.000 A 
ATOM     16  C   UNL     1       0.900  13.464  18.210  0.00  0.00    +0.000 A 
ATOM     17  C   UNL     1      -0.434  13.067  18.245  0.00  0.00    +0.000 A 
ATOM     18  C   UNL     1      -0.943  12.343  19.335  0.00  0.00    +0.000 A 
ATOM     19 CL   UNL     1      -2.669  12.265  19.401  0.00  0.00    +0.000 Cl
ENDBRANCH   5  13
BRANCH   1  21
ATOM     20  C   UNL     1       1.383   8.391  21.009  0.00  0.00    +0.000 C 
ATOM     21  C   UNL     1       0.131   8.859  20.917  0.00  0.00    +0.000 C 
BRANCH  20  25
ATOM     22  C   UNL     1       2.598   5.750  18.964  0.00  0.00    +0.000 A 
ATOM     23  N   UNL     1       2.808   6.777  18.171  0.00  0.00    +0.000 NA
ATOM     24  N   UNL     1       2.409   7.894  18.864  0.00  0.00    +0.000 NA
ATOM     25  C   UNL     1       1.942   7.507  20.043  0.00  0.00    +0.000 A 
ATOM     26  O   UNL     1       2.037   6.123  20.165  0.00  0.00    +0.000 OA
BRANCH  22  29
ATOM     27  C   UNL     1       4.146   2.371  19.296  0.00  0.00    +0.000 A 
ATOM     28  C   UNL     1       3.896   3.717  19.496  0.00  0.00    +0.000 A 
ATOM     29  C   UNL     1       2.900   4.341  18.728  0.00  0.00    +0.000 A 
ATOM     30  C   UNL     1       2.220   3.572  17.782  0.00  0.00    +0.000 A 
ATOM     31  C   UNL     1       2.553   2.231  17.655  0.00  0.00    +0.000 A 
ATOM     32  N   UNL     1       3.502   1.619  18.393  0.00  0.00    +0.000 NA
BRANCH  27  33
ATOM     33  O   UNL     1       5.092   1.708  20.019  0.00  0.00    +0.000 OA
ATOM     34  H   UNL     1       5.273   2.215  20.825  0.00  0.00    +0.000 HD
ENDBRANCH  27  33
ENDBRANCH  22  29
ENDBRANCH  20  25
ENDBRANCH   1  21
TORSDOF 6
ENDMDL
MODEL 5
REMARK VINA RESULT:      -8.5      2.369      2.730
REMARK  Name = 
REMARK  6 active torsions:
REMARK  status: ('A' for Active; 'I' for Inactive)
REMARK    1  A    between atoms: O_1  and  C_2
REMARK    2  A    between atoms: C_4  and  C_5
REMARK    3  A    between atoms: C_8  and  C_9
REMARK    4  A    between atoms: C_10  and  C_11
REMARK    5  A    between atoms: C_14  and  C_15
REMARK    6  A    between atoms: N_22  and  C_23
REMARK                            x       y       z     vdW  Elec       q    Type
REMARK                         _______ _______ _______ _____ _____    ______ ____
ROOT
ATOM      1  C   UNL     1      -0.268   9.752  21.851  0.00  0.00    +0.000 A 
ATOM      2  N   UNL     1      -0.339   9.571  23.153  0.00  0.00    +0.000 NA
ATOM      3  N   UNL     1      -0.839  10.702  23.726  0.00  0.00    +0.000 NA
ATOM      4  C   UNL     1      -1.128  11.575  22.779  0.00  0.00    +0.000 A 
ATOM      5  N   UNL     1      -0.708  11.049  21.541  0.00  0.00    +0.000 N 
ENDROOT
BRANCH   4   6
ATOM      6  C   UNL     1      -1.823  12.852  23.047  0.00  0.00    +0.000 A 
ATOM      7  C   UNL     1      -3.227  12.869  23.148  0.00  0.00    +0.000 A 
ATOM      8  C   UNL     1      -3.918  14.063  23.415  0.00  0.00    +0.000 A 
ATOM      9  C   UNL     1      -3.208  15.242  23.587  0.00  0.00    +0.000 A 
ATOM     10  F   UNL     1      -3.863  16.380  23.861  0.00  0.00    +0.000 F 
ATOM     11  C   UNL     1      -1.825  15.259  23.469  0.00  0.00    +0.000 A 
ATOM     12  C   UNL     1      -1.138  14.072  23.176  0.00  0.00    +0.000 A 
ENDBRANCH   4   6
BRANCH   5  13
ATOM     13  C   UNL     1      -0.646  11.763  20.296  0.00  0.00    +0.000 A 
ATOM     14  C   UNL     1      -1.656  11.506  19.343  0.00  0.00    +0.000 A 
ATOM     15  C   UNL     1      -1.614  12.078  18.070  0.00  0.00    +0.000 A 
ATOM     16  C   UNL     1      -0.614  12.985  17.752  0.00  0.00    +0.000 A 
ATOM     17  C   UNL     1       0.368  13.284  18.693  0.00  0.00    +0.000 A 
ATOM     18  C   UNL     1       0.388  12.646  19.944  0.00  0.00    +0.000 A 
ATOM     19 CL   UNL     1       1.862  12.843  20.826  0.00  0.00    +0.000 Cl
ENDBRANCH   5  13
BRANCH   1  21
ATOM     20  C   UNL     1       1.333   8.107  21.128  0.00  0.00    +0.000 C 
ATOM     21  C   UNL     1       0.225   8.824  20.898  0.00  0.00    +0.000 C 
BRANCH  20  25
ATOM     22  C   UNL     1       2.613   5.544  19.024  0.00  0.00    +0.000 A 
ATOM     23  N   UNL     1       2.797   6.594  18.255  0.00  0.00    +0.000 NA
ATOM     24  N   UNL     1       2.370   7.684  18.973  0.00  0.00    +0.000 NA
ATOM     25  C   UNL     1       1.914   7.259  20.143  0.00  0.00    +0.000 A 
ATOM     26  O   UNL     1       2.044   5.875  20.234  0.00  0.00    +0.000 OA
BRANCH  22  29
ATOM     27  C   UNL     1       4.217   2.186  19.307  0.00  0.00    +0.000 A 
ATOM     28  C   UNL     1       3.934   3.521  19.538  0.00  0.00    +0.000 A 
ATOM     29  C   UNL     1       2.950   4.149  18.757  0.00  0.00    +0.000 A 
ATOM     30  C   UNL     1       2.316   3.395  17.768  0.00  0.00    +0.000 A 
ATOM     31  C   UNL     1       2.679   2.066  17.613  0.00  0.00    +0.000 A 
ATOM     32  N   UNL     1       3.617   1.449  18.363  0.00  0.00    +0.000 NA
BRANCH  27  33
ATOM     33  O   UNL     1       5.153   1.520  20.041  0.00  0.00    +0.000 OA
ATOM     34  H   UNL     1       5.947   1.410  19.496  0.00  0.00    +0.000 HD
ENDBRANCH  27  33
ENDBRANCH  22  29
ENDBRANCH  20  25
ENDBRANCH   1  21
TORSDOF 6
ENDMDL
MODEL 6
REMARK VINA RESULT:      -8.5      1.620      2.116
REMARK  Name = 
REMARK  6 active torsions:
REMARK  status: ('A' for Active; 'I' for Inactive)
REMARK    1  A    between atoms: O_1  and  C_2
REMARK    2  A    between atoms: C_4  and  C_5
REMARK    3  A    between atoms: C_8  and  C_9
REMARK    4  A    between atoms: C_10  and  C_11
REMARK    5  A    between atoms: C_14  and  C_15
REMARK    6  A    between atoms: N_22  and  C_23
REMARK                            x       y       z     vdW  Elec       q    Type
REMARK                         _______ _______ _______ _____ _____    ______ ____
ROOT
ATOM      1  C   UNL     1       0.555   9.568  22.039  0.00  0.00    +0.000 A 
ATOM      2  N   UNL     1      -0.080   9.320  23.165  0.00  0.00    +0.000 NA
ATOM      3  N   UNL     1      -0.849  10.399  23.482  0.00  0.00    +0.000 NA
ATOM      4  C   UNL     1      -0.735  11.305  22.528  0.00  0.00    +0.000 A 
ATOM      5  N   UNL     1       0.224  10.860  21.597  0.00  0.00    +0.000 N 
ENDROOT
BRANCH   4   6
ATOM      6  C   UNL     1      -1.551  12.538  22.489  0.00  0.00    +0.000 A 
ATOM      7  C   UNL     1      -2.687  12.591  21.658  0.00  0.00    +0.000 A 
ATOM      8  C   UNL     1      -3.491  13.741  21.607  0.00  0.00    +0.000 A 
ATOM      9  C   UNL     1      -3.166  14.841  22.388  0.00  0.00    +0.000 A 
ATOM     10  F   UNL     1      -3.942  15.934  22.356  0.00  0.00    +0.000 F 
ATOM     11  C   UNL     1      -2.038  14.826  23.198  0.00  0.00    +0.000 A 
ATOM     12  C   UNL     1      -1.221  13.686  23.229  0.00  0.00    +0.000 A 
ENDBRANCH   4   6
BRANCH   5  13
ATOM     13  C   UNL     1       0.794  11.636  20.533  0.00  0.00    +0.000 A 
ATOM     14  C   UNL     1       1.718  12.646  20.881  0.00  0.00    +0.000 A 
ATOM     15  C   UNL     1       2.241  13.514  19.920  0.00  0.00    +0.000 A 
ATOM     16  C   UNL     1       1.923  13.335  18.582  0.00  0.00    +0.000 A 
ATOM     17  C   UNL     1       1.047  12.318  18.212  0.00  0.00    +0.000 A 
ATOM     18  C   UNL     1       0.443  11.498  19.180  0.00  0.00    +0.000 A 
ATOM     19 CL   UNL     1      -0.884  10.557  18.594  0.00  0.00    +0.000 Cl
ENDBRANCH   5  13
BRANCH   1  21
ATOM     20  C   UNL     1       1.096   7.527  20.883  0.00  0.00    +0.000 C 
ATOM     21  C   UNL     1       1.476   8.709  21.385  0.00  0.00    +0.000 C 
BRANCH  20  25
ATOM     22  C   UNL     1       3.625   5.676  19.208  0.00  0.00    +0.000 A 
ATOM     23  N   UNL     1       3.160   4.755  20.023  0.00  0.00    +0.000 NA
ATOM     24  N   UNL     1       2.130   5.336  20.722  0.00  0.00    +0.000 NA
ATOM     25  C   UNL     1       2.021   6.597  20.330  0.00  0.00    +0.000 A 
ATOM     26  O   UNL     1       2.968   6.878  19.348  0.00  0.00    +0.000 OA
BRANCH  22  29
ATOM     27  C   UNL     1       6.848   4.729  17.581  0.00  0.00    +0.000 A 
ATOM     28  C   UNL     1       5.866   4.875  18.545  0.00  0.00    +0.000 A 
ATOM     29  C   UNL     1       4.685   5.558  18.211  0.00  0.00    +0.000 A 
ATOM     30  C   UNL     1       4.569   6.077  16.920  0.00  0.00    +0.000 A 
ATOM     31  C   UNL     1       5.616   5.883  16.031  0.00  0.00    +0.000 A 
ATOM     32  N   UNL     1       6.751   5.221  16.338  0.00  0.00    +0.000 NA
BRANCH  27  33
ATOM     33  O   UNL     1       8.009   4.066  17.843  0.00  0.00    +0.000 OA
ATOM     34  H   UNL     1       7.977   3.205  17.399  0.00  0.00    +0.000 HD
ENDBRANCH  27  33
ENDBRANCH  22  29
ENDBRANCH  20  25
ENDBRANCH   1  21
TORSDOF 6
ENDMDL
MODEL 7
REMARK VINA RESULT:      -8.3      1.149      1.750
REMARK  Name = 
REMARK  6 active torsions:
REMARK  status: ('A' for Active; 'I' for Inactive)
REMARK    1  A    between atoms: O_1  and  C_2
REMARK    2  A    between atoms: C_4  and  C_5
REMARK    3  A    between atoms: C_8  and  C_9
REMARK    4  A    between atoms: C_10  and  C_11
REMARK    5  A    between atoms: C_14  and  C_15
REMARK    6  A    between atoms: N_22  and  C_23
REMARK                            x       y       z     vdW  Elec       q    Type
REMARK                         _______ _______ _______ _____ _____    ______ ____
ROOT
ATOM      1  C   UNL     1       0.425   9.464  21.770  0.00  0.00    +0.000 A 
ATOM      2  N   UNL     1       0.035   9.135  22.984  0.00  0.00    +0.000 NA
ATOM      3  N   UNL     1      -0.625  10.193  23.534  0.00  0.00    +0.000 NA
ATOM      4  C   UNL     1      -0.693  11.169  22.647  0.00  0.00    +0.000 A 
ATOM      5  N   UNL     1       0.039  10.788  21.504  0.00  0.00    +0.000 N 
ENDROOT
BRANCH   4   6
ATOM      6  C   UNL     1      -1.469  12.407  22.870  0.00  0.00    +0.000 A 
ATOM      7  C   UNL     1      -2.858  12.325  23.085  0.00  0.00    +0.000 A 
ATOM      8  C   UNL     1      -3.623  13.480  23.314  0.00  0.00    +0.000 A 
ATOM      9  C   UNL     1      -3.003  14.722  23.333  0.00  0.00    +0.000 A 
ATOM     10  F   UNL     1      -3.727  15.824  23.571  0.00  0.00    +0.000 F 
ATOM     11  C   UNL     1      -1.639  14.834  23.100  0.00  0.00    +0.000 A 
ATOM     12  C   UNL     1      -0.880  13.683  22.845  0.00  0.00    +0.000 A 
ENDBRANCH   4   6
BRANCH   5  13
ATOM     13  C   UNL     1       0.391  11.638  20.402  0.00  0.00    +0.000 A 
ATOM     14  C   UNL     1       1.659  12.257  20.433  0.00  0.00    +0.000 A 
ATOM     15  C   UNL     1       2.041  13.179  19.455  0.00  0.00    +0.000 A 
ATOM     16  C   UNL     1       1.202  13.434  18.381  0.00  0.00    +0.000 A 
ATOM     17  C   UNL     1      -0.037  12.801  18.310  0.00  0.00    +0.000 A 
ATOM     18  C   UNL     1      -0.469  11.943  19.334  0.00  0.00    +0.000 A 
ATOM     19 CL   UNL     1      -2.153  11.552  19.279  0.00  0.00    +0.000 Cl
ENDBRANCH   5  13
BRANCH   1  21
ATOM     20  C   UNL     1       1.209   7.318  21.013  0.00  0.00    +0.000 C 
ATOM     21  C   UNL     1       1.167   8.650  20.876  0.00  0.00    +0.000 C 
BRANCH  20  25
ATOM     22  C   UNL     1       3.522   5.768  18.803  0.00  0.00    +0.000 A 
ATOM     23  N   UNL     1       3.029   4.711  19.408  0.00  0.00    +0.000 NA
ATOM     24  N   UNL     1       2.076   5.170  20.284  0.00  0.00    +0.000 NA
ATOM     25  C   UNL     1       2.040   6.492  20.204  0.00  0.00    +0.000 A 
ATOM     26  O   UNL     1       2.960   6.940  19.259  0.00  0.00    +0.000 OA
BRANCH  22  29
ATOM     27  C   UNL     1       6.578   6.729  16.890  0.00  0.00    +0.000 A 
ATOM     28  C   UNL     1       5.608   6.711  17.876  0.00  0.00    +0.000 A 
ATOM     29  C   UNL     1       4.525   5.827  17.745  0.00  0.00    +0.000 A 
ATOM     30  C   UNL     1       4.472   5.018  16.608  0.00  0.00    +0.000 A 
ATOM     31  C   UNL     1       5.492   5.118  15.674  0.00  0.00    +0.000 A 
ATOM     32  N   UNL     1       6.541   5.958  15.794  0.00  0.00    +0.000 NA
BRANCH  27  33
ATOM     33  O   UNL     1       7.658   7.557  16.967  0.00  0.00    +0.000 OA
ATOM     34  H   UNL     1       7.575   8.094  17.770  0.00  0.00    +0.000 HD
ENDBRANCH  27  33
ENDBRANCH  22  29
ENDBRANCH  20  25
ENDBRANCH   1  21
TORSDOF 6
ENDMDL
MODEL 8
REMARK VINA RESULT:      -8.3      1.503      1.872
REMARK  Name = 
REMARK  6 active torsions:
REMARK  status: ('A' for Active; 'I' for Inactive)
REMARK    1  A    between atoms: O_1  and  C_2
REMARK    2  A    between atoms: C_4  and  C_5
REMARK    3  A    between atoms: C_8  and  C_9
REMARK    4  A    between atoms: C_10  and  C_11
REMARK    5  A    between atoms: C_14  and  C_15
REMARK    6  A    between atoms: N_22  and  C_23
REMARK                            x       y       z     vdW  Elec       q    Type
REMARK                         _______ _______ _______ _____ _____    ______ ____
ROOT
ATOM      1  C   UNL     1       0.126   9.590  21.801  0.00  0.00    +0.000 A 
ATOM      2  N   UNL     1      -0.311   9.312  23.012  0.00  0.00    +0.000 NA
ATOM      3  N   UNL     1      -0.910  10.422  23.528  0.00  0.00    +0.000 NA
ATOM      4  C   UNL     1      -0.892  11.383  22.623  0.00  0.00    +0.000 A 
ATOM      5  N   UNL     1      -0.164  10.932  21.504  0.00  0.00    +0.000 N 
ENDROOT
BRANCH   4   6
ATOM      6  C   UNL     1      -1.587  12.675  22.807  0.00  0.00    +0.000 A 
ATOM      7  C   UNL     1      -0.831  13.848  22.991  0.00  0.00    +0.000 A 
ATOM      8  C   UNL     1      -1.458  15.094  23.156  0.00  0.00    +0.000 A 
ATOM      9  C   UNL     1      -2.844  15.173  23.133  0.00  0.00    +0.000 A 
ATOM     10  F   UNL     1      -3.445  16.363  23.270  0.00  0.00    +0.000 F 
ATOM     11  C   UNL     1      -3.615  14.029  22.977  0.00  0.00    +0.000 A 
ATOM     12  C   UNL     1      -2.988  12.782  22.839  0.00  0.00    +0.000 A 
ENDBRANCH   4   6
BRANCH   5  13
ATOM     13  C   UNL     1       0.269  11.736  20.396  0.00  0.00    +0.000 A 
ATOM     14  C   UNL     1       1.589  12.236  20.426  0.00  0.00    +0.000 A 
ATOM     15  C   UNL     1       2.057  13.109  19.441  0.00  0.00    +0.000 A 
ATOM     16  C   UNL     1       1.248  13.430  18.361  0.00  0.00    +0.000 A 
ATOM     17  C   UNL     1      -0.043  12.913  18.291  0.00  0.00    +0.000 A 
ATOM     18  C   UNL     1      -0.556  12.109  19.321  0.00  0.00    +0.000 A 
ATOM     19 CL   UNL     1      -2.268  11.873  19.262  0.00  0.00    +0.000 Cl
ENDBRANCH   5  13
BRANCH   1  21
ATOM     20  C   UNL     1       1.060   7.436  21.275  0.00  0.00    +0.000 C 
ATOM     21  C   UNL     1       0.830   8.712  20.939  0.00  0.00    +0.000 C 
BRANCH  20  25
ATOM     22  C   UNL     1       3.398   5.758  19.189  0.00  0.00    +0.000 A 
ATOM     23  N   UNL     1       2.694   4.736  19.624  0.00  0.00    +0.000 NA
ATOM     24  N   UNL     1       1.711   5.254  20.431  0.00  0.00    +0.000 NA
ATOM     25  C   UNL     1       1.865   6.569  20.483  0.00  0.00    +0.000 A 
ATOM     26  O   UNL     1       2.948   6.956  19.697  0.00  0.00    +0.000 OA
BRANCH  22  29
ATOM     27  C   UNL     1       6.705   4.961  17.655  0.00  0.00    +0.000 A 
ATOM     28  C   UNL     1       5.660   4.990  18.561  0.00  0.00    +0.000 A 
ATOM     29  C   UNL     1       4.524   5.758  18.260  0.00  0.00    +0.000 A 
ATOM     30  C   UNL     1       4.513   6.474  17.062  0.00  0.00    +0.000 A 
ATOM     31  C   UNL     1       5.616   6.384  16.225  0.00  0.00    +0.000 A 
ATOM     32  N   UNL     1       6.710   5.642  16.500  0.00  0.00    +0.000 NA
BRANCH  27  33
ATOM     33  O   UNL     1       7.828   4.225  17.886  0.00  0.00    +0.000 OA
ATOM     34  H   UNL     1       8.333   4.168  17.061  0.00  0.00    +0.000 HD
ENDBRANCH  27  33
ENDBRANCH  22  29
ENDBRANCH  20  25
ENDBRANCH   1  21
TORSDOF 6
ENDMDL
MODEL 9
REMARK VINA RESULT:      -8.3      1.257      1.684
REMARK  Name = 
REMARK  6 active torsions:
REMARK  status: ('A' for Active; 'I' for Inactive)
REMARK    1  A    between atoms: O_1  and  C_2
REMARK    2  A    between atoms: C_4  and  C_5
REMARK    3  A    between atoms: C_8  and  C_9
REMARK    4  A    between atoms: C_10  and  C_11
REMARK    5  A    between atoms: C_14  and  C_15
REMARK    6  A    between atoms: N_22  and  C_23
REMARK                            x       y       z     vdW  Elec       q    Type
REMARK                         _______ _______ _______ _____ _____    ______ ____
ROOT
ATOM      1  C   UNL     1       0.309   9.685  21.962  0.00  0.00    +0.000 A 
ATOM      2  N   UNL     1       0.260   9.589  23.274  0.00  0.00    +0.000 NA
ATOM      3  N   UNL     1      -0.468  10.633  23.763  0.00  0.00    +0.000 NA
ATOM      4  C   UNL     1      -0.917  11.356  22.754  0.00  0.00    +0.000 A 
ATOM      5  N   UNL     1      -0.383  10.839  21.557  0.00  0.00    +0.000 N 
ENDROOT
BRANCH   4   6
ATOM      6  C   UNL     1      -1.860  12.481  22.929  0.00  0.00    +0.000 A 
ATOM      7  C   UNL     1      -3.221  12.298  22.619  0.00  0.00    +0.000 A 
ATOM      8  C   UNL     1      -4.147  13.341  22.786  0.00  0.00    +0.000 A 
ATOM      9  C   UNL     1      -3.717  14.570  23.266  0.00  0.00    +0.000 A 
ATOM     10  F   UNL     1      -4.602  15.562  23.445  0.00  0.00    +0.000 F 
ATOM     11  C   UNL     1      -2.377  14.786  23.557  0.00  0.00    +0.000 A 
ATOM     12  C   UNL     1      -1.449  13.752  23.365  0.00  0.00    +0.000 A 
ENDBRANCH   4   6
BRANCH   5  13
ATOM     13  C   UNL     1      -0.451  11.457  20.263  0.00  0.00    +0.000 A 
ATOM     14  C   UNL     1      -1.441  10.995  19.369  0.00  0.00    +0.000 A 
ATOM     15  C   UNL     1      -1.512  11.468  18.057  0.00  0.00    +0.000 A 
ATOM     16  C   UNL     1      -0.654  12.474  17.638  0.00  0.00    +0.000 A 
ATOM     17  C   UNL     1       0.302  12.974  18.519  0.00  0.00    +0.000 A 
ATOM     18  C   UNL     1       0.443  12.441  19.810  0.00  0.00    +0.000 A 
ATOM     19 CL   UNL     1       1.899  12.901  20.622  0.00  0.00    +0.000 Cl
ENDBRANCH   5  13
BRANCH   1  21
ATOM     20  C   UNL     1       1.004   7.485  21.277  0.00  0.00    +0.000 C 
ATOM     21  C   UNL     1       0.992   8.810  21.079  0.00  0.00    +0.000 C 
BRANCH  20  25
ATOM     22  C   UNL     1       3.127   5.766  19.003  0.00  0.00    +0.000 A 
ATOM     23  N   UNL     1       2.764   4.773  19.783  0.00  0.00    +0.000 NA
ATOM     24  N   UNL     1       1.894   5.298  20.707  0.00  0.00    +0.000 NA
ATOM     25  C   UNL     1       1.779   6.599  20.477  0.00  0.00    +0.000 A 
ATOM     26  O   UNL     1       2.560   6.962  19.382  0.00  0.00    +0.000 OA
BRANCH  22  29
ATOM     27  C   UNL     1       5.339   4.478  16.287  0.00  0.00    +0.000 A 
ATOM     28  C   UNL     1       4.550   4.508  17.424  0.00  0.00    +0.000 A 
ATOM     29  C   UNL     1       3.998   5.733  17.832  0.00  0.00    +0.000 A 
ATOM     30  C   UNL     1       4.290   6.870  17.076  0.00  0.00    +0.000 A 
ATOM     31  C   UNL     1       5.099   6.733  15.958  0.00  0.00    +0.000 A 
ATOM     32  N   UNL     1       5.628   5.560  15.551  0.00  0.00    +0.000 NA
BRANCH  27  33
ATOM     33  O   UNL     1       5.893   3.317  15.836  0.00  0.00    +0.000 OA
ATOM     34  H   UNL     1       6.159   2.787  16.601  0.00  0.00    +0.000 HD
ENDBRANCH  27  33
ENDBRANCH  22  29
ENDBRANCH  20  25
ENDBRANCH   1  21
TORSDOF 6
ENDMDL
