MODEL 1
REMARK VINA RESULT:      -7.5      0.000      0.000
REMARK  Name = 
REMARK  9 active torsions:
REMARK  status: ('A' for Active; 'I' for Inactive)
REMARK    1  A    between atoms: C_1  and  O_2
REMARK    2  A    between atoms: O_2  and  C_3
REMARK    3  A    between atoms: C_3  and  C_5
REMARK    4  A    between atoms: C_7  and  N_8
REMARK    5  A    between atoms: C_9  and  C_11
REMARK    6  A    between atoms: C_11  and  C_12
REMARK    7  A    between atoms: C_20  and  C_21
REMARK    8  A    between atoms: C_21  and  O_23
REMARK    9  A    between atoms: O_23  and  C_24
REMARK                            x       y       z     vdW  Elec       q    Type
REMARK                         _______ _______ _______ _____ _____    ______ ____
ROOT
ATOM      1  C   UNL     1       3.474   4.229  18.160  0.00  0.00    +0.000 A 
ATOM      2  C   UNL     1       2.772   5.441  18.111  0.00  0.00    +0.000 A 
ATOM      3  C   UNL     1       3.424   6.632  17.809  0.00  0.00    +0.000 A 
ATOM      4  C   UNL     1       4.796   6.607  17.541  0.00  0.00    +0.000 A 
ATOM      5  C   UNL     1       5.513   5.396  17.579  0.00  0.00    +0.000 A 
ATOM      6  C   UNL     1       4.846   4.204  17.889  0.00  0.00    +0.000 A 
ENDROOT
BRANCH   3   7
ATOM      7  N   UNL     1       2.752   7.869  17.699  0.00  0.00    +0.000 N 
ATOM      8  C   UNL     1       1.973   8.477  18.663  0.00  0.00    +0.000 C 
ATOM      9  O   UNL     1       1.843   8.083  19.821  0.00  0.00    +0.000 OA
ATOM     10  H   UNL     1       2.886   8.372  16.825  0.00  0.00    +0.000 HD
BRANCH   8  11
ATOM     11  C   UNL     1       1.143   9.656  18.194  0.00  0.00    +0.000 C 
BRANCH  11  12
ATOM     12  C   UNL     1       0.073  10.198  19.142  0.00  0.00    +0.000 C 
ATOM     13  S   UNL     1       0.672  11.531  20.257  0.00  0.00    +0.000 S 
ATOM     14  C   UNL     1       0.868  12.842  19.016  0.00  0.00    +0.000 C 
ATOM     15  C   UNL     1      -0.453  13.070  18.298  0.00  0.00    +0.000 C 
ATOM     16  N   UNL     1      -1.033  11.893  17.676  0.00  0.00    +0.000 N 
ATOM     17  C   UNL     1      -1.107  10.667  18.292  0.00  0.00    +0.000 C 
ATOM     18  O   UNL     1      -2.043   9.920  18.013  0.00  0.00    +0.000 OA
ATOM     19  H   UNL     1      -1.857  12.057  17.106  0.00  0.00    +0.000 HD
ENDBRANCH  11  12
ENDBRANCH   8  11
ENDBRANCH   3   7
BRANCH   1  20
ATOM     20  C   UNL     1       2.764   2.956  18.447  0.00  0.00    +0.000 C 
ATOM     21  O   UNL     1       2.936   1.925  17.817  0.00  0.00    +0.000 OA
BRANCH  20  23
ATOM     22  C   UNL     1       2.469   2.771  20.770  0.00  0.00    +0.000 C 
ATOM     23  O   UNL     1       1.929   3.130  19.499  0.00  0.00    +0.000 OA
ENDBRANCH  20  23
ENDBRANCH   1  20
BRANCH   5  24
ATOM     24  C   UNL     1       6.966   5.445  17.258  0.00  0.00    +0.000 C 
ATOM     25  O   UNL     1       7.407   5.937  16.230  0.00  0.00    +0.000 OA
BRANCH  24  26
ATOM     26  O   UNL     1       7.698   4.850  18.232  0.00  0.00    +0.000 OA
ATOM     27  C   UNL     1       7.888   5.663  19.392  0.00  0.00    +0.000 C 
ENDBRANCH  24  26
ENDBRANCH   5  24
TORSDOF 7
ENDMDL
MODEL 2
REMARK VINA RESULT:      -7.5      0.835      1.355
REMARK  Name = 
REMARK  9 active torsions:
REMARK  status: ('A' for Active; 'I' for Inactive)
REMARK    1  A    between atoms: C_1  and  O_2
REMARK    2  A    between atoms: O_2  and  C_3
REMARK    3  A    between atoms: C_3  and  C_5
REMARK    4  A    between atoms: C_7  and  N_8
REMARK    5  A    between atoms: C_9  and  C_11
REMARK    6  A    between atoms: C_11  and  C_12
REMARK    7  A    between atoms: C_20  and  C_21
REMARK    8  A    between atoms: C_21  and  O_23
REMARK    9  A    between atoms: O_23  and  C_24
REMARK                            x       y       z     vdW  Elec       q    Type
REMARK                         _______ _______ _______ _____ _____    ______ ____
ROOT
ATOM      1  C   UNL     1       3.291   4.202  17.825  0.00  0.00    +0.000 A 
ATOM      2  C   UNL     1       2.707   5.473  17.908  0.00  0.00    +0.000 A 
ATOM      3  C   UNL     1       3.436   6.616  17.599  0.00  0.00    +0.000 A 
ATOM      4  C   UNL     1       4.766   6.483  17.189  0.00  0.00    +0.000 A 
ATOM      5  C   UNL     1       5.365   5.213  17.094  0.00  0.00    +0.000 A 
ATOM      6  C   UNL     1       4.622   4.069  17.413  0.00  0.00    +0.000 A 
ENDROOT
BRANCH   3   7
ATOM      7  N   UNL     1       2.878   7.912  17.619  0.00  0.00    +0.000 N 
ATOM      8  C   UNL     1       2.126   8.475  18.632  0.00  0.00    +0.000 C 
ATOM      9  O   UNL     1       1.929   7.965  19.734  0.00  0.00    +0.000 OA
ATOM     10  H   UNL     1       3.080   8.497  16.811  0.00  0.00    +0.000 HD
BRANCH   8  11
ATOM     11  C   UNL     1       1.416   9.769  18.286  0.00  0.00    +0.000 C 
BRANCH  11  12
ATOM     12  C   UNL     1       0.307  10.247  19.223  0.00  0.00    +0.000 C 
ATOM     13  S   UNL     1       0.836  11.565  20.390  0.00  0.00    +0.000 S 
ATOM     14  C   UNL     1       1.017  12.919  19.193  0.00  0.00    +0.000 C 
ATOM     15  C   UNL     1      -0.295  13.124  18.451  0.00  0.00    +0.000 C 
ATOM     16  N   UNL     1      -0.821  11.948  17.782  0.00  0.00    +0.000 N 
ATOM     17  C   UNL     1      -0.868  10.703  18.359  0.00  0.00    +0.000 C 
ATOM     18  O   UNL     1      -1.772   9.934  18.037  0.00  0.00    +0.000 OA
ATOM     19  H   UNL     1      -1.636  12.103  17.197  0.00  0.00    +0.000 HD
ENDBRANCH  11  12
ENDBRANCH   8  11
ENDBRANCH   3   7
BRANCH   1  20
ATOM     20  C   UNL     1       2.496   2.983  18.121  0.00  0.00    +0.000 C 
ATOM     21  O   UNL     1       2.906   1.846  17.956  0.00  0.00    +0.000 OA
BRANCH  20  23
ATOM     22  C   UNL     1       1.002   2.916  19.933  0.00  0.00    +0.000 C 
ATOM     23  O   UNL     1       1.280   3.341  18.600  0.00  0.00    +0.000 OA
ENDBRANCH  20  23
ENDBRANCH   1  20
BRANCH   5  24
ATOM     24  C   UNL     1       6.778   5.150  16.627  0.00  0.00    +0.000 C 
ATOM     25  O   UNL     1       7.674   4.632  17.275  0.00  0.00    +0.000 OA
BRANCH  24  26
ATOM     26  O   UNL     1       6.919   5.765  15.427  0.00  0.00    +0.000 OA
ATOM     27  C   UNL     1       6.941   4.868  14.314  0.00  0.00    +0.000 C 
ENDBRANCH  24  26
ENDBRANCH   5  24
TORSDOF 7
ENDMDL
MODEL 3
REMARK VINA RESULT:      -7.4      0.518      3.569
REMARK  Name = 
REMARK  9 active torsions:
REMARK  status: ('A' for Active; 'I' for Inactive)
REMARK    1  A    between atoms: C_1  and  O_2
REMARK    2  A    between atoms: O_2  and  C_3
REMARK    3  A    between atoms: C_3  and  C_5
REMARK    4  A    between atoms: C_7  and  N_8
REMARK    5  A    between atoms: C_9  and  C_11
REMARK    6  A    between atoms: C_11  and  C_12
REMARK    7  A    between atoms: C_20  and  C_21
REMARK    8  A    between atoms: C_21  and  O_23
REMARK    9  A    between atoms: O_23  and  C_24
REMARK                            x       y       z     vdW  Elec       q    Type
REMARK                         _______ _______ _______ _____ _____    ______ ____
ROOT
ATOM      1  C   UNL     1       5.310   5.194  17.511  0.00  0.00    +0.000 A 
ATOM      2  C   UNL     1       4.763   6.484  17.477  0.00  0.00    +0.000 A 
ATOM      3  C   UNL     1       3.394   6.683  17.620  0.00  0.00    +0.000 A 
ATOM      4  C   UNL     1       2.563   5.576  17.811  0.00  0.00    +0.000 A 
ATOM      5  C   UNL     1       3.098   4.275  17.854  0.00  0.00    +0.000 A 
ATOM      6  C   UNL     1       4.477   4.086  17.704  0.00  0.00    +0.000 A 
ENDROOT
BRANCH   3   7
ATOM      7  N   UNL     1       2.803   7.965  17.644  0.00  0.00    +0.000 N 
ATOM      8  C   UNL     1       2.069   8.520  18.674  0.00  0.00    +0.000 C 
ATOM      9  O   UNL     1       1.921   8.019  19.787  0.00  0.00    +0.000 OA
ATOM     10  H   UNL     1       2.964   8.545  16.823  0.00  0.00    +0.000 HD
BRANCH   8  11
ATOM     11  C   UNL     1       1.314   9.791  18.336  0.00  0.00    +0.000 C 
BRANCH  11  12
ATOM     12  C   UNL     1       0.022  10.079  19.101  0.00  0.00    +0.000 C 
ATOM     13  S   UNL     1       0.233  11.254  20.500  0.00  0.00    +0.000 S 
ATOM     14  C   UNL     1       0.520  12.764  19.533  0.00  0.00    +0.000 C 
ATOM     15  C   UNL     1      -0.651  12.998  18.590  0.00  0.00    +0.000 C 
ATOM     16  N   UNL     1      -0.958  11.897  17.695  0.00  0.00    +0.000 N 
ATOM     17  C   UNL     1      -1.011  10.585  18.097  0.00  0.00    +0.000 C 
ATOM     18  O   UNL     1      -1.782   9.820  17.520  0.00  0.00    +0.000 OA
ATOM     19  H   UNL     1      -1.665  12.086  16.992  0.00  0.00    +0.000 HD
ENDBRANCH  11  12
ENDBRANCH   8  11
ENDBRANCH   3   7
BRANCH   1  20
ATOM     20  C   UNL     1       6.777   4.992  17.394  0.00  0.00    +0.000 C 
ATOM     21  O   UNL     1       7.401   5.128  16.355  0.00  0.00    +0.000 OA
BRANCH  20  23
ATOM     22  C   UNL     1       7.907   5.713  19.323  0.00  0.00    +0.000 C 
ATOM     23  O   UNL     1       7.285   4.651  18.602  0.00  0.00    +0.000 OA
ENDBRANCH  20  23
ENDBRANCH   1  20
BRANCH   5  24
ATOM     24  C   UNL     1       2.152   3.148  18.085  0.00  0.00    +0.000 C 
ATOM     25  O   UNL     1       2.191   2.102  17.455  0.00  0.00    +0.000 OA
BRANCH  24  26
ATOM     26  O   UNL     1       1.251   3.462  19.048  0.00  0.00    +0.000 OA
ATOM     27  C   UNL     1       1.441   2.752  20.274  0.00  0.00    +0.000 C 
ENDBRANCH  24  26
ENDBRANCH   5  24
TORSDOF 7
ENDMDL
MODEL 4
REMARK VINA RESULT:      -7.4      0.702      3.665
REMARK  Name = 
REMARK  9 active torsions:
REMARK  status: ('A' for Active; 'I' for Inactive)
REMARK    1  A    between atoms: C_1  and  O_2
REMARK    2  A    between atoms: O_2  and  C_3
REMARK    3  A    between atoms: C_3  and  C_5
REMARK    4  A    between atoms: C_7  and  N_8
REMARK    5  A    between atoms: C_9  and  C_11
REMARK    6  A    between atoms: C_11  and  C_12
REMARK    7  A    between atoms: C_20  and  C_21
REMARK    8  A    between atoms: C_21  and  O_23
REMARK    9  A    between atoms: O_23  and  C_24
REMARK                            x       y       z     vdW  Elec       q    Type
REMARK                         _______ _______ _______ _____ _____    ______ ____
ROOT
ATOM      1  C   UNL     1       5.105   5.219  17.786  0.00  0.00    +0.000 A 
ATOM      2  C   UNL     1       4.569   6.508  17.672  0.00  0.00    +0.000 A 
ATOM      3  C   UNL     1       3.198   6.722  17.769  0.00  0.00    +0.000 A 
ATOM      4  C   UNL     1       2.354   5.630  17.994  0.00  0.00    +0.000 A 
ATOM      5  C   UNL     1       2.879   4.330  18.117  0.00  0.00    +0.000 A 
ATOM      6  C   UNL     1       4.261   4.127  18.013  0.00  0.00    +0.000 A 
ENDROOT
BRANCH   3   7
ATOM      7  N   UNL     1       2.615   8.007  17.712  0.00  0.00    +0.000 N 
ATOM      8  C   UNL     1       1.905   8.640  18.713  0.00  0.00    +0.000 C 
ATOM      9  O   UNL     1       1.776   8.221  19.862  0.00  0.00    +0.000 OA
ATOM     10  H   UNL     1       2.763   8.525  16.849  0.00  0.00    +0.000 HD
BRANCH   8  11
ATOM     11  C   UNL     1       1.151   9.888  18.300  0.00  0.00    +0.000 C 
BRANCH  11  12
ATOM     12  C   UNL     1       0.064  10.410  19.239  0.00  0.00    +0.000 C 
ATOM     13  S   UNL     1       0.620  11.778  20.334  0.00  0.00    +0.000 S 
ATOM     14  C   UNL     1       0.776  13.076  19.074  0.00  0.00    +0.000 C 
ATOM     15  C   UNL     1      -0.552  13.251  18.353  0.00  0.00    +0.000 C 
ATOM     16  N   UNL     1      -1.094  12.047  17.749  0.00  0.00    +0.000 N 
ATOM     17  C   UNL     1      -1.130  10.829  18.382  0.00  0.00    +0.000 C 
ATOM     18  O   UNL     1      -2.041  10.049  18.115  0.00  0.00    +0.000 OA
ATOM     19  H   UNL     1      -1.922  12.177  17.176  0.00  0.00    +0.000 HD
ENDBRANCH  11  12
ENDBRANCH   8  11
ENDBRANCH   3   7
BRANCH   1  20
ATOM     20  C   UNL     1       6.574   5.002  17.718  0.00  0.00    +0.000 C 
ATOM     21  O   UNL     1       7.225   4.479  18.606  0.00  0.00    +0.000 OA
BRANCH  20  23
ATOM     22  C   UNL     1       6.888   4.576  15.430  0.00  0.00    +0.000 C 
ATOM     23  O   UNL     1       7.046   5.463  16.535  0.00  0.00    +0.000 OA
ENDBRANCH  20  23
ENDBRANCH   1  20
BRANCH   5  24
ATOM     24  C   UNL     1       1.920   3.222  18.380  0.00  0.00    +0.000 C 
ATOM     25  O   UNL     1       1.923   2.172  17.755  0.00  0.00    +0.000 OA
BRANCH  24  26
ATOM     26  O   UNL     1       1.050   3.557  19.365  0.00  0.00    +0.000 OA
ATOM     27  C   UNL     1       1.462   3.142  20.669  0.00  0.00    +0.000 C 
ENDBRANCH  24  26
ENDBRANCH   5  24
TORSDOF 7
ENDMDL
MODEL 5
REMARK VINA RESULT:      -7.3      5.221      6.667
REMARK  Name = 
REMARK  9 active torsions:
REMARK  status: ('A' for Active; 'I' for Inactive)
REMARK    1  A    between atoms: C_1  and  O_2
REMARK    2  A    between atoms: O_2  and  C_3
REMARK    3  A    between atoms: C_3  and  C_5
REMARK    4  A    between atoms: C_7  and  N_8
REMARK    5  A    between atoms: C_9  and  C_11
REMARK    6  A    between atoms: C_11  and  C_12
REMARK    7  A    between atoms: C_20  and  C_21
REMARK    8  A    between atoms: C_21  and  O_23
REMARK    9  A    between atoms: O_23  and  C_24
REMARK                            x       y       z     vdW  Elec       q    Type
REMARK                         _______ _______ _______ _____ _____    ______ ____
ROOT
ATOM      1  C   UNL     1       5.830   4.702  18.456  0.00  0.00    +0.000 A 
ATOM      2  C   UNL     1       6.624   5.722  18.997  0.00  0.00    +0.000 A 
ATOM      3  C   UNL     1       7.510   6.438  18.198  0.00  0.00    +0.000 A 
ATOM      4  C   UNL     1       7.594   6.133  16.836  0.00  0.00    +0.000 A 
ATOM      5  C   UNL     1       6.799   5.115  16.277  0.00  0.00    +0.000 A 
ATOM      6  C   UNL     1       5.913   4.399  17.092  0.00  0.00    +0.000 A 
ENDROOT
BRANCH   3   7
ATOM      7  N   UNL     1       8.292   7.507  18.685  0.00  0.00    +0.000 N 
ATOM      8  C   UNL     1       8.218   8.830  18.299  0.00  0.00    +0.000 C 
ATOM      9  O   UNL     1       7.366   9.303  17.549  0.00  0.00    +0.000 OA
ATOM     10  H   UNL     1       8.958   7.273  19.419  0.00  0.00    +0.000 HD
BRANCH   8  11
ATOM     11  C   UNL     1       9.354   9.719  18.769  0.00  0.00    +0.000 C 
BRANCH  11  12
ATOM     12  C   UNL     1       9.005  11.126  19.254  0.00  0.00    +0.000 C 
ATOM     13  S   UNL     1       9.970  11.666  20.723  0.00  0.00    +0.000 S 
ATOM     14  C   UNL     1      11.586  11.863  19.920  0.00  0.00    +0.000 C 
ATOM     15  C   UNL     1      11.465  12.842  18.761  0.00  0.00    +0.000 C 
ATOM     16  N   UNL     1      10.463  12.507  17.766  0.00  0.00    +0.000 N 
ATOM     17  C   UNL     1       9.194  12.084  18.078  0.00  0.00    +0.000 C 
ATOM     18  O   UNL     1       8.273  12.357  17.311  0.00  0.00    +0.000 OA
ATOM     19  H   UNL     1      10.451  13.095  16.938  0.00  0.00    +0.000 HD
ENDBRANCH  11  12
ENDBRANCH   8  11
ENDBRANCH   3   7
BRANCH   1  20
ATOM     20  C   UNL     1       4.859   3.968  19.307  0.00  0.00    +0.000 C 
ATOM     21  O   UNL     1       5.070   2.864  19.782  0.00  0.00    +0.000 OA
BRANCH  20  23
ATOM     22  C   UNL     1       2.524   4.080  19.078  0.00  0.00    +0.000 C 
ATOM     23  O   UNL     1       3.741   4.715  19.468  0.00  0.00    +0.000 OA
ENDBRANCH  20  23
ENDBRANCH   1  20
BRANCH   5  24
ATOM     24  C   UNL     1       6.926   4.865  14.814  0.00  0.00    +0.000 C 
ATOM     25  O   UNL     1       7.735   5.445  14.105  0.00  0.00    +0.000 OA
BRANCH  24  26
ATOM     26  O   UNL     1       6.015   3.952  14.398  0.00  0.00    +0.000 OA
ATOM     27  C   UNL     1       6.128   3.609  13.015  0.00  0.00    +0.000 C 
ENDBRANCH  24  26
ENDBRANCH   5  24
TORSDOF 7
ENDMDL
MODEL 6
REMARK VINA RESULT:      -7.3      4.573      6.235
REMARK  Name = 
REMARK  9 active torsions:
REMARK  status: ('A' for Active; 'I' for Inactive)
REMARK    1  A    between atoms: C_1  and  O_2
REMARK    2  A    between atoms: O_2  and  C_3
REMARK    3  A    between atoms: C_3  and  C_5
REMARK    4  A    between atoms: C_7  and  N_8
REMARK    5  A    between atoms: C_9  and  C_11
REMARK    6  A    between atoms: C_11  and  C_12
REMARK    7  A    between atoms: C_20  and  C_21
REMARK    8  A    between atoms: C_21  and  O_23
REMARK    9  A    between atoms: O_23  and  C_24
REMARK                            x       y       z     vdW  Elec       q    Type
REMARK                         _______ _______ _______ _____ _____    ______ ____
ROOT
ATOM      1  C   UNL     1       6.591   4.459  14.791  0.00  0.00    +0.000 A 
ATOM      2  C   UNL     1       5.575   3.722  15.412  0.00  0.00    +0.000 A 
ATOM      3  C   UNL     1       5.258   3.930  16.751  0.00  0.00    +0.000 A 
ATOM      4  C   UNL     1       5.961   4.898  17.473  0.00  0.00    +0.000 A 
ATOM      5  C   UNL     1       6.980   5.652  16.861  0.00  0.00    +0.000 A 
ATOM      6  C   UNL     1       7.293   5.430  15.514  0.00  0.00    +0.000 A 
ENDROOT
BRANCH   3   7
ATOM      7  N   UNL     1       4.210   3.248  17.407  0.00  0.00    +0.000 N 
ATOM      8  C   UNL     1       4.144   2.925  18.748  0.00  0.00    +0.000 C 
ATOM      9  O   UNL     1       4.945   3.293  19.605  0.00  0.00    +0.000 OA
ATOM     10  H   UNL     1       3.410   2.999  16.829  0.00  0.00    +0.000 HD
BRANCH   8  11
ATOM     11  C   UNL     1       3.049   1.952  19.139  0.00  0.00    +0.000 C 
BRANCH  11  12
ATOM     12  C   UNL     1       1.654   2.518  19.408  0.00  0.00    +0.000 C 
ATOM     13  S   UNL     1       1.253   2.689  21.194  0.00  0.00    +0.000 S 
ATOM     14  C   UNL     1       2.371   4.065  21.584  0.00  0.00    +0.000 C 
ATOM     15  C   UNL     1       2.061   5.248  20.679  0.00  0.00    +0.000 C 
ATOM     16  N   UNL     1       2.108   4.970  19.255  0.00  0.00    +0.000 N 
ATOM     17  C   UNL     1       1.547   3.857  18.679  0.00  0.00    +0.000 C 
ATOM     18  O   UNL     1       1.118   3.936  17.530  0.00  0.00    +0.000 OA
ATOM     19  H   UNL     1       2.009   5.776  18.645  0.00  0.00    +0.000 HD
ENDBRANCH  11  12
ENDBRANCH   8  11
ENDBRANCH   3   7
BRANCH   1  20
ATOM     20  C   UNL     1       6.899   4.258  13.352  0.00  0.00    +0.000 C 
ATOM     21  O   UNL     1       7.624   4.994  12.702  0.00  0.00    +0.000 OA
BRANCH  20  23
ATOM     22  C   UNL     1       5.280   3.375  11.897  0.00  0.00    +0.000 C 
ATOM     23  O   UNL     1       6.265   3.148  12.903  0.00  0.00    +0.000 OA
ENDBRANCH  20  23
ENDBRANCH   1  20
BRANCH   5  24
ATOM     24  C   UNL     1       7.668   6.682  17.688  0.00  0.00    +0.000 C 
ATOM     25  O   UNL     1       8.020   6.487  18.841  0.00  0.00    +0.000 OA
BRANCH  24  26
ATOM     26  O   UNL     1       7.808   7.841  16.998  0.00  0.00    +0.000 OA
ATOM     27  C   UNL     1       7.899   9.001  17.828  0.00  0.00    +0.000 C 
ENDBRANCH  24  26
ENDBRANCH   5  24
TORSDOF 7
ENDMDL
MODEL 7
REMARK VINA RESULT:      -7.2      1.695      3.822
REMARK  Name = 
REMARK  9 active torsions:
REMARK  status: ('A' for Active; 'I' for Inactive)
REMARK    1  A    between atoms: C_1  and  O_2
REMARK    2  A    between atoms: O_2  and  C_3
REMARK    3  A    between atoms: C_3  and  C_5
REMARK    4  A    between atoms: C_7  and  N_8
REMARK    5  A    between atoms: C_9  and  C_11
REMARK    6  A    between atoms: C_11  and  C_12
REMARK    7  A    between atoms: C_20  and  C_21
REMARK    8  A    between atoms: C_21  and  O_23
REMARK    9  A    between atoms: O_23  and  C_24
REMARK                            x       y       z     vdW  Elec       q    Type
REMARK                         _______ _______ _______ _____ _____    ______ ____
ROOT
ATOM      1  C   UNL     1       4.679   6.018  16.952  0.00  0.00    +0.000 A 
ATOM      2  C   UNL     1       4.003   7.064  17.593  0.00  0.00    +0.000 A 
ATOM      3  C   UNL     1       2.838   6.826  18.315  0.00  0.00    +0.000 A 
ATOM      4  C   UNL     1       2.349   5.519  18.404  0.00  0.00    +0.000 A 
ATOM      5  C   UNL     1       3.021   4.456  17.771  0.00  0.00    +0.000 A 
ATOM      6  C   UNL     1       4.191   4.709  17.044  0.00  0.00    +0.000 A 
ENDROOT
BRANCH   3   7
ATOM      7  N   UNL     1       2.150   7.838  19.018  0.00  0.00    +0.000 N 
ATOM      8  C   UNL     1       1.671   9.026  18.503  0.00  0.00    +0.000 C 
ATOM      9  O   UNL     1       1.668   9.331  17.312  0.00  0.00    +0.000 OA
ATOM     10  H   UNL     1       1.965   7.650  20.002  0.00  0.00    +0.000 HD
BRANCH   8  11
ATOM     11  C   UNL     1       1.222  10.054  19.523  0.00  0.00    +0.000 C 
BRANCH  11  12
ATOM     12  C   UNL     1      -0.181   9.908  20.114  0.00  0.00    +0.000 C 
ATOM     13  S   UNL     1      -0.319  10.488  21.854  0.00  0.00    +0.000 S 
ATOM     14  C   UNL     1      -0.150  12.270  21.551  0.00  0.00    +0.000 C 
ATOM     15  C   UNL     1      -1.222  12.726  20.572  0.00  0.00    +0.000 C 
ATOM     16  N   UNL     1      -1.250  12.017  19.306  0.00  0.00    +0.000 N 
ATOM     17  C   UNL     1      -1.152  10.652  19.198  0.00  0.00    +0.000 C 
ATOM     18  O   UNL     1      -1.723  10.088  18.267  0.00  0.00    +0.000 OA
ATOM     19  H   UNL     1      -1.888  12.387  18.609  0.00  0.00    +0.000 HD
ENDBRANCH  11  12
ENDBRANCH   8  11
ENDBRANCH   3   7
BRANCH   1  20
ATOM     20  C   UNL     1       5.943   6.274  16.215  0.00  0.00    +0.000 C 
ATOM     21  O   UNL     1       6.892   6.881  16.682  0.00  0.00    +0.000 OA
BRANCH  20  23
ATOM     22  C   UNL     1       6.929   4.839  14.637  0.00  0.00    +0.000 C 
ATOM     23  O   UNL     1       5.865   5.726  14.978  0.00  0.00    +0.000 OA
ENDBRANCH  20  23
ENDBRANCH   1  20
BRANCH   5  24
ATOM     24  C   UNL     1       2.454   3.089  17.933  0.00  0.00    +0.000 C 
ATOM     25  O   UNL     1       1.255   2.857  17.927  0.00  0.00    +0.000 OA
BRANCH  24  26
ATOM     26  O   UNL     1       3.439   2.175  18.114  0.00  0.00    +0.000 OA
ATOM     27  C   UNL     1       3.931   2.112  19.455  0.00  0.00    +0.000 C 
ENDBRANCH  24  26
ENDBRANCH   5  24
TORSDOF 7
ENDMDL
MODEL 8
REMARK VINA RESULT:      -7.2      0.946      1.046
REMARK  Name = 
REMARK  9 active torsions:
REMARK  status: ('A' for Active; 'I' for Inactive)
REMARK    1  A    between atoms: C_1  and  O_2
REMARK    2  A    between atoms: O_2  and  C_3
REMARK    3  A    between atoms: C_3  and  C_5
REMARK    4  A    between atoms: C_7  and  N_8
REMARK    5  A    between atoms: C_9  and  C_11
REMARK    6  A    between atoms: C_11  and  C_12
REMARK    7  A    between atoms: C_20  and  C_21
REMARK    8  A    between atoms: C_21  and  O_23
REMARK    9  A    between atoms: O_23  and  C_24
REMARK                            x       y       z     vdW  Elec       q    Type
REMARK                         _______ _______ _______ _____ _____    ______ ____
ROOT
ATOM      1  C   UNL     1       2.715   4.030  18.532  0.00  0.00    +0.000 A 
ATOM      2  C   UNL     1       2.241   5.348  18.526  0.00  0.00    +0.000 A 
ATOM      3  C   UNL     1       2.942   6.357  17.875  0.00  0.00    +0.000 A 
ATOM      4  C   UNL     1       4.130   6.038  17.211  0.00  0.00    +0.000 A 
ATOM      5  C   UNL     1       4.616   4.718  17.201  0.00  0.00    +0.000 A 
ATOM      6  C   UNL     1       3.903   3.711  17.864  0.00  0.00    +0.000 A 
ENDROOT
BRANCH   3   7
ATOM      7  N   UNL     1       2.480   7.689  17.799  0.00  0.00    +0.000 N 
ATOM      8  C   UNL     1       1.943   8.439  18.826  0.00  0.00    +0.000 C 
ATOM      9  O   UNL     1       1.897   8.094  20.006  0.00  0.00    +0.000 OA
ATOM     10  H   UNL     1       2.585   8.146  16.896  0.00  0.00    +0.000 HD
BRANCH   8  11
ATOM     11  C   UNL     1       1.271   9.735  18.416  0.00  0.00    +0.000 C 
BRANCH  11  12
ATOM     12  C   UNL     1       0.111  10.240  19.274  0.00  0.00    +0.000 C 
ATOM     13  S   UNL     1       0.578  11.585  20.438  0.00  0.00    +0.000 S 
ATOM     14  C   UNL     1       0.838  12.907  19.222  0.00  0.00    +0.000 C 
ATOM     15  C   UNL     1      -0.427  13.100  18.399  0.00  0.00    +0.000 C 
ATOM     16  N   UNL     1      -0.920  11.911  17.728  0.00  0.00    +0.000 N 
ATOM     17  C   UNL     1      -1.008  10.681  18.332  0.00  0.00    +0.000 C 
ATOM     18  O   UNL     1      -1.896   9.908  17.975  0.00  0.00    +0.000 OA
ATOM     19  H   UNL     1      -1.698  12.055  17.092  0.00  0.00    +0.000 HD
ENDBRANCH  11  12
ENDBRANCH   8  11
ENDBRANCH   3   7
BRANCH   1  20
ATOM     20  C   UNL     1       1.942   2.951  19.198  0.00  0.00    +0.000 C 
ATOM     21  O   UNL     1       1.907   1.797  18.804  0.00  0.00    +0.000 OA
BRANCH  20  23
ATOM     22  C   UNL     1       1.784   2.965  21.542  0.00  0.00    +0.000 C 
ATOM     23  O   UNL     1       1.310   3.452  20.287  0.00  0.00    +0.000 OA
ENDBRANCH  20  23
ENDBRANCH   1  20
BRANCH   5  24
ATOM     24  C   UNL     1       5.875   4.451  16.451  0.00  0.00    +0.000 C 
ATOM     25  O   UNL     1       5.983   3.562  15.621  0.00  0.00    +0.000 OA
BRANCH  24  26
ATOM     26  O   UNL     1       6.860   5.297  16.842  0.00  0.00    +0.000 OA
ATOM     27  C   UNL     1       7.598   4.841  17.978  0.00  0.00    +0.000 C 
ENDBRANCH  24  26
ENDBRANCH   5  24
TORSDOF 7
ENDMDL
MODEL 9
REMARK VINA RESULT:      -7.2      1.478      1.884
REMARK  Name = 
REMARK  9 active torsions:
REMARK  status: ('A' for Active; 'I' for Inactive)
REMARK    1  A    between atoms: C_1  and  O_2
REMARK    2  A    between atoms: O_2  and  C_3
REMARK    3  A    between atoms: C_3  and  C_5
REMARK    4  A    between atoms: C_7  and  N_8
REMARK    5  A    between atoms: C_9  and  C_11
REMARK    6  A    between atoms: C_11  and  C_12
REMARK    7  A    between atoms: C_20  and  C_21
REMARK    8  A    between atoms: C_21  and  O_23
REMARK    9  A    between atoms: O_23  and  C_24
REMARK                            x       y       z     vdW  Elec       q    Type
REMARK                         _______ _______ _______ _____ _____    ______ ____
ROOT
ATOM      1  C   UNL     1       4.298   4.250  18.553  0.00  0.00    +0.000 A 
ATOM      2  C   UNL     1       3.633   5.482  18.609  0.00  0.00    +0.000 A 
ATOM      3  C   UNL     1       3.883   6.473  17.666  0.00  0.00    +0.000 A 
ATOM      4  C   UNL     1       4.806   6.222  16.646  0.00  0.00    +0.000 A 
ATOM      5  C   UNL     1       5.477   4.988  16.572  0.00  0.00    +0.000 A 
ATOM      6  C   UNL     1       5.219   3.999  17.530  0.00  0.00    +0.000 A 
ENDROOT
BRANCH   3   7
ATOM      7  N   UNL     1       3.202   7.710  17.651  0.00  0.00    +0.000 N 
ATOM      8  C   UNL     1       2.299   8.169  18.589  0.00  0.00    +0.000 C 
ATOM      9  O   UNL     1       2.040   7.612  19.654  0.00  0.00    +0.000 OA
ATOM     10  H   UNL     1       3.429   8.334  16.880  0.00  0.00    +0.000 HD
BRANCH   8  11
ATOM     11  C   UNL     1       1.506   9.399  18.194  0.00  0.00    +0.000 C 
BRANCH  11  12
ATOM     12  C   UNL     1       0.352   9.827  19.102  0.00  0.00    +0.000 C 
ATOM     13  S   UNL     1       0.862  10.929  20.482  0.00  0.00    +0.000 S 
ATOM     14  C   UNL     1       1.232  12.416  19.508  0.00  0.00    +0.000 C 
ATOM     15  C   UNL     1       0.005  12.820  18.704  0.00  0.00    +0.000 C 
ATOM     16  N   UNL     1      -0.535  11.790  17.835  0.00  0.00    +0.000 N 
ATOM     17  C   UNL     1      -0.712  10.484  18.224  0.00  0.00    +0.000 C 
ATOM     18  O   UNL     1      -1.632   9.837  17.727  0.00  0.00    +0.000 OA
ATOM     19  H   UNL     1      -1.285  12.084  17.218  0.00  0.00    +0.000 HD
ENDBRANCH  11  12
ENDBRANCH   8  11
ENDBRANCH   3   7
BRANCH   1  20
ATOM     20  C   UNL     1       3.998   3.183  19.541  0.00  0.00    +0.000 C 
ATOM     21  O   UNL     1       4.849   2.485  20.067  0.00  0.00    +0.000 OA
BRANCH  20  23
ATOM     22  C   UNL     1       1.956   2.177  18.963  0.00  0.00    +0.000 C 
ATOM     23  O   UNL     1       2.662   3.128  19.758  0.00  0.00    +0.000 OA
ENDBRANCH  20  23
ENDBRANCH   1  20
BRANCH   5  24
ATOM     24  C   UNL     1       6.426   4.785  15.442  0.00  0.00    +0.000 C 
ATOM     25  O   UNL     1       7.389   5.510  15.240  0.00  0.00    +0.000 OA
BRANCH  24  26
ATOM     26  O   UNL     1       6.052   3.729  14.679  0.00  0.00    +0.000 OA
ATOM     27  C   UNL     1       6.336   3.890  13.287  0.00  0.00    +0.000 C 
ENDBRANCH  24  26
ENDBRANCH   5  24
TORSDOF 7
ENDMDL
