MODEL 1
REMARK VINA RESULT:      -7.5      0.000      0.000
REMARK  Name = 
REMARK  2 active torsions:
REMARK  status: ('A' for Active; 'I' for Inactive)
REMARK    1  A    between atoms: C_2  and  C_14
REMARK    2  A    between atoms: N_3  and  C_4
REMARK                            x       y       z     vdW  Elec       q    Type
REMARK                         _______ _______ _______ _____ _____    ______ ____
ROOT
ATOM      1  O   UNL     1       0.572   6.497  20.706  0.00  0.00    +0.000 OA
ATOM      2  C   UNL     1       1.488   7.264  20.424  0.00  0.00    +0.000 C 
ATOM      3  N   UNL     1       2.648   6.843  19.823  0.00  0.00    +0.000 N 
ATOM      4  H   UNL     1       3.331   7.557  19.603  0.00  0.00    +0.000 HD
ENDROOT
BRANCH   2   5
ATOM      5  C   UNL     1       1.487   8.725  20.800  0.00  0.00    +0.000 C 
ATOM      6 CL   UNL     1       1.696   9.070  22.500  0.00  0.00    +0.000 Cl
ATOM      7  C   UNL     1       1.217   9.692  19.907  0.00  0.00    +0.000 C 
ATOM      8  S   UNL     1       0.847  11.342  20.305  0.00  0.00    +0.000 S 
ATOM      9  C   UNL     1      -0.768  11.369  19.531  0.00  0.00    +0.000 A 
ATOM     10  C   UNL     1      -1.731  12.271  19.996  0.00  0.00    +0.000 A 
ATOM     11  C   UNL     1      -2.990  12.323  19.397  0.00  0.00    +0.000 A 
ATOM     12  C   UNL     1      -3.296  11.476  18.332  0.00  0.00    +0.000 A 
ATOM     13  C   UNL     1      -2.338  10.583  17.850  0.00  0.00    +0.000 A 
ATOM     14  C   UNL     1      -1.076  10.528  18.445  0.00  0.00    +0.000 A 
ATOM     15  N   UNL     1      -0.121   9.659  17.894  0.00  0.00    +0.000 N 
ATOM     16  C   UNL     1       1.092   9.366  18.462  0.00  0.00    +0.000 C 
ATOM     17  O   UNL     1       2.010   8.851  17.830  0.00  0.00    +0.000 OA
ATOM     18  H   UNL     1      -0.280   9.237  16.990  0.00  0.00    +0.000 HD
ENDBRANCH   2   5
BRANCH   3  19
ATOM     19  C   UNL     1       2.872   5.490  19.328  0.00  0.00    +0.000 C 
ATOM     20  C   UNL     1       2.831   5.446  17.784  0.00  0.00    +0.000 C 
ATOM     21  C   UNL     1       3.979   6.301  17.212  0.00  0.00    +0.000 C 
ATOM     22  C   UNL     1       5.338   5.767  17.704  0.00  0.00    +0.000 C 
ATOM     23  C   UNL     1       5.505   4.314  17.230  0.00  0.00    +0.000 C 
ATOM     24  C   UNL     1       4.367   3.442  17.794  0.00  0.00    +0.000 C 
ATOM     25  C   UNL     1       3.018   3.992  17.307  0.00  0.00    +0.000 C 
ATOM     26  C   UNL     1       4.399   3.490  19.333  0.00  0.00    +0.000 C 
ATOM     27  C   UNL     1       4.235   4.943  19.820  0.00  0.00    +0.000 C 
ATOM     28  C   UNL     1       5.394   5.783  19.240  0.00  0.00    +0.000 C 
ENDBRANCH   3  19
TORSDOF 2
ENDMDL
MODEL 2
REMARK VINA RESULT:      -7.1      1.038      1.318
REMARK  Name = 
REMARK  2 active torsions:
REMARK  status: ('A' for Active; 'I' for Inactive)
REMARK    1  A    between atoms: C_2  and  C_14
REMARK    2  A    between atoms: N_3  and  C_4
REMARK                            x       y       z     vdW  Elec       q    Type
REMARK                         _______ _______ _______ _____ _____    ______ ____
ROOT
ATOM      1  O   UNL     1       1.393   5.945  19.581  0.00  0.00    +0.000 OA
ATOM      2  C   UNL     1       2.075   6.951  19.409  0.00  0.00    +0.000 C 
ATOM      3  N   UNL     1       3.226   6.946  18.659  0.00  0.00    +0.000 N 
ATOM      4  H   UNL     1       3.701   7.833  18.552  0.00  0.00    +0.000 HD
ENDROOT
BRANCH   2   5
ATOM      5  C   UNL     1       1.789   8.269  20.083  0.00  0.00    +0.000 C 
ATOM      6 CL   UNL     1       1.785   8.241  21.831  0.00  0.00    +0.000 Cl
ATOM      7  C   UNL     1       1.435   9.365  19.390  0.00  0.00    +0.000 C 
ATOM      8  S   UNL     1       0.751  10.805  20.081  0.00  0.00    +0.000 S 
ATOM      9  C   UNL     1      -0.770  10.768  19.136  0.00  0.00    +0.000 A 
ATOM     10  C   UNL     1      -1.911  11.385  19.659  0.00  0.00    +0.000 A 
ATOM     11  C   UNL     1      -3.103  11.385  18.932  0.00  0.00    +0.000 A 
ATOM     12  C   UNL     1      -3.163  10.770  17.682  0.00  0.00    +0.000 A 
ATOM     13  C   UNL     1      -2.026  10.165  17.144  0.00  0.00    +0.000 A 
ATOM     14  C   UNL     1      -0.832  10.164  17.866  0.00  0.00    +0.000 A 
ATOM     15  N   UNL     1       0.305   9.597  17.266  0.00  0.00    +0.000 N 
ATOM     16  C   UNL     1       1.496   9.365  17.905  0.00  0.00    +0.000 C 
ATOM     17  O   UNL     1       2.541   9.153  17.297  0.00  0.00    +0.000 OA
ATOM     18  H   UNL     1       0.301   9.376  16.280  0.00  0.00    +0.000 HD
ENDBRANCH   2   5
BRANCH   3  19
ATOM     19  C   UNL     1       3.690   5.808  17.876  0.00  0.00    +0.000 C 
ATOM     20  C   UNL     1       4.600   6.263  16.713  0.00  0.00    +0.000 C 
ATOM     21  C   UNL     1       5.868   6.933  17.280  0.00  0.00    +0.000 C 
ATOM     22  C   UNL     1       6.638   5.943  18.175  0.00  0.00    +0.000 C 
ATOM     23  C   UNL     1       7.044   4.721  17.336  0.00  0.00    +0.000 C 
ATOM     24  C   UNL     1       5.788   4.036  16.763  0.00  0.00    +0.000 C 
ATOM     25  C   UNL     1       5.023   5.036  15.882  0.00  0.00    +0.000 C 
ATOM     26  C   UNL     1       4.875   3.588  17.919  0.00  0.00    +0.000 C 
ATOM     27  C   UNL     1       4.463   4.806  18.770  0.00  0.00    +0.000 C 
ATOM     28  C   UNL     1       5.744   5.461  19.330  0.00  0.00    +0.000 C 
ENDBRANCH   3  19
TORSDOF 2
ENDMDL
MODEL 3
REMARK VINA RESULT:      -6.9      7.640      8.550
REMARK  Name = 
REMARK  2 active torsions:
REMARK  status: ('A' for Active; 'I' for Inactive)
REMARK    1  A    between atoms: C_2  and  C_14
REMARK    2  A    between atoms: N_3  and  C_4
REMARK                            x       y       z     vdW  Elec       q    Type
REMARK                         _______ _______ _______ _____ _____    ______ ____
ROOT
ATOM      1  O   UNL     1       6.975  13.856  21.341  0.00  0.00    +0.000 OA
ATOM      2  C   UNL     1       7.284  14.635  20.444  0.00  0.00    +0.000 C 
ATOM      3  N   UNL     1       8.491  14.573  19.792  0.00  0.00    +0.000 N 
ATOM      4  H   UNL     1       8.639  15.240  19.046  0.00  0.00    +0.000 HD
ENDROOT
BRANCH   2   5
ATOM      5  C   UNL     1       6.426  15.806  20.034  0.00  0.00    +0.000 C 
ATOM      6 CL   UNL     1       6.447  17.177  21.117  0.00  0.00    +0.000 Cl
ATOM      7  C   UNL     1       5.602  15.751  18.974  0.00  0.00    +0.000 C 
ATOM      8  S   UNL     1       4.335  16.890  18.635  0.00  0.00    +0.000 S 
ATOM      9  C   UNL     1       2.996  15.700  18.649  0.00  0.00    +0.000 A 
ATOM     10  C   UNL     1       1.703  16.134  18.956  0.00  0.00    +0.000 A 
ATOM     11  C   UNL     1       0.641  15.228  18.955  0.00  0.00    +0.000 A 
ATOM     12  C   UNL     1       0.864  13.886  18.650  0.00  0.00    +0.000 A 
ATOM     13  C   UNL     1       2.148  13.445  18.327  0.00  0.00    +0.000 A 
ATOM     14  C   UNL     1       3.213  14.347  18.325  0.00  0.00    +0.000 A 
ATOM     15  N   UNL     1       4.479  13.878  17.938  0.00  0.00    +0.000 N 
ATOM     16  C   UNL     1       5.646  14.588  18.048  0.00  0.00    +0.000 C 
ATOM     17  O   UNL     1       6.668  14.279  17.442  0.00  0.00    +0.000 OA
ATOM     18  H   UNL     1       4.571  12.974  17.495  0.00  0.00    +0.000 HD
ENDBRANCH   2   5
BRANCH   3  19
ATOM     19  C   UNL     1       9.472  13.511  19.981  0.00  0.00    +0.000 C 
ATOM     20  C   UNL     1       9.130  12.275  19.118  0.00  0.00    +0.000 C 
ATOM     21  C   UNL     1       9.198  12.652  17.625  0.00  0.00    +0.000 C 
ATOM     22  C   UNL     1      10.610  13.154  17.266  0.00  0.00    +0.000 C 
ATOM     23  C   UNL     1      11.626  12.037  17.551  0.00  0.00    +0.000 C 
ATOM     24  C   UNL     1      11.575  11.647  19.041  0.00  0.00    +0.000 C 
ATOM     25  C   UNL     1      10.160  11.161  19.390  0.00  0.00    +0.000 C 
ATOM     26  C   UNL     1      11.906  12.879  19.904  0.00  0.00    +0.000 C 
ATOM     27  C   UNL     1      10.895  14.008  19.625  0.00  0.00    +0.000 C 
ATOM     28  C   UNL     1      10.979  14.373  18.127  0.00  0.00    +0.000 C 
ENDBRANCH   3  19
TORSDOF 2
ENDMDL
MODEL 4
REMARK VINA RESULT:      -6.8      1.573      2.563
REMARK  Name = 
REMARK  2 active torsions:
REMARK  status: ('A' for Active; 'I' for Inactive)
REMARK    1  A    between atoms: C_2  and  C_14
REMARK    2  A    between atoms: N_3  and  C_4
REMARK                            x       y       z     vdW  Elec       q    Type
REMARK                         _______ _______ _______ _____ _____    ______ ____
ROOT
ATOM      1  O   UNL     1       2.816   7.705  18.627  0.00  0.00    +0.000 OA
ATOM      2  C   UNL     1       2.211   7.531  19.681  0.00  0.00    +0.000 C 
ATOM      3  N   UNL     1       2.174   6.317  20.321  0.00  0.00    +0.000 N 
ATOM      4  H   UNL     1       1.674   6.283  21.200  0.00  0.00    +0.000 HD
ENDROOT
BRANCH   2   5
ATOM      5  C   UNL     1       1.359   8.593  20.329  0.00  0.00    +0.000 C 
ATOM      6 CL   UNL     1       0.897   8.287  21.987  0.00  0.00    +0.000 Cl
ATOM      7  C   UNL     1       0.879   9.643  19.641  0.00  0.00    +0.000 C 
ATOM      8  S   UNL     1      -0.379  10.707  20.192  0.00  0.00    +0.000 S 
ATOM      9  C   UNL     1      -1.502  10.399  18.831  0.00  0.00    +0.000 A 
ATOM     10  C   UNL     1      -2.874  10.583  19.027  0.00  0.00    +0.000 A 
ATOM     11  C   UNL     1      -3.768  10.368  17.975  0.00  0.00    +0.000 A 
ATOM     12  C   UNL     1      -3.296   9.967  16.725  0.00  0.00    +0.000 A 
ATOM     13  C   UNL     1      -1.927   9.796  16.515  0.00  0.00    +0.000 A 
ATOM     14  C   UNL     1      -1.030  10.012  17.563  0.00  0.00    +0.000 A 
ATOM     15  N   UNL     1       0.343   9.886  17.296  0.00  0.00    +0.000 N 
ATOM     16  C   UNL     1       1.331   9.896  18.247  0.00  0.00    +0.000 C 
ATOM     17  O   UNL     1       2.512  10.082  17.971  0.00  0.00    +0.000 OA
ATOM     18  H   UNL     1       0.672   9.833  16.342  0.00  0.00    +0.000 HD
ENDBRANCH   2   5
BRANCH   3  19
ATOM     19  C   UNL     1       2.947   5.150  19.915  0.00  0.00    +0.000 C 
ATOM     20  C   UNL     1       2.580   3.912  20.764  0.00  0.00    +0.000 C 
ATOM     21  C   UNL     1       1.102   3.543  20.528  0.00  0.00    +0.000 C 
ATOM     22  C   UNL     1       0.861   3.232  19.039  0.00  0.00    +0.000 C 
ATOM     23  C   UNL     1       1.750   2.048  18.625  0.00  0.00    +0.000 C 
ATOM     24  C   UNL     1       3.233   2.399  18.852  0.00  0.00    +0.000 C 
ATOM     25  C   UNL     1       3.458   2.719  20.337  0.00  0.00    +0.000 C 
ATOM     26  C   UNL     1       3.600   3.637  18.013  0.00  0.00    +0.000 C 
ATOM     27  C   UNL     1       2.713   4.831  18.417  0.00  0.00    +0.000 C 
ATOM     28  C   UNL     1       1.239   4.444  18.172  0.00  0.00    +0.000 C 
ENDBRANCH   3  19
TORSDOF 2
ENDMDL
MODEL 5
REMARK VINA RESULT:      -6.8      8.373      9.894
REMARK  Name = 
REMARK  2 active torsions:
REMARK  status: ('A' for Active; 'I' for Inactive)
REMARK    1  A    between atoms: C_2  and  C_14
REMARK    2  A    between atoms: N_3  and  C_4
REMARK                            x       y       z     vdW  Elec       q    Type
REMARK                         _______ _______ _______ _____ _____    ______ ____
ROOT
ATOM      1  O   UNL     1       6.884  15.255  19.424  0.00  0.00    +0.000 OA
ATOM      2  C   UNL     1       7.547  15.006  20.427  0.00  0.00    +0.000 C 
ATOM      3  N   UNL     1       8.495  14.013  20.461  0.00  0.00    +0.000 N 
ATOM      4  H   UNL     1       9.010  13.907  21.325  0.00  0.00    +0.000 HD
ENDROOT
BRANCH   2   5
ATOM      5  C   UNL     1       7.321  15.684  21.755  0.00  0.00    +0.000 C 
ATOM      6 CL   UNL     1       8.421  16.986  22.139  0.00  0.00    +0.000 Cl
ATOM      7  C   UNL     1       6.416  15.234  22.642  0.00  0.00    +0.000 C 
ATOM      8  S   UNL     1       6.329  15.714  24.309  0.00  0.00    +0.000 S 
ATOM      9  C   UNL     1       6.540  14.072  24.993  0.00  0.00    +0.000 A 
ATOM     10  C   UNL     1       7.075  13.934  26.278  0.00  0.00    +0.000 A 
ATOM     11  C   UNL     1       7.231  12.665  26.839  0.00  0.00    +0.000 A 
ATOM     12  C   UNL     1       6.856  11.529  26.122  0.00  0.00    +0.000 A 
ATOM     13  C   UNL     1       6.307  11.657  24.846  0.00  0.00    +0.000 A 
ATOM     14  C   UNL     1       6.147  12.923  24.280  0.00  0.00    +0.000 A 
ATOM     15  N   UNL     1       5.537  13.014  23.019  0.00  0.00    +0.000 N 
ATOM     16  C   UNL     1       5.466  14.156  22.263  0.00  0.00    +0.000 C 
ATOM     17  O   UNL     1       4.685  14.278  21.323  0.00  0.00    +0.000 OA
ATOM     18  H   UNL     1       5.061  12.213  22.627  0.00  0.00    +0.000 HD
ENDBRANCH   2   5
BRANCH   3  19
ATOM     19  C   UNL     1       8.923  13.247  19.297  0.00  0.00    +0.000 C 
ATOM     20  C   UNL     1      10.156  13.891  18.625  0.00  0.00    +0.000 C 
ATOM     21  C   UNL     1      11.347  13.872  19.605  0.00  0.00    +0.000 C 
ATOM     22  C   UNL     1      11.682  12.424  20.009  0.00  0.00    +0.000 C 
ATOM     23  C   UNL     1      12.051  11.626  18.749  0.00  0.00    +0.000 C 
ATOM     24  C   UNL     1      10.872  11.631  17.758  0.00  0.00    +0.000 C 
ATOM     25  C   UNL     1      10.540  13.080  17.372  0.00  0.00    +0.000 C 
ATOM     26  C   UNL     1       9.637  10.997  18.427  0.00  0.00    +0.000 C 
ATOM     27  C   UNL     1       9.258  11.788  19.694  0.00  0.00    +0.000 C 
ATOM     28  C   UNL     1      10.460  11.756  20.662  0.00  0.00    +0.000 C 
ENDBRANCH   3  19
TORSDOF 2
ENDMDL
MODEL 6
REMARK VINA RESULT:      -6.8      6.982     10.101
REMARK  Name = 
REMARK  2 active torsions:
REMARK  status: ('A' for Active; 'I' for Inactive)
REMARK    1  A    between atoms: C_2  and  C_14
REMARK    2  A    between atoms: N_3  and  C_4
REMARK                            x       y       z     vdW  Elec       q    Type
REMARK                         _______ _______ _______ _____ _____    ______ ____
ROOT
ATOM      1  O   UNL     1      -7.783  12.683  22.735  0.00  0.00    +0.000 OA
ATOM      2  C   UNL     1      -6.843  12.275  22.058  0.00  0.00    +0.000 C 
ATOM      3  N   UNL     1      -5.537  12.592  22.337  0.00  0.00    +0.000 N 
ATOM      4  H   UNL     1      -4.832  12.181  21.737  0.00  0.00    +0.000 HD
ENDROOT
BRANCH   2   5
ATOM      5  C   UNL     1      -7.023  11.476  20.791  0.00  0.00    +0.000 C 
ATOM      6 CL   UNL     1      -7.917   9.983  20.957  0.00  0.00    +0.000 Cl
ATOM      7  C   UNL     1      -6.428  11.823  19.637  0.00  0.00    +0.000 C 
ATOM      8  S   UNL     1      -6.283  10.798  18.242  0.00  0.00    +0.000 S 
ATOM      9  C   UNL     1      -4.493  10.821  18.172  0.00  0.00    +0.000 A 
ATOM     10  C   UNL     1      -3.822   9.749  17.574  0.00  0.00    +0.000 A 
ATOM     11  C   UNL     1      -2.429   9.753  17.491  0.00  0.00    +0.000 A 
ATOM     12  C   UNL     1      -1.698  10.825  18.005  0.00  0.00    +0.000 A 
ATOM     13  C   UNL     1      -2.359  11.906  18.589  0.00  0.00    +0.000 A 
ATOM     14  C   UNL     1      -3.752  11.908  18.673  0.00  0.00    +0.000 A 
ATOM     15  N   UNL     1      -4.383  13.040  19.214  0.00  0.00    +0.000 N 
ATOM     16  C   UNL     1      -5.717  13.123  19.521  0.00  0.00    +0.000 C 
ATOM     17  O   UNL     1      -6.286  14.195  19.707  0.00  0.00    +0.000 OA
ATOM     18  H   UNL     1      -3.859  13.892  19.357  0.00  0.00    +0.000 HD
ENDBRANCH   2   5
BRANCH   3  19
ATOM     19  C   UNL     1      -5.104  13.316  23.525  0.00  0.00    +0.000 C 
ATOM     20  C   UNL     1      -3.986  12.551  24.270  0.00  0.00    +0.000 C 
ATOM     21  C   UNL     1      -2.743  12.442  23.364  0.00  0.00    +0.000 C 
ATOM     22  C   UNL     1      -2.236  13.847  22.983  0.00  0.00    +0.000 C 
ATOM     23  C   UNL     1      -1.863  14.608  24.264  0.00  0.00    +0.000 C 
ATOM     24  C   UNL     1      -3.095  14.730  25.182  0.00  0.00    +0.000 C 
ATOM     25  C   UNL     1      -3.598  13.324  25.545  0.00  0.00    +0.000 C 
ATOM     26  C   UNL     1      -4.214  15.485  24.441  0.00  0.00    +0.000 C 
ATOM     27  C   UNL     1      -4.595  14.731  23.151  0.00  0.00    +0.000 C 
ATOM     28  C   UNL     1      -3.340  14.634  22.258  0.00  0.00    +0.000 C 
ENDBRANCH   3  19
TORSDOF 2
ENDMDL
MODEL 7
REMARK VINA RESULT:      -6.7      8.165      9.178
REMARK  Name = 
REMARK  2 active torsions:
REMARK  status: ('A' for Active; 'I' for Inactive)
REMARK    1  A    between atoms: C_2  and  C_14
REMARK    2  A    between atoms: N_3  and  C_4
REMARK                            x       y       z     vdW  Elec       q    Type
REMARK                         _______ _______ _______ _____ _____    ______ ____
ROOT
ATOM      1  O   UNL     1       9.293  14.225  22.811  0.00  0.00    +0.000 OA
ATOM      2  C   UNL     1       8.463  13.655  22.108  0.00  0.00    +0.000 C 
ATOM      3  N   UNL     1       8.790  13.052  20.918  0.00  0.00    +0.000 N 
ATOM      4  H   UNL     1       8.040  12.582  20.427  0.00  0.00    +0.000 HD
ENDROOT
BRANCH   2   5
ATOM      5  C   UNL     1       6.987  13.646  22.414  0.00  0.00    +0.000 C 
ATOM      6 CL   UNL     1       6.387  12.217  23.222  0.00  0.00    +0.000 Cl
ATOM      7  C   UNL     1       6.162  14.616  21.982  0.00  0.00    +0.000 C 
ATOM      8  S   UNL     1       4.427  14.519  21.973  0.00  0.00    +0.000 S 
ATOM      9  C   UNL     1       4.230  14.755  20.209  0.00  0.00    +0.000 A 
ATOM     10  C   UNL     1       3.092  14.245  19.577  0.00  0.00    +0.000 A 
ATOM     11  C   UNL     1       2.907  14.432  18.206  0.00  0.00    +0.000 A 
ATOM     12  C   UNL     1       3.858  15.128  17.458  0.00  0.00    +0.000 A 
ATOM     13  C   UNL     1       4.989  15.655  18.082  0.00  0.00    +0.000 A 
ATOM     14  C   UNL     1       5.178  15.472  19.453  0.00  0.00    +0.000 A 
ATOM     15  N   UNL     1       6.299  16.067  20.054  0.00  0.00    +0.000 N 
ATOM     16  C   UNL     1       6.712  15.839  21.341  0.00  0.00    +0.000 C 
ATOM     17  O   UNL     1       7.499  16.580  21.924  0.00  0.00    +0.000 OA
ATOM     18  H   UNL     1       6.838  16.758  19.550  0.00  0.00    +0.000 HD
ENDBRANCH   2   5
BRANCH   3  19
ATOM     19  C   UNL     1      10.153  12.893  20.426  0.00  0.00    +0.000 C 
ATOM     20  C   UNL     1      10.271  11.664  19.495  0.00  0.00    +0.000 C 
ATOM     21  C   UNL     1       9.392  11.876  18.246  0.00  0.00    +0.000 C 
ATOM     22  C   UNL     1       9.840  13.139  17.487  0.00  0.00    +0.000 C 
ATOM     23  C   UNL     1      11.303  12.969  17.051  0.00  0.00    +0.000 C 
ATOM     24  C   UNL     1      12.199  12.759  18.287  0.00  0.00    +0.000 C 
ATOM     25  C   UNL     1      11.736  11.504  19.043  0.00  0.00    +0.000 C 
ATOM     26  C   UNL     1      12.077  13.977  19.222  0.00  0.00    +0.000 C 
ATOM     27  C   UNL     1      10.612  14.160  19.663  0.00  0.00    +0.000 C 
ATOM     28  C   UNL     1       9.749  14.372  18.401  0.00  0.00    +0.000 C 
ENDBRANCH   3  19
TORSDOF 2
ENDMDL
MODEL 8
REMARK VINA RESULT:      -6.6      1.333      2.015
REMARK  Name = 
REMARK  2 active torsions:
REMARK  status: ('A' for Active; 'I' for Inactive)
REMARK    1  A    between atoms: C_2  and  C_14
REMARK    2  A    between atoms: N_3  and  C_4
REMARK                            x       y       z     vdW  Elec       q    Type
REMARK                         _______ _______ _______ _____ _____    ______ ____
ROOT
ATOM      1  O   UNL     1       1.139   8.594  17.820  0.00  0.00    +0.000 OA
ATOM      2  C   UNL     1       1.616   8.326  18.919  0.00  0.00    +0.000 C 
ATOM      3  N   UNL     1       2.315   7.169  19.161  0.00  0.00    +0.000 N 
ATOM      4  H   UNL     1       2.695   7.055  20.092  0.00  0.00    +0.000 HD
ENDROOT
BRANCH   2   5
ATOM      5  C   UNL     1       1.398   9.178  20.144  0.00  0.00    +0.000 C 
ATOM      6 CL   UNL     1       1.463   8.337  21.674  0.00  0.00    +0.000 Cl
ATOM      7  C   UNL     1       1.050  10.474  20.061  0.00  0.00    +0.000 C 
ATOM      8  S   UNL     1       0.439  11.429  21.376  0.00  0.00    +0.000 S 
ATOM      9  C   UNL     1      -1.120  11.851  20.600  0.00  0.00    +0.000 A 
ATOM     10  C   UNL     1      -2.219  12.162  21.406  0.00  0.00    +0.000 A 
ATOM     11  C   UNL     1      -3.439  12.512  20.824  0.00  0.00    +0.000 A 
ATOM     12  C   UNL     1      -3.568  12.553  19.436  0.00  0.00    +0.000 A 
ATOM     13  C   UNL     1      -2.472  12.260  18.623  0.00  0.00    +0.000 A 
ATOM     14  C   UNL     1      -1.250  11.911  19.200  0.00  0.00    +0.000 A 
ATOM     15  N   UNL     1      -0.157  11.682  18.349  0.00  0.00    +0.000 N 
ATOM     16  C   UNL     1       1.051  11.168  18.746  0.00  0.00    +0.000 C 
ATOM     17  O   UNL     1       2.064  11.256  18.058  0.00  0.00    +0.000 OA
ATOM     18  H   UNL     1      -0.207  11.947  17.376  0.00  0.00    +0.000 HD
ENDBRANCH   2   5
BRANCH   3  19
ATOM     19  C   UNL     1       2.691   6.207  18.132  0.00  0.00    +0.000 C 
ATOM     20  C   UNL     1       4.218   5.969  18.122  0.00  0.00    +0.000 C 
ATOM     21  C   UNL     1       4.654   5.346  19.463  0.00  0.00    +0.000 C 
ATOM     22  C   UNL     1       3.928   4.006  19.689  0.00  0.00    +0.000 C 
ATOM     23  C   UNL     1       4.285   3.044  18.546  0.00  0.00    +0.000 C 
ATOM     24  C   UNL     1       3.855   3.649  17.195  0.00  0.00    +0.000 C 
ATOM     25  C   UNL     1       4.575   4.989  16.987  0.00  0.00    +0.000 C 
ATOM     26  C   UNL     1       2.335   3.895  17.205  0.00  0.00    +0.000 C 
ATOM     27  C   UNL     1       1.963   4.858  18.351  0.00  0.00    +0.000 C 
ATOM     28  C   UNL     1       2.404   4.217  19.684  0.00  0.00    +0.000 C 
ENDBRANCH   3  19
TORSDOF 2
ENDMDL
MODEL 9
REMARK VINA RESULT:      -6.5      7.721      8.803
REMARK  Name = 
REMARK  2 active torsions:
REMARK  status: ('A' for Active; 'I' for Inactive)
REMARK    1  A    between atoms: C_2  and  C_14
REMARK    2  A    between atoms: N_3  and  C_4
REMARK                            x       y       z     vdW  Elec       q    Type
REMARK                         _______ _______ _______ _____ _____    ______ ____
ROOT
ATOM      1  O   UNL     1       8.958  15.661  22.127  0.00  0.00    +0.000 OA
ATOM      2  C   UNL     1       8.227  14.685  21.985  0.00  0.00    +0.000 C 
ATOM      3  N   UNL     1       8.562  13.618  21.188  0.00  0.00    +0.000 N 
ATOM      4  H   UNL     1       7.906  12.848  21.161  0.00  0.00    +0.000 HD
ENDROOT
BRANCH   2   5
ATOM      5  C   UNL     1       6.844  14.596  22.578  0.00  0.00    +0.000 C 
ATOM      6 CL   UNL     1       6.678  13.540  23.961  0.00  0.00    +0.000 Cl
ATOM      7  C   UNL     1       5.781  15.188  22.006  0.00  0.00    +0.000 C 
ATOM      8  S   UNL     1       4.122  14.858  22.401  0.00  0.00    +0.000 S 
ATOM      9  C   UNL     1       3.633  14.339  20.758  0.00  0.00    +0.000 A 
ATOM     10  C   UNL     1       2.549  13.468  20.614  0.00  0.00    +0.000 A 
ATOM     11  C   UNL     1       2.137  13.064  19.342  0.00  0.00    +0.000 A 
ATOM     12  C   UNL     1       2.805  13.528  18.209  0.00  0.00    +0.000 A 
ATOM     13  C   UNL     1       3.878  14.411  18.340  0.00  0.00    +0.000 A 
ATOM     14  C   UNL     1       4.292  14.818  19.610  0.00  0.00    +0.000 A 
ATOM     15  N   UNL     1       5.337  15.752  19.698  0.00  0.00    +0.000 N 
ATOM     16  C   UNL     1       5.967  16.117  20.860  0.00  0.00    +0.000 C 
ATOM     17  O   UNL     1       6.655  17.129  20.949  0.00  0.00    +0.000 OA
ATOM     18  H   UNL     1       5.642  16.251  18.874  0.00  0.00    +0.000 HD
ENDBRANCH   2   5
BRANCH   3  19
ATOM     19  C   UNL     1       9.858  13.452  20.542  0.00  0.00    +0.000 C 
ATOM     20  C   UNL     1      10.344  11.987  20.631  0.00  0.00    +0.000 C 
ATOM     21  C   UNL     1       9.368  11.072  19.865  0.00  0.00    +0.000 C 
ATOM     22  C   UNL     1       9.289  11.496  18.386  0.00  0.00    +0.000 C 
ATOM     23  C   UNL     1      10.687  11.383  17.758  0.00  0.00    +0.000 C 
ATOM     24  C   UNL     1      11.677  12.294  18.509  0.00  0.00    +0.000 C 
ATOM     25  C   UNL     1      11.738  11.870  19.984  0.00  0.00    +0.000 C 
ATOM     26  C   UNL     1      11.192  13.754  18.429  0.00  0.00    +0.000 C 
ATOM     27  C   UNL     1       9.788  13.879  19.054  0.00  0.00    +0.000 C 
ATOM     28  C   UNL     1       8.827  12.958  18.274  0.00  0.00    +0.000 C 
ENDBRANCH   3  19
TORSDOF 2
ENDMDL
