MODEL 1
REMARK VINA RESULT:      -8.0      0.000      0.000
REMARK  Name = 
REMARK  6 active torsions:
REMARK  status: ('A' for Active; 'I' for Inactive)
REMARK    1  A    between atoms: N_1  and  N_2
REMARK    2  A    between atoms: C_6  and  S_7
REMARK    3  A    between atoms: S_7  and  C_8
REMARK    4  A    between atoms: C_8  and  C_9
REMARK    5  A    between atoms: C_11  and  N_12
REMARK    6  A    between atoms: C_16  and  N_17
REMARK                            x       y       z     vdW  Elec       q    Type
REMARK                         _______ _______ _______ _____ _____    ______ ____
ROOT
ATOM      1  C   UNL     1       4.422   4.837  17.433  0.00  0.00    +0.000 A 
ATOM      2  C   UNL     1       5.332   5.239  18.428  0.00  0.00    +0.000 A 
ATOM      3  C   UNL     1       6.677   5.489  18.106  0.00  0.00    +0.000 A 
ATOM      4  C   UNL     1       7.149   5.309  16.801  0.00  0.00    +0.000 A 
ATOM      5  C   UNL     1       6.251   4.877  15.817  0.00  0.00    +0.000 A 
ATOM      6  C   UNL     1       4.898   4.643  16.125  0.00  0.00    +0.000 A 
ENDROOT
BRANCH   3   7
ATOM      7  N   UNL     1       7.596   5.967  19.150  0.00  0.00    +0.000 N 
ATOM      8  O   UNL     1       7.591   5.371  20.235  0.00  0.00    +0.000 OA
ATOM      9  O   UNL     1       8.315   6.938  18.881  0.00  0.00    +0.000 OA
ENDBRANCH   3   7
BRANCH   5  10
ATOM     10  N   UNL     1       6.730   4.669  14.443  0.00  0.00    +0.000 N 
ATOM     11  O   UNL     1       6.107   3.867  13.734  0.00  0.00    +0.000 OA
ATOM     12  O   UNL     1       7.725   5.309  14.078  0.00  0.00    +0.000 OA
ENDBRANCH   5  10
BRANCH   1  13
ATOM     13  C   UNL     1       2.959   4.607  17.760  0.00  0.00    +0.000 C 
BRANCH  13  14
ATOM     14  S   UNL     1       2.582   2.837  17.968  0.00  0.00    +0.000 S 
BRANCH  14  19
ATOM     15  N   UNL     1       3.489   2.437  20.531  0.00  0.00    +0.000 N 
ATOM     16  N   UNL     1       3.031   2.409  21.790  0.00  0.00    +0.000 NA
ATOM     17  N   UNL     1       1.738   2.701  21.712  0.00  0.00    +0.000 NA
ATOM     18  N   UNL     1       1.352   2.903  20.408  0.00  0.00    +0.000 NA
ATOM     19  C   UNL     1       2.439   2.738  19.690  0.00  0.00    +0.000 A 
BRANCH  15  20
ATOM     20  N   UNL     1       4.834   2.145  20.190  0.00  0.00    +0.000 N 
ATOM     21  H   UNL     1       5.282   1.715  20.997  0.00  0.00    +0.000 HD
ATOM     22  H   UNL     1       4.866   1.445  19.452  0.00  0.00    +0.000 HD
ENDBRANCH  15  20
ENDBRANCH  14  19
ENDBRANCH  13  14
ENDBRANCH   1  13
TORSDOF 6
ENDMDL
MODEL 2
REMARK VINA RESULT:      -8.0      0.185      3.351
REMARK  Name = 
REMARK  6 active torsions:
REMARK  status: ('A' for Active; 'I' for Inactive)
REMARK    1  A    between atoms: N_1  and  N_2
REMARK    2  A    between atoms: C_6  and  S_7
REMARK    3  A    between atoms: S_7  and  C_8
REMARK    4  A    between atoms: C_8  and  C_9
REMARK    5  A    between atoms: C_11  and  N_12
REMARK    6  A    between atoms: C_16  and  N_17
REMARK                            x       y       z     vdW  Elec       q    Type
REMARK                         _______ _______ _______ _____ _____    ______ ____
ROOT
ATOM      1  C   UNL     1       4.412   4.651  17.307  0.00  0.00    +0.000 A 
ATOM      2  C   UNL     1       4.922   4.530  16.002  0.00  0.00    +0.000 A 
ATOM      3  C   UNL     1       6.272   4.817  15.733  0.00  0.00    +0.000 A 
ATOM      4  C   UNL     1       7.126   5.264  16.747  0.00  0.00    +0.000 A 
ATOM      5  C   UNL     1       6.611   5.417  18.039  0.00  0.00    +0.000 A 
ATOM      6  C   UNL     1       5.267   5.113  18.323  0.00  0.00    +0.000 A 
ENDROOT
BRANCH   3   7
ATOM      7  N   UNL     1       6.797   4.625  14.374  0.00  0.00    +0.000 N 
ATOM      8  O   UNL     1       7.724   5.359  14.007  0.00  0.00    +0.000 OA
ATOM      9  O   UNL     1       6.277   3.743  13.677  0.00  0.00    +0.000 OA
ENDBRANCH   3   7
BRANCH   5  10
ATOM     10  N   UNL     1       7.489   5.898  19.116  0.00  0.00    +0.000 N 
ATOM     11  O   UNL     1       7.428   5.317  20.209  0.00  0.00    +0.000 OA
ATOM     12  O   UNL     1       8.237   6.852  18.864  0.00  0.00    +0.000 OA
ENDBRANCH   5  10
BRANCH   1  13
ATOM     13  C   UNL     1       2.969   4.302  17.617  0.00  0.00    +0.000 C 
BRANCH  13  14
ATOM     14  S   UNL     1       2.762   2.524  17.959  0.00  0.00    +0.000 S 
BRANCH  14  19
ATOM     15  N   UNL     1       3.600   2.338  20.569  0.00  0.00    +0.000 N 
ATOM     16  N   UNL     1       3.103   2.389  21.814  0.00  0.00    +0.000 NA
ATOM     17  N   UNL     1       1.807   2.637  21.677  0.00  0.00    +0.000 NA
ATOM     18  N   UNL     1       1.456   2.733  20.351  0.00  0.00    +0.000 NA
ATOM     19  C   UNL     1       2.568   2.547  19.678  0.00  0.00    +0.000 A 
BRANCH  15  20
ATOM     20  N   UNL     1       4.961   2.060  20.290  0.00  0.00    +0.000 N 
ATOM     21  H   UNL     1       5.400   2.915  19.955  0.00  0.00    +0.000 HD
ATOM     22  H   UNL     1       5.453   1.815  21.146  0.00  0.00    +0.000 HD
ENDBRANCH  15  20
ENDBRANCH  14  19
ENDBRANCH  13  14
ENDBRANCH   1  13
TORSDOF 6
ENDMDL
MODEL 3
REMARK VINA RESULT:      -7.9      0.394      1.670
REMARK  Name = 
REMARK  6 active torsions:
REMARK  status: ('A' for Active; 'I' for Inactive)
REMARK    1  A    between atoms: N_1  and  N_2
REMARK    2  A    between atoms: C_6  and  S_7
REMARK    3  A    between atoms: S_7  and  C_8
REMARK    4  A    between atoms: C_8  and  C_9
REMARK    5  A    between atoms: C_11  and  N_12
REMARK    6  A    between atoms: C_16  and  N_17
REMARK                            x       y       z     vdW  Elec       q    Type
REMARK                         _______ _______ _______ _____ _____    ______ ____
ROOT
ATOM      1  C   UNL     1       4.504   4.533  17.375  0.00  0.00    +0.000 A 
ATOM      2  C   UNL     1       5.369   5.001  18.380  0.00  0.00    +0.000 A 
ATOM      3  C   UNL     1       6.688   5.378  18.070  0.00  0.00    +0.000 A 
ATOM      4  C   UNL     1       7.178   5.263  16.764  0.00  0.00    +0.000 A 
ATOM      5  C   UNL     1       6.328   4.766  15.769  0.00  0.00    +0.000 A 
ATOM      6  C   UNL     1       5.001   4.405  16.066  0.00  0.00    +0.000 A 
ENDROOT
BRANCH   3   7
ATOM      7  N   UNL     1       7.554   5.920  19.126  0.00  0.00    +0.000 N 
ATOM      8  O   UNL     1       8.259   6.899  18.844  0.00  0.00    +0.000 OA
ATOM      9  O   UNL     1       7.530   5.363  20.231  0.00  0.00    +0.000 OA
ENDBRANCH   3   7
BRANCH   5  10
ATOM     10  N   UNL     1       6.829   4.625  14.394  0.00  0.00    +0.000 N 
ATOM     11  O   UNL     1       7.728   5.395  14.029  0.00  0.00    +0.000 OA
ATOM     12  O   UNL     1       6.322   3.745  13.686  0.00  0.00    +0.000 OA
ENDBRANCH   5  10
BRANCH   1  13
ATOM     13  C   UNL     1       3.067   4.166  17.690  0.00  0.00    +0.000 C 
BRANCH  13  14
ATOM     14  S   UNL     1       2.895   2.399  18.102  0.00  0.00    +0.000 S 
BRANCH  14  19
ATOM     15  N   UNL     1       1.453   2.741  20.415  0.00  0.00    +0.000 N 
ATOM     16  N   UNL     1       1.634   2.775  21.744  0.00  0.00    +0.000 NA
ATOM     17  N   UNL     1       2.925   2.533  21.939  0.00  0.00    +0.000 NA
ATOM     18  N   UNL     1       3.584   2.358  20.746  0.00  0.00    +0.000 NA
ATOM     19  C   UNL     1       2.668   2.488  19.814  0.00  0.00    +0.000 A 
BRANCH  15  20
ATOM     20  N   UNL     1       0.200   2.985  19.799  0.00  0.00    +0.000 N 
ATOM     21  H   UNL     1      -0.496   2.387  20.240  0.00  0.00    +0.000 HD
ATOM     22  H   UNL     1      -0.102   3.940  19.982  0.00  0.00    +0.000 HD
ENDBRANCH  15  20
ENDBRANCH  14  19
ENDBRANCH  13  14
ENDBRANCH   1  13
TORSDOF 6
ENDMDL
MODEL 4
REMARK VINA RESULT:      -7.9      0.498      3.612
REMARK  Name = 
REMARK  6 active torsions:
REMARK  status: ('A' for Active; 'I' for Inactive)
REMARK    1  A    between atoms: N_1  and  N_2
REMARK    2  A    between atoms: C_6  and  S_7
REMARK    3  A    between atoms: S_7  and  C_8
REMARK    4  A    between atoms: C_8  and  C_9
REMARK    5  A    between atoms: C_11  and  N_12
REMARK    6  A    between atoms: C_16  and  N_17
REMARK                            x       y       z     vdW  Elec       q    Type
REMARK                         _______ _______ _______ _____ _____    ______ ____
ROOT
ATOM      1  C   UNL     1       4.587   4.471  17.287  0.00  0.00    +0.000 A 
ATOM      2  C   UNL     1       5.085   4.421  15.973  0.00  0.00    +0.000 A 
ATOM      3  C   UNL     1       6.399   4.833  15.692  0.00  0.00    +0.000 A 
ATOM      4  C   UNL     1       7.227   5.334  16.703  0.00  0.00    +0.000 A 
ATOM      5  C   UNL     1       6.720   5.416  18.005  0.00  0.00    +0.000 A 
ATOM      6  C   UNL     1       5.413   4.987  18.301  0.00  0.00    +0.000 A 
ENDROOT
BRANCH   3   7
ATOM      7  N   UNL     1       6.919   4.715  14.321  0.00  0.00    +0.000 N 
ATOM      8  O   UNL     1       6.415   3.854  13.588  0.00  0.00    +0.000 OA
ATOM      9  O   UNL     1       7.831   5.482  13.985  0.00  0.00    +0.000 OA
ENDBRANCH   3   7
BRANCH   5  10
ATOM     10  N   UNL     1       7.568   5.952  19.079  0.00  0.00    +0.000 N 
ATOM     11  O   UNL     1       8.260   6.947  18.822  0.00  0.00    +0.000 OA
ATOM     12  O   UNL     1       7.539   5.377  20.176  0.00  0.00    +0.000 OA
ENDBRANCH   5  10
BRANCH   1  13
ATOM     13  C   UNL     1       3.185   3.987  17.610  0.00  0.00    +0.000 C 
BRANCH  13  14
ATOM     14  S   UNL     1       3.179   2.251  18.163  0.00  0.00    +0.000 S 
BRANCH  14  19
ATOM     15  N   UNL     1       1.416   2.656  20.231  0.00  0.00    +0.000 N 
ATOM     16  N   UNL     1       1.410   2.793  21.565  0.00  0.00    +0.000 NA
ATOM     17  N   UNL     1       2.673   2.651  21.949  0.00  0.00    +0.000 NA
ATOM     18  N   UNL     1       3.499   2.438  20.871  0.00  0.00    +0.000 NA
ATOM     19  C   UNL     1       2.714   2.443  19.819  0.00  0.00    +0.000 A 
BRANCH  15  20
ATOM     20  N   UNL     1       0.248   2.773  19.437  0.00  0.00    +0.000 N 
ATOM     21  H   UNL     1      -0.240   3.624  19.708  0.00  0.00    +0.000 HD
ATOM     22  H   UNL     1       0.499   2.899  18.459  0.00  0.00    +0.000 HD
ENDBRANCH  15  20
ENDBRANCH  14  19
ENDBRANCH  13  14
ENDBRANCH   1  13
TORSDOF 6
ENDMDL
MODEL 5
REMARK VINA RESULT:      -7.6      1.125      1.587
REMARK  Name = 
REMARK  6 active torsions:
REMARK  status: ('A' for Active; 'I' for Inactive)
REMARK    1  A    between atoms: N_1  and  N_2
REMARK    2  A    between atoms: C_6  and  S_7
REMARK    3  A    between atoms: S_7  and  C_8
REMARK    4  A    between atoms: C_8  and  C_9
REMARK    5  A    between atoms: C_11  and  N_12
REMARK    6  A    between atoms: C_16  and  N_17
REMARK                            x       y       z     vdW  Elec       q    Type
REMARK                         _______ _______ _______ _____ _____    ______ ____
ROOT
ATOM      1  C   UNL     1       4.690   4.061  17.010  0.00  0.00    +0.000 A 
ATOM      2  C   UNL     1       5.431   4.601  18.076  0.00  0.00    +0.000 A 
ATOM      3  C   UNL     1       6.664   5.234  17.839  0.00  0.00    +0.000 A 
ATOM      4  C   UNL     1       7.197   5.307  16.548  0.00  0.00    +0.000 A 
ATOM      5  C   UNL     1       6.475   4.740  15.491  0.00  0.00    +0.000 A 
ATOM      6  C   UNL     1       5.231   4.123  15.714  0.00  0.00    +0.000 A 
ENDROOT
BRANCH   3   7
ATOM      7  N   UNL     1       7.393   5.844  18.961  0.00  0.00    +0.000 N 
ATOM      8  O   UNL     1       8.128   6.808  18.711  0.00  0.00    +0.000 OA
ATOM      9  O   UNL     1       7.229   5.355  20.086  0.00  0.00    +0.000 OA
ENDBRANCH   3   7
BRANCH   5  10
ATOM     10  N   UNL     1       7.024   4.796  14.128  0.00  0.00    +0.000 N 
ATOM     11  O   UNL     1       6.541   4.029  13.284  0.00  0.00    +0.000 OA
ATOM     12  O   UNL     1       7.934   5.606  13.908  0.00  0.00    +0.000 OA
ENDBRANCH   5  10
BRANCH   1  13
ATOM     13  C   UNL     1       3.337   3.415  17.248  0.00  0.00    +0.000 C 
BRANCH  13  14
ATOM     14  S   UNL     1       2.202   4.529  18.137  0.00  0.00    +0.000 S 
BRANCH  14  19
ATOM     15  N   UNL     1       2.164   4.477  20.884  0.00  0.00    +0.000 N 
ATOM     16  N   UNL     1       2.170   3.596  21.895  0.00  0.00    +0.000 NA
ATOM     17  N   UNL     1       2.162   2.396  21.329  0.00  0.00    +0.000 NA
ATOM     18  N   UNL     1       2.168   2.492  19.958  0.00  0.00    +0.000 NA
ATOM     19  C   UNL     1       2.168   3.778  19.695  0.00  0.00    +0.000 A 
BRANCH  15  20
ATOM     20  N   UNL     1       2.200   5.881  21.080  0.00  0.00    +0.000 N 
ATOM     21  H   UNL     1       2.985   6.099  21.690  0.00  0.00    +0.000 HD
ATOM     22  H   UNL     1       2.395   6.354  20.200  0.00  0.00    +0.000 HD
ENDBRANCH  15  20
ENDBRANCH  14  19
ENDBRANCH  13  14
ENDBRANCH   1  13
TORSDOF 6
ENDMDL
MODEL 6
REMARK VINA RESULT:      -7.6      1.148      3.701
REMARK  Name = 
REMARK  6 active torsions:
REMARK  status: ('A' for Active; 'I' for Inactive)
REMARK    1  A    between atoms: N_1  and  N_2
REMARK    2  A    between atoms: C_6  and  S_7
REMARK    3  A    between atoms: S_7  and  C_8
REMARK    4  A    between atoms: C_8  and  C_9
REMARK    5  A    between atoms: C_11  and  N_12
REMARK    6  A    between atoms: C_16  and  N_17
REMARK                            x       y       z     vdW  Elec       q    Type
REMARK                         _______ _______ _______ _____ _____    ______ ____
ROOT
ATOM      1  C   UNL     1       4.640   4.274  17.195  0.00  0.00    +0.000 A 
ATOM      2  C   UNL     1       5.141   4.289  15.880  0.00  0.00    +0.000 A 
ATOM      3  C   UNL     1       6.424   4.796  15.611  0.00  0.00    +0.000 A 
ATOM      4  C   UNL     1       7.216   5.328  16.635  0.00  0.00    +0.000 A 
ATOM      5  C   UNL     1       6.705   5.344  17.938  0.00  0.00    +0.000 A 
ATOM      6  C   UNL     1       5.430   4.821  18.221  0.00  0.00    +0.000 A 
ENDROOT
BRANCH   3   7
ATOM      7  N   UNL     1       6.950   4.745  14.239  0.00  0.00    +0.000 N 
ATOM      8  O   UNL     1       7.878   5.512  13.951  0.00  0.00    +0.000 OA
ATOM      9  O   UNL     1       6.430   3.941  13.454  0.00  0.00    +0.000 OA
ENDBRANCH   3   7
BRANCH   5  10
ATOM     10  N   UNL     1       7.515   5.912  19.025  0.00  0.00    +0.000 N 
ATOM     11  O   UNL     1       8.212   6.902  18.765  0.00  0.00    +0.000 OA
ATOM     12  O   UNL     1       7.450   5.365  20.135  0.00  0.00    +0.000 OA
ENDBRANCH   5  10
BRANCH   1  13
ATOM     13  C   UNL     1       3.275   3.689  17.504  0.00  0.00    +0.000 C 
BRANCH  13  14
ATOM     14  S   UNL     1       2.216   4.876  18.392  0.00  0.00    +0.000 S 
BRANCH  14  19
ATOM     15  N   UNL     1       1.187   3.021  20.138  0.00  0.00    +0.000 N 
ATOM     16  N   UNL     1       1.276   2.663  21.427  0.00  0.00    +0.000 NA
ATOM     17  N   UNL     1       2.177   3.475  21.967  0.00  0.00    +0.000 NA
ATOM     18  N   UNL     1       2.661   4.367  21.040  0.00  0.00    +0.000 NA
ATOM     19  C   UNL     1       2.045   4.078  19.917  0.00  0.00    +0.000 A 
BRANCH  15  20
ATOM     20  N   UNL     1       0.299   2.402  19.223  0.00  0.00    +0.000 N 
ATOM     21  H   UNL     1       0.443   2.819  18.305  0.00  0.00    +0.000 HD
ATOM     22  H   UNL     1       0.533   1.418  19.117  0.00  0.00    +0.000 HD
ENDBRANCH  15  20
ENDBRANCH  14  19
ENDBRANCH  13  14
ENDBRANCH   1  13
TORSDOF 6
ENDMDL
MODEL 7
REMARK VINA RESULT:      -7.6      1.214      3.588
REMARK  Name = 
REMARK  6 active torsions:
REMARK  status: ('A' for Active; 'I' for Inactive)
REMARK    1  A    between atoms: N_1  and  N_2
REMARK    2  A    between atoms: C_6  and  S_7
REMARK    3  A    between atoms: S_7  and  C_8
REMARK    4  A    between atoms: C_8  and  C_9
REMARK    5  A    between atoms: C_11  and  N_12
REMARK    6  A    between atoms: C_16  and  N_17
REMARK                            x       y       z     vdW  Elec       q    Type
REMARK                         _______ _______ _______ _____ _____    ______ ____
ROOT
ATOM      1  C   UNL     1       4.804   3.813  17.101  0.00  0.00    +0.000 A 
ATOM      2  C   UNL     1       5.288   3.959  15.789  0.00  0.00    +0.000 A 
ATOM      3  C   UNL     1       6.473   4.673  15.540  0.00  0.00    +0.000 A 
ATOM      4  C   UNL     1       7.176   5.283  16.586  0.00  0.00    +0.000 A 
ATOM      5  C   UNL     1       6.677   5.166  17.888  0.00  0.00    +0.000 A 
ATOM      6  C   UNL     1       5.502   4.436  18.149  0.00  0.00    +0.000 A 
ENDROOT
BRANCH   3   7
ATOM      7  N   UNL     1       6.992   4.762  14.168  0.00  0.00    +0.000 N 
ATOM      8  O   UNL     1       7.904   5.571  13.950  0.00  0.00    +0.000 OA
ATOM      9  O   UNL     1       6.483   4.025  13.313  0.00  0.00    +0.000 OA
ENDBRANCH   3   7
BRANCH   5  10
ATOM     10  N   UNL     1       7.393   5.810  18.998  0.00  0.00    +0.000 N 
ATOM     11  O   UNL     1       7.249   5.329  20.130  0.00  0.00    +0.000 OA
ATOM     12  O   UNL     1       8.097   6.794  18.733  0.00  0.00    +0.000 OA
ENDBRANCH   5  10
BRANCH   1  13
ATOM     13  C   UNL     1       3.550   3.007  17.385  0.00  0.00    +0.000 C 
BRANCH  13  14
ATOM     14  S   UNL     1       2.143   4.078  17.826  0.00  0.00    +0.000 S 
BRANCH  14  19
ATOM     15  N   UNL     1       2.356   4.480  20.535  0.00  0.00    +0.000 N 
ATOM     16  N   UNL     1       2.081   3.858  21.691  0.00  0.00    +0.000 NA
ATOM     17  N   UNL     1       1.500   2.712  21.357  0.00  0.00    +0.000 NA
ATOM     18  N   UNL     1       1.412   2.580  19.991  0.00  0.00    +0.000 NA
ATOM     19  C   UNL     1       1.942   3.674  19.496  0.00  0.00    +0.000 A 
BRANCH  15  20
ATOM     20  N   UNL     1       3.013   5.734  20.469  0.00  0.00    +0.000 N 
ATOM     21  H   UNL     1       2.788   6.166  19.575  0.00  0.00    +0.000 HD
ATOM     22  H   UNL     1       2.643   6.363  21.178  0.00  0.00    +0.000 HD
ENDBRANCH  15  20
ENDBRANCH  14  19
ENDBRANCH  13  14
ENDBRANCH   1  13
TORSDOF 6
ENDMDL
MODEL 8
REMARK VINA RESULT:      -7.5      0.450      3.551
REMARK  Name = 
REMARK  6 active torsions:
REMARK  status: ('A' for Active; 'I' for Inactive)
REMARK    1  A    between atoms: N_1  and  N_2
REMARK    2  A    between atoms: C_6  and  S_7
REMARK    3  A    between atoms: S_7  and  C_8
REMARK    4  A    between atoms: C_8  and  C_9
REMARK    5  A    between atoms: C_11  and  N_12
REMARK    6  A    between atoms: C_16  and  N_17
REMARK                            x       y       z     vdW  Elec       q    Type
REMARK                         _______ _______ _______ _____ _____    ______ ____
ROOT
ATOM      1  C   UNL     1       4.421   5.035  17.446  0.00  0.00    +0.000 A 
ATOM      2  C   UNL     1       4.906   4.810  16.145  0.00  0.00    +0.000 A 
ATOM      3  C   UNL     1       6.275   4.949  15.860  0.00  0.00    +0.000 A 
ATOM      4  C   UNL     1       7.179   5.348  16.851  0.00  0.00    +0.000 A 
ATOM      5  C   UNL     1       6.692   5.605  18.138  0.00  0.00    +0.000 A 
ATOM      6  C   UNL     1       5.326   5.449  18.439  0.00  0.00    +0.000 A 
ENDROOT
BRANCH   3   7
ATOM      7  N   UNL     1       6.768   4.649  14.507  0.00  0.00    +0.000 N 
ATOM      8  O   UNL     1       6.242   3.707  13.900  0.00  0.00    +0.000 OA
ATOM      9  O   UNL     1       7.681   5.355  14.060  0.00  0.00    +0.000 OA
ENDBRANCH   3   7
BRANCH   5  10
ATOM     10  N   UNL     1       7.622   6.038  19.190  0.00  0.00    +0.000 N 
ATOM     11  O   UNL     1       7.612   5.412  20.259  0.00  0.00    +0.000 OA
ATOM     12  O   UNL     1       8.360   7.001  18.944  0.00  0.00    +0.000 OA
ENDBRANCH   5  10
BRANCH   1  13
ATOM     13  C   UNL     1       2.952   4.846  17.776  0.00  0.00    +0.000 C 
BRANCH  13  14
ATOM     14  S   UNL     1       2.497   3.083  17.849  0.00  0.00    +0.000 S 
BRANCH  14  19
ATOM     15  N   UNL     1       2.161   2.824  20.563  0.00  0.00    +0.000 N 
ATOM     16  N   UNL     1       2.854   2.469  21.655  0.00  0.00    +0.000 NA
ATOM     17  N   UNL     1       4.058   2.118  21.222  0.00  0.00    +0.000 NA
ATOM     18  N   UNL     1       4.155   2.257  19.858  0.00  0.00    +0.000 NA
ATOM     19  C   UNL     1       2.981   2.692  19.463  0.00  0.00    +0.000 A 
BRANCH  15  20
ATOM     20  N   UNL     1       0.825   3.295  20.614  0.00  0.00    +0.000 N 
ATOM     21  H   UNL     1       0.815   4.177  21.122  0.00  0.00    +0.000 HD
ATOM     22  H   UNL     1       0.493   3.513  19.677  0.00  0.00    +0.000 HD
ENDBRANCH  15  20
ENDBRANCH  14  19
ENDBRANCH  13  14
ENDBRANCH   1  13
TORSDOF 6
ENDMDL
MODEL 9
REMARK VINA RESULT:      -7.5      1.174      3.582
REMARK  Name = 
REMARK  6 active torsions:
REMARK  status: ('A' for Active; 'I' for Inactive)
REMARK    1  A    between atoms: N_1  and  N_2
REMARK    2  A    between atoms: C_6  and  S_7
REMARK    3  A    between atoms: S_7  and  C_8
REMARK    4  A    between atoms: C_8  and  C_9
REMARK    5  A    between atoms: C_11  and  N_12
REMARK    6  A    between atoms: C_16  and  N_17
REMARK                            x       y       z     vdW  Elec       q    Type
REMARK                         _______ _______ _______ _____ _____    ______ ____
ROOT
ATOM      1  C   UNL     1       4.830   4.207  17.158  0.00  0.00    +0.000 A 
ATOM      2  C   UNL     1       5.314   4.263  15.839  0.00  0.00    +0.000 A 
ATOM      3  C   UNL     1       6.574   4.822  15.564  0.00  0.00    +0.000 A 
ATOM      4  C   UNL     1       7.357   5.367  16.588  0.00  0.00    +0.000 A 
ATOM      5  C   UNL     1       6.861   5.342  17.897  0.00  0.00    +0.000 A 
ATOM      6  C   UNL     1       5.610   4.766  18.185  0.00  0.00    +0.000 A 
ENDROOT
BRANCH   3   7
ATOM      7  N   UNL     1       7.085   4.815  14.186  0.00  0.00    +0.000 N 
ATOM      8  O   UNL     1       6.582   4.011  13.391  0.00  0.00    +0.000 OA
ATOM      9  O   UNL     1       7.992   5.611  13.905  0.00  0.00    +0.000 OA
ENDBRANCH   3   7
BRANCH   5  10
ATOM     10  N   UNL     1       7.662   5.921  18.985  0.00  0.00    +0.000 N 
ATOM     11  O   UNL     1       7.657   5.335  20.076  0.00  0.00    +0.000 OA
ATOM     12  O   UNL     1       8.294   6.958  18.744  0.00  0.00    +0.000 OA
ENDBRANCH   5  10
BRANCH   1  13
ATOM     13  C   UNL     1       3.491   3.567  17.473  0.00  0.00    +0.000 C 
BRANCH  13  14
ATOM     14  S   UNL     1       2.361   4.732  18.300  0.00  0.00    +0.000 S 
BRANCH  14  19
ATOM     15  N   UNL     1       1.427   2.724  19.927  0.00  0.00    +0.000 N 
ATOM     16  N   UNL     1       1.381   2.392  21.225  0.00  0.00    +0.000 NA
ATOM     17  N   UNL     1       2.029   3.355  21.869  0.00  0.00    +0.000 NA
ATOM     18  N   UNL     1       2.481   4.318  20.999  0.00  0.00    +0.000 NA
ATOM     19  C   UNL     1       2.105   3.919  19.806  0.00  0.00    +0.000 A 
BRANCH  15  20
ATOM     20  N   UNL     1       0.814   1.953  18.908  0.00  0.00    +0.000 N 
ATOM     21  H   UNL     1       0.328   1.172  19.346  0.00  0.00    +0.000 HD
ATOM     22  H   UNL     1       0.093   2.497  18.441  0.00  0.00    +0.000 HD
ENDBRANCH  15  20
ENDBRANCH  14  19
ENDBRANCH  13  14
ENDBRANCH   1  13
TORSDOF 6
ENDMDL
