MODEL 1
REMARK VINA RESULT:      -6.9      0.000      0.000
REMARK  Name = 
REMARK  7 active torsions:
REMARK  status: ('A' for Active; 'I' for Inactive)
REMARK    1  A    between atoms: C_1  and  C_2
REMARK    2  A    between atoms: C_2  and  C_3
REMARK    3  A    between atoms: C_3  and  N_4
REMARK    4  A    between atoms: C_5  and  C_7
REMARK    5  A    between atoms: C_7  and  C_8
REMARK    6  A    between atoms: C_7  and  S_14
REMARK    7  A    between atoms: S_14  and  O_17
REMARK                            x       y       z     vdW  Elec       q    Type
REMARK                         _______ _______ _______ _____ _____    ______ ____
ROOT
ATOM      1  C   UNL     1       5.914   4.612  17.086  0.00  0.00    +0.000 C 
ENDROOT
BRANCH   1   2
ATOM      2  C   UNL     1       4.442   4.451  17.422  0.00  0.00    +0.000 A 
ATOM      3  C   UNL     1       3.787   3.212  17.347  0.00  0.00    +0.000 A 
ATOM      4  C   UNL     1       2.417   3.116  17.605  0.00  0.00    +0.000 A 
ATOM      5  C   UNL     1       1.682   4.254  17.927  0.00  0.00    +0.000 A 
ATOM      6  C   UNL     1       2.317   5.491  18.008  0.00  0.00    +0.000 A 
ATOM      7  C   UNL     1       3.687   5.589  17.762  0.00  0.00    +0.000 A 
ENDBRANCH   1   2
BRANCH   1   9
ATOM      8  N   UNL     1       7.309   6.544  17.559  0.00  0.00    +0.000 N 
ATOM      9  C   UNL     1       6.662   5.444  18.103  0.00  0.00    +0.000 C 
ATOM     10  O   UNL     1       6.736   5.173  19.297  0.00  0.00    +0.000 OA
ATOM     11  H   UNL     1       7.403   6.620  16.554  0.00  0.00    +0.000 HD
BRANCH   8  12
ATOM     12  C   UNL     1       8.111   7.435  18.376  0.00  0.00    +0.000 C 
BRANCH  12  14
ATOM     13  C   UNL     1       8.935   9.809  18.720  0.00  0.00    +0.000 C 
ATOM     14  C   UNL     1       8.063   8.880  17.886  0.00  0.00    +0.000 C 
ENDBRANCH  12  14
ENDBRANCH   8  12
ENDBRANCH   1   9
BRANCH   1  15
ATOM     15  S   UNL     1       6.171   5.306  15.451  0.00  0.00    +0.000 S 
ATOM     16  O   UNL     1       5.420   6.521  15.226  0.00  0.00    +0.000 OA
ATOM     17  O   UNL     1       7.568   5.182  15.092  0.00  0.00    +0.000 OA
BRANCH  15  18
ATOM     18  O   UNL     1       5.375   4.192  14.583  0.00  0.00    +0.000 OA
ATOM     19  H   UNL     1       5.748   4.210  13.673  0.00  0.00    +0.000 HD
ENDBRANCH  15  18
ENDBRANCH   1  15
TORSDOF 6
ENDMDL
MODEL 2
REMARK VINA RESULT:      -6.6      2.508      4.173
REMARK  Name = 
REMARK  7 active torsions:
REMARK  status: ('A' for Active; 'I' for Inactive)
REMARK    1  A    between atoms: C_1  and  C_2
REMARK    2  A    between atoms: C_2  and  C_3
REMARK    3  A    between atoms: C_3  and  N_4
REMARK    4  A    between atoms: C_5  and  C_7
REMARK    5  A    between atoms: C_7  and  C_8
REMARK    6  A    between atoms: C_7  and  S_14
REMARK    7  A    between atoms: S_14  and  O_17
REMARK                            x       y       z     vdW  Elec       q    Type
REMARK                         _______ _______ _______ _____ _____    ______ ____
ROOT
ATOM      1  C   UNL     1       5.627   5.524  17.803  0.00  0.00    +0.000 C 
ENDROOT
BRANCH   1   2
ATOM      2  C   UNL     1       4.723   4.336  18.083  0.00  0.00    +0.000 A 
ATOM      3  C   UNL     1       3.649   3.997  17.246  0.00  0.00    +0.000 A 
ATOM      4  C   UNL     1       2.803   2.933  17.571  0.00  0.00    +0.000 A 
ATOM      5  C   UNL     1       3.009   2.205  18.741  0.00  0.00    +0.000 A 
ATOM      6  C   UNL     1       4.071   2.528  19.581  0.00  0.00    +0.000 A 
ATOM      7  C   UNL     1       4.924   3.582  19.254  0.00  0.00    +0.000 A 
ENDBRANCH   1   2
BRANCH   1   9
ATOM      8  N   UNL     1       6.509   4.728  15.685  0.00  0.00    +0.000 N 
ATOM      9  C   UNL     1       5.844   5.763  16.327  0.00  0.00    +0.000 C 
ATOM     10  O   UNL     1       5.507   6.783  15.735  0.00  0.00    +0.000 OA
ATOM     11  H   UNL     1       6.956   4.006  16.235  0.00  0.00    +0.000 HD
BRANCH   8  12
ATOM     12  C   UNL     1       6.843   4.798  14.274  0.00  0.00    +0.000 C 
BRANCH  12  14
ATOM     13  C   UNL     1       6.668   3.580  12.057  0.00  0.00    +0.000 C 
ATOM     14  C   UNL     1       6.061   3.789  13.437  0.00  0.00    +0.000 C 
ENDBRANCH  12  14
ENDBRANCH   8  12
ENDBRANCH   1   9
BRANCH   1  15
ATOM     15  S   UNL     1       7.218   5.380  18.620  0.00  0.00    +0.000 S 
ATOM     16  O   UNL     1       7.144   5.596  20.048  0.00  0.00    +0.000 OA
ATOM     17  O   UNL     1       7.956   4.278  18.041  0.00  0.00    +0.000 OA
BRANCH  15  18
ATOM     18  O   UNL     1       7.906   6.736  18.058  0.00  0.00    +0.000 OA
ATOM     19  H   UNL     1       7.180   7.336  17.774  0.00  0.00    +0.000 HD
ENDBRANCH  15  18
ENDBRANCH   1  15
TORSDOF 6
ENDMDL
MODEL 3
REMARK VINA RESULT:      -6.6      0.814      1.336
REMARK  Name = 
REMARK  7 active torsions:
REMARK  status: ('A' for Active; 'I' for Inactive)
REMARK    1  A    between atoms: C_1  and  C_2
REMARK    2  A    between atoms: C_2  and  C_3
REMARK    3  A    between atoms: C_3  and  N_4
REMARK    4  A    between atoms: C_5  and  C_7
REMARK    5  A    between atoms: C_7  and  C_8
REMARK    6  A    between atoms: C_7  and  S_14
REMARK    7  A    between atoms: S_14  and  O_17
REMARK                            x       y       z     vdW  Elec       q    Type
REMARK                         _______ _______ _______ _____ _____    ______ ____
ROOT
ATOM      1  C   UNL     1       5.995   4.176  16.464  0.00  0.00    +0.000 C 
ENDROOT
BRANCH   1   2
ATOM      2  C   UNL     1       4.638   4.210  17.145  0.00  0.00    +0.000 A 
ATOM      3  C   UNL     1       3.902   3.045  17.411  0.00  0.00    +0.000 A 
ATOM      4  C   UNL     1       2.631   3.123  17.984  0.00  0.00    +0.000 A 
ATOM      5  C   UNL     1       2.072   4.363  18.286  0.00  0.00    +0.000 A 
ATOM      6  C   UNL     1       2.790   5.528  18.031  0.00  0.00    +0.000 A 
ATOM      7  C   UNL     1       4.065   5.453  17.469  0.00  0.00    +0.000 A 
ENDBRANCH   1   2
BRANCH   1   9
ATOM      8  N   UNL     1       6.886   6.153  17.558  0.00  0.00    +0.000 N 
ATOM      9  C   UNL     1       7.088   4.806  17.297  0.00  0.00    +0.000 C 
ATOM     10  O   UNL     1       8.088   4.213  17.687  0.00  0.00    +0.000 OA
ATOM     11  H   UNL     1       6.169   6.657  17.050  0.00  0.00    +0.000 HD
BRANCH   8  12
ATOM     12  C   UNL     1       7.851   6.936  18.308  0.00  0.00    +0.000 C 
BRANCH  12  14
ATOM     13  C   UNL     1       8.726   9.286  18.685  0.00  0.00    +0.000 C 
ATOM     14  C   UNL     1       8.079   8.318  17.703  0.00  0.00    +0.000 C 
ENDBRANCH  12  14
ENDBRANCH   8  12
ENDBRANCH   1   9
BRANCH   1  15
ATOM     15  S   UNL     1       5.968   4.946  14.844  0.00  0.00    +0.000 S 
ATOM     16  O   UNL     1       5.626   4.023  13.783  0.00  0.00    +0.000 OA
ATOM     17  O   UNL     1       5.370   6.260  14.948  0.00  0.00    +0.000 OA
BRANCH  15  18
ATOM     18  O   UNL     1       7.560   5.181  14.655  0.00  0.00    +0.000 OA
ATOM     19  H   UNL     1       7.707   5.452  13.721  0.00  0.00    +0.000 HD
ENDBRANCH  15  18
ENDBRANCH   1  15
TORSDOF 6
ENDMDL
MODEL 4
REMARK VINA RESULT:      -6.5      2.422      4.176
REMARK  Name = 
REMARK  7 active torsions:
REMARK  status: ('A' for Active; 'I' for Inactive)
REMARK    1  A    between atoms: C_1  and  C_2
REMARK    2  A    between atoms: C_2  and  C_3
REMARK    3  A    between atoms: C_3  and  N_4
REMARK    4  A    between atoms: C_5  and  C_7
REMARK    5  A    between atoms: C_7  and  C_8
REMARK    6  A    between atoms: C_7  and  S_14
REMARK    7  A    between atoms: S_14  and  O_17
REMARK                            x       y       z     vdW  Elec       q    Type
REMARK                         _______ _______ _______ _____ _____    ______ ____
ROOT
ATOM      1  C   UNL     1       5.270   6.022  17.585  0.00  0.00    +0.000 C 
ENDROOT
BRANCH   1   2
ATOM      2  C   UNL     1       3.951   5.395  17.999  0.00  0.00    +0.000 A 
ATOM      3  C   UNL     1       3.305   5.729  19.200  0.00  0.00    +0.000 A 
ATOM      4  C   UNL     1       2.123   5.085  19.574  0.00  0.00    +0.000 A 
ATOM      5  C   UNL     1       1.578   4.092  18.763  0.00  0.00    +0.000 A 
ATOM      6  C   UNL     1       2.205   3.751  17.567  0.00  0.00    +0.000 A 
ATOM      7  C   UNL     1       3.379   4.399  17.185  0.00  0.00    +0.000 A 
ENDBRANCH   1   2
BRANCH   1   9
ATOM      8  N   UNL     1       6.173   4.812  15.682  0.00  0.00    +0.000 N 
ATOM      9  C   UNL     1       5.510   5.959  16.094  0.00  0.00    +0.000 C 
ATOM     10  O   UNL     1       5.191   6.843  15.306  0.00  0.00    +0.000 OA
ATOM     11  H   UNL     1       6.606   4.211  16.372  0.00  0.00    +0.000 HD
BRANCH   8  12
ATOM     12  C   UNL     1       6.526   4.597  14.291  0.00  0.00    +0.000 C 
BRANCH  12  14
ATOM     13  C   UNL     1       5.971   3.258  12.210  0.00  0.00    +0.000 C 
ATOM     14  C   UNL     1       5.458   3.815  13.530  0.00  0.00    +0.000 C 
ENDBRANCH  12  14
ENDBRANCH   8  12
ENDBRANCH   1   9
BRANCH   1  15
ATOM     15  S   UNL     1       6.671   5.295  18.440  0.00  0.00    +0.000 S 
ATOM     16  O   UNL     1       7.904   5.389  17.689  0.00  0.00    +0.000 OA
ATOM     17  O   UNL     1       6.596   5.622  19.848  0.00  0.00    +0.000 OA
BRANCH  15  18
ATOM     18  O   UNL     1       6.257   3.733  18.310  0.00  0.00    +0.000 OA
ATOM     19  H   UNL     1       6.841   3.225  18.916  0.00  0.00    +0.000 HD
ENDBRANCH  15  18
ENDBRANCH   1  15
TORSDOF 6
ENDMDL
MODEL 5
REMARK VINA RESULT:      -6.5      0.641      1.660
REMARK  Name = 
REMARK  7 active torsions:
REMARK  status: ('A' for Active; 'I' for Inactive)
REMARK    1  A    between atoms: C_1  and  C_2
REMARK    2  A    between atoms: C_2  and  C_3
REMARK    3  A    between atoms: C_3  and  N_4
REMARK    4  A    between atoms: C_5  and  C_7
REMARK    5  A    between atoms: C_7  and  C_8
REMARK    6  A    between atoms: C_7  and  S_14
REMARK    7  A    between atoms: S_14  and  O_17
REMARK                            x       y       z     vdW  Elec       q    Type
REMARK                         _______ _______ _______ _____ _____    ______ ____
ROOT
ATOM      1  C   UNL     1       5.888   4.407  17.631  0.00  0.00    +0.000 C 
ENDROOT
BRANCH   1   2
ATOM      2  C   UNL     1       4.395   4.673  17.706  0.00  0.00    +0.000 A 
ATOM      3  C   UNL     1       3.873   5.916  18.096  0.00  0.00    +0.000 A 
ATOM      4  C   UNL     1       2.494   6.103  18.211  0.00  0.00    +0.000 A 
ATOM      5  C   UNL     1       1.619   5.050  17.954  0.00  0.00    +0.000 A 
ATOM      6  C   UNL     1       2.120   3.811  17.564  0.00  0.00    +0.000 A 
ATOM      7  C   UNL     1       3.497   3.624  17.437  0.00  0.00    +0.000 A 
ENDBRANCH   1   2
BRANCH   1   9
ATOM      8  N   UNL     1       7.257   6.408  17.788  0.00  0.00    +0.000 N 
ATOM      9  C   UNL     1       6.698   5.350  18.491  0.00  0.00    +0.000 C 
ATOM     10  O   UNL     1       6.890   5.196  19.693  0.00  0.00    +0.000 OA
ATOM     11  H   UNL     1       7.256   6.389  16.776  0.00  0.00    +0.000 HD
BRANCH   8  12
ATOM     12  C   UNL     1       8.100   7.392  18.440  0.00  0.00    +0.000 C 
BRANCH  12  14
ATOM     13  C   UNL     1       8.817   9.823  18.524  0.00  0.00    +0.000 C 
ATOM     14  C   UNL     1       8.016   8.765  17.778  0.00  0.00    +0.000 C 
ENDBRANCH  12  14
ENDBRANCH   8  12
ENDBRANCH   1   9
BRANCH   1  15
ATOM     15  S   UNL     1       6.509   4.460  15.948  0.00  0.00    +0.000 S 
ATOM     16  O   UNL     1       7.934   4.700  15.877  0.00  0.00    +0.000 OA
ATOM     17  O   UNL     1       5.858   3.432  15.164  0.00  0.00    +0.000 OA
BRANCH  15  18
ATOM     18  O   UNL     1       5.856   5.870  15.488  0.00  0.00    +0.000 OA
ATOM     19  H   UNL     1       5.892   5.902  14.506  0.00  0.00    +0.000 HD
ENDBRANCH  15  18
ENDBRANCH   1  15
TORSDOF 6
ENDMDL
MODEL 6
REMARK VINA RESULT:      -6.4      2.481      4.187
REMARK  Name = 
REMARK  7 active torsions:
REMARK  status: ('A' for Active; 'I' for Inactive)
REMARK    1  A    between atoms: C_1  and  C_2
REMARK    2  A    between atoms: C_2  and  C_3
REMARK    3  A    between atoms: C_3  and  N_4
REMARK    4  A    between atoms: C_5  and  C_7
REMARK    5  A    between atoms: C_7  and  C_8
REMARK    6  A    between atoms: C_7  and  S_14
REMARK    7  A    between atoms: S_14  and  O_17
REMARK                            x       y       z     vdW  Elec       q    Type
REMARK                         _______ _______ _______ _____ _____    ______ ____
ROOT
ATOM      1  C   UNL     1       5.202   5.641  17.378  0.00  0.00    +0.000 C 
ENDROOT
BRANCH   1   2
ATOM      2  C   UNL     1       4.085   4.657  17.677  0.00  0.00    +0.000 A 
ATOM      3  C   UNL     1       4.308   3.275  17.775  0.00  0.00    +0.000 A 
ATOM      4  C   UNL     1       3.244   2.397  17.991  0.00  0.00    +0.000 A 
ATOM      5  C   UNL     1       1.943   2.884  18.097  0.00  0.00    +0.000 A 
ATOM      6  C   UNL     1       1.704   4.252  18.005  0.00  0.00    +0.000 A 
ATOM      7  C   UNL     1       2.767   5.134  17.800  0.00  0.00    +0.000 A 
ENDBRANCH   1   2
BRANCH   1   9
ATOM      8  N   UNL     1       5.992   4.478  15.397  0.00  0.00    +0.000 N 
ATOM      9  C   UNL     1       5.564   5.693  15.911  0.00  0.00    +0.000 C 
ATOM     10  O   UNL     1       5.526   6.710  15.227  0.00  0.00    +0.000 OA
ATOM     11  H   UNL     1       6.211   3.719  16.030  0.00  0.00    +0.000 HD
BRANCH   8  12
ATOM     12  C   UNL     1       6.420   4.344  14.017  0.00  0.00    +0.000 C 
BRANCH  12  14
ATOM     13  C   UNL     1       5.884   2.959  11.962  0.00  0.00    +0.000 C 
ATOM     14  C   UNL     1       5.325   3.778  13.117  0.00  0.00    +0.000 C 
ENDBRANCH  12  14
ENDBRANCH   8  12
ENDBRANCH   1   9
BRANCH   1  15
ATOM     15  S   UNL     1       6.681   5.311  18.340  0.00  0.00    +0.000 S 
ATOM     16  O   UNL     1       6.424   5.217  19.761  0.00  0.00    +0.000 OA
ATOM     17  O   UNL     1       7.505   4.352  17.638  0.00  0.00    +0.000 OA
BRANCH  15  18
ATOM     18  O   UNL     1       7.409   6.750  18.173  0.00  0.00    +0.000 OA
ATOM     19  H   UNL     1       8.088   6.653  17.468  0.00  0.00    +0.000 HD
ENDBRANCH  15  18
ENDBRANCH   1  15
TORSDOF 6
ENDMDL
MODEL 7
REMARK VINA RESULT:      -6.4      3.044      4.982
REMARK  Name = 
REMARK  7 active torsions:
REMARK  status: ('A' for Active; 'I' for Inactive)
REMARK    1  A    between atoms: C_1  and  C_2
REMARK    2  A    between atoms: C_2  and  C_3
REMARK    3  A    between atoms: C_3  and  N_4
REMARK    4  A    between atoms: C_5  and  C_7
REMARK    5  A    between atoms: C_7  and  C_8
REMARK    6  A    between atoms: C_7  and  S_14
REMARK    7  A    between atoms: S_14  and  O_17
REMARK                            x       y       z     vdW  Elec       q    Type
REMARK                         _______ _______ _______ _____ _____    ______ ____
ROOT
ATOM      1  C   UNL     1       5.067   5.010  17.931  0.00  0.00    +0.000 C 
ENDROOT
BRANCH   1   2
ATOM      2  C   UNL     1       4.021   6.069  18.233  0.00  0.00    +0.000 A 
ATOM      3  C   UNL     1       3.824   7.187  17.409  0.00  0.00    +0.000 A 
ATOM      4  C   UNL     1       2.893   8.170  17.754  0.00  0.00    +0.000 A 
ATOM      5  C   UNL     1       2.159   8.057  18.932  0.00  0.00    +0.000 A 
ATOM      6  C   UNL     1       2.340   6.953  19.761  0.00  0.00    +0.000 A 
ATOM      7  C   UNL     1       3.261   5.964  19.413  0.00  0.00    +0.000 A 
ENDBRANCH   1   2
BRANCH   1   9
ATOM      8  N   UNL     1       3.734   2.981  17.843  0.00  0.00    +0.000 N 
ATOM      9  C   UNL     1       4.731   3.662  18.527  0.00  0.00    +0.000 C 
ATOM     10  O   UNL     1       5.249   3.207  19.541  0.00  0.00    +0.000 OA
ATOM     11  H   UNL     1       3.185   3.469  17.146  0.00  0.00    +0.000 HD
BRANCH   8  12
ATOM     12  C   UNL     1       3.251   1.689  18.292  0.00  0.00    +0.000 C 
BRANCH  12  14
ATOM     13  C   UNL     1       1.095   2.980  18.636  0.00  0.00    +0.000 C 
ATOM     14  C   UNL     1       1.943   1.793  19.073  0.00  0.00    +0.000 C 
ENDBRANCH  12  14
ENDBRANCH   8  12
ENDBRANCH   1   9
BRANCH   1  15
ATOM     15  S   UNL     1       6.710   5.499  18.463  0.00  0.00    +0.000 S 
ATOM     16  O   UNL     1       7.265   6.577  17.672  0.00  0.00    +0.000 OA
ATOM     17  O   UNL     1       6.767   5.492  19.909  0.00  0.00    +0.000 OA
BRANCH  15  18
ATOM     18  O   UNL     1       7.529   4.192  17.966  0.00  0.00    +0.000 OA
ATOM     19  H   UNL     1       8.229   4.503  17.349  0.00  0.00    +0.000 HD
ENDBRANCH  15  18
ENDBRANCH   1  15
TORSDOF 6
ENDMDL
MODEL 8
REMARK VINA RESULT:      -6.4      0.632      1.390
REMARK  Name = 
REMARK  7 active torsions:
REMARK  status: ('A' for Active; 'I' for Inactive)
REMARK    1  A    between atoms: C_1  and  C_2
REMARK    2  A    between atoms: C_2  and  C_3
REMARK    3  A    between atoms: C_3  and  N_4
REMARK    4  A    between atoms: C_5  and  C_7
REMARK    5  A    between atoms: C_7  and  C_8
REMARK    6  A    between atoms: C_7  and  S_14
REMARK    7  A    between atoms: S_14  and  O_17
REMARK                            x       y       z     vdW  Elec       q    Type
REMARK                         _______ _______ _______ _____ _____    ______ ____
ROOT
ATOM      1  C   UNL     1       5.736   4.378  17.063  0.00  0.00    +0.000 C 
ENDROOT
BRANCH   1   2
ATOM      2  C   UNL     1       4.247   4.241  17.329  0.00  0.00    +0.000 A 
ATOM      3  C   UNL     1       3.442   5.338  17.671  0.00  0.00    +0.000 A 
ATOM      4  C   UNL     1       2.088   5.161  17.968  0.00  0.00    +0.000 A 
ATOM      5  C   UNL     1       1.525   3.887  17.942  0.00  0.00    +0.000 A 
ATOM      6  C   UNL     1       2.309   2.788  17.602  0.00  0.00    +0.000 A 
ATOM      7  C   UNL     1       3.659   2.963  17.294  0.00  0.00    +0.000 A 
ENDBRANCH   1   2
BRANCH   1   9
ATOM      8  N   UNL     1       7.344   5.987  17.914  0.00  0.00    +0.000 N 
ATOM      9  C   UNL     1       6.496   4.940  18.243  0.00  0.00    +0.000 C 
ATOM     10  O   UNL     1       6.415   4.505  19.386  0.00  0.00    +0.000 OA
ATOM     11  H   UNL     1       7.545   6.179  16.940  0.00  0.00    +0.000 HD
BRANCH   8  12
ATOM     12  C   UNL     1       8.185   6.626  18.909  0.00  0.00    +0.000 C 
BRANCH  12  14
ATOM     13  C   UNL     1       7.594   8.613  17.449  0.00  0.00    +0.000 C 
ATOM     14  C   UNL     1       8.461   8.092  18.588  0.00  0.00    +0.000 C 
ENDBRANCH  12  14
ENDBRANCH   8  12
ENDBRANCH   1   9
BRANCH   1  15
ATOM     15  S   UNL     1       6.083   5.370  15.609  0.00  0.00    +0.000 S 
ATOM     16  O   UNL     1       5.431   6.662  15.635  0.00  0.00    +0.000 OA
ATOM     17  O   UNL     1       7.474   5.214  15.242  0.00  0.00    +0.000 OA
BRANCH  15  18
ATOM     18  O   UNL     1       5.226   4.525  14.523  0.00  0.00    +0.000 OA
ATOM     19  H   UNL     1       5.841   3.887  14.097  0.00  0.00    +0.000 HD
ENDBRANCH  15  18
ENDBRANCH   1  15
TORSDOF 6
ENDMDL
MODEL 9
REMARK VINA RESULT:      -6.4      3.089      4.984
REMARK  Name = 
REMARK  7 active torsions:
REMARK  status: ('A' for Active; 'I' for Inactive)
REMARK    1  A    between atoms: C_1  and  C_2
REMARK    2  A    between atoms: C_2  and  C_3
REMARK    3  A    between atoms: C_3  and  N_4
REMARK    4  A    between atoms: C_5  and  C_7
REMARK    5  A    between atoms: C_7  and  C_8
REMARK    6  A    between atoms: C_7  and  S_14
REMARK    7  A    between atoms: S_14  and  O_17
REMARK                            x       y       z     vdW  Elec       q    Type
REMARK                         _______ _______ _______ _____ _____    ______ ____
ROOT
ATOM      1  C   UNL     1       4.926   5.044  17.976  0.00  0.00    +0.000 C 
ENDROOT
BRANCH   1   2
ATOM      2  C   UNL     1       3.946   6.140  18.352  0.00  0.00    +0.000 A 
ATOM      3  C   UNL     1       3.177   6.089  19.525  0.00  0.00    +0.000 A 
ATOM      4  C   UNL     1       2.241   7.088  19.805  0.00  0.00    +0.000 A 
ATOM      5  C   UNL     1       2.051   8.141  18.914  0.00  0.00    +0.000 A 
ATOM      6  C   UNL     1       2.807   8.208  17.747  0.00  0.00    +0.000 A 
ATOM      7  C   UNL     1       3.751   7.218  17.469  0.00  0.00    +0.000 A 
ENDBRANCH   1   2
BRANCH   1   9
ATOM      8  N   UNL     1       3.474   3.097  17.951  0.00  0.00    +0.000 N 
ATOM      9  C   UNL     1       4.561   3.700  18.565  0.00  0.00    +0.000 C 
ATOM     10  O   UNL     1       5.134   3.187  19.520  0.00  0.00    +0.000 OA
ATOM     11  H   UNL     1       2.899   3.635  17.314  0.00  0.00    +0.000 HD
BRANCH   8  12
ATOM     12  C   UNL     1       2.953   1.822  18.407  0.00  0.00    +0.000 C 
BRANCH  12  14
ATOM     13  C   UNL     1       1.550   2.652  20.350  0.00  0.00    +0.000 C 
ATOM     14  C   UNL     1       1.553   1.941  19.003  0.00  0.00    +0.000 C 
ENDBRANCH  12  14
ENDBRANCH   8  12
ENDBRANCH   1   9
BRANCH   1  15
ATOM     15  S   UNL     1       6.615   5.449  18.429  0.00  0.00    +0.000 S 
ATOM     16  O   UNL     1       7.191   6.486  17.601  0.00  0.00    +0.000 OA
ATOM     17  O   UNL     1       6.735   5.456  19.871  0.00  0.00    +0.000 OA
BRANCH  15  18
ATOM     18  O   UNL     1       7.340   4.094  17.915  0.00  0.00    +0.000 OA
ATOM     19  H   UNL     1       8.308   4.267  17.905  0.00  0.00    +0.000 HD
ENDBRANCH  15  18
ENDBRANCH   1  15
TORSDOF 6
ENDMDL
