MODEL 1
REMARK VINA RESULT:      -7.0      0.000      0.000
REMARK  Name = 
REMARK  7 active torsions:
REMARK  status: ('A' for Active; 'I' for Inactive)
REMARK    1  A    between atoms: C_1  and  O_2
REMARK    2  A    between atoms: O_2  and  C_3
REMARK    3  A    between atoms: C_5  and  O_6
REMARK    4  A    between atoms: O_6  and  C_7
REMARK    5  A    between atoms: C_8  and  C_9
REMARK    6  A    between atoms: C_9  and  N_10
REMARK    7  A    between atoms: N_10  and  C_11
REMARK                            x       y       z     vdW  Elec       q    Type
REMARK                         _______ _______ _______ _____ _____    ______ ____
ROOT
ATOM      1  C   UNL     1       5.601   6.614  16.977  0.00  0.00    +0.000 A 
ATOM      2  C   UNL     1       4.627   7.401  17.598  0.00  0.00    +0.000 A 
ATOM      3  C   UNL     1       3.383   6.865  17.960  0.00  0.00    +0.000 A 
ATOM      4  C   UNL     1       3.065   5.540  17.630  0.00  0.00    +0.000 A 
ATOM      5  C   UNL     1       4.042   4.753  16.990  0.00  0.00    +0.000 A 
ATOM      6  C   UNL     1       5.296   5.285  16.668  0.00  0.00    +0.000 A 
ATOM      7 BR   UNL     1       6.548   4.161  15.790  0.00  0.00    +0.000 Br
ENDROOT
BRANCH   1   9
ATOM      8  C   UNL     1       7.675   7.504  17.699  0.00  0.00    +0.000 C 
ATOM      9  O   UNL     1       6.833   7.104  16.620  0.00  0.00    +0.000 OA
ENDBRANCH   1   9
BRANCH   3  10
ATOM     10  O   UNL     1       2.416   7.624  18.581  0.00  0.00    +0.000 OA
ATOM     11  C   UNL     1       1.959   8.765  17.853  0.00  0.00    +0.000 C 
ENDBRANCH   3  10
BRANCH   4  12
ATOM     12  C   UNL     1       1.682   4.965  17.855  0.00  0.00    +0.000 C 
BRANCH  12  13
ATOM     13  N   UNL     1       1.552   3.563  17.434  0.00  0.00    +0.000 NA
ATOM     14  H   UNL     1       2.402   3.294  16.939  0.00  0.00    +0.000 HD
BRANCH  13  15
ATOM     15  C   UNL     1       1.328   2.644  18.577  0.00  0.00    +0.000 C 
ATOM     16  C   UNL     1       2.540   1.707  18.757  0.00  0.00    +0.000 C 
ATOM     17  C   UNL     1       3.755   2.307  19.465  0.00  0.00    +0.000 C 
ATOM     18  C   UNL     1       3.696   2.195  20.988  0.00  0.00    +0.000 C 
ATOM     19  C   UNL     1       2.612   3.023  21.668  0.00  0.00    +0.000 C 
ATOM     20  C   UNL     1       1.193   2.731  21.187  0.00  0.00    +0.000 C 
ATOM     21  C   UNL     1       0.902   3.403  19.850  0.00  0.00    +0.000 C 
ENDBRANCH  13  15
ENDBRANCH  12  13
ENDBRANCH   4  12
TORSDOF 5
ENDMDL
MODEL 2
REMARK VINA RESULT:      -6.5      2.805      5.527
REMARK  Name = 
REMARK  7 active torsions:
REMARK  status: ('A' for Active; 'I' for Inactive)
REMARK    1  A    between atoms: C_1  and  O_2
REMARK    2  A    between atoms: O_2  and  C_3
REMARK    3  A    between atoms: C_5  and  O_6
REMARK    4  A    between atoms: O_6  and  C_7
REMARK    5  A    between atoms: C_8  and  C_9
REMARK    6  A    between atoms: C_9  and  N_10
REMARK    7  A    between atoms: N_10  and  C_11
REMARK                            x       y       z     vdW  Elec       q    Type
REMARK                         _______ _______ _______ _____ _____    ______ ____
ROOT
ATOM      1  C   UNL     1       1.682   7.691  20.251  0.00  0.00    +0.000 A 
ATOM      2  C   UNL     1       1.810   6.463  20.906  0.00  0.00    +0.000 A 
ATOM      3  C   UNL     1       2.457   5.379  20.298  0.00  0.00    +0.000 A 
ATOM      4  C   UNL     1       2.921   5.487  18.978  0.00  0.00    +0.000 A 
ATOM      5  C   UNL     1       2.778   6.721  18.313  0.00  0.00    +0.000 A 
ATOM      6  C   UNL     1       2.164   7.809  18.944  0.00  0.00    +0.000 A 
ATOM      7 BR   UNL     1       1.995   9.430  17.970  0.00  0.00    +0.000 Br
ENDROOT
BRANCH   1   9
ATOM      8  C   UNL     1      -0.155   8.501  21.508  0.00  0.00    +0.000 C 
ATOM      9  O   UNL     1       1.065   8.776  20.823  0.00  0.00    +0.000 OA
ENDBRANCH   1   9
BRANCH   3  10
ATOM     10  O   UNL     1       2.600   4.166  20.933  0.00  0.00    +0.000 OA
ATOM     11  C   UNL     1       1.407   3.394  21.074  0.00  0.00    +0.000 C 
ENDBRANCH   3  10
BRANCH   4  12
ATOM     12  C   UNL     1       3.481   4.300  18.223  0.00  0.00    +0.000 C 
BRANCH  12  13
ATOM     13  N   UNL     1       3.852   4.607  16.834  0.00  0.00    +0.000 NA
ATOM     14  H   UNL     1       3.494   5.533  16.602  0.00  0.00    +0.000 HD
BRANCH  13  15
ATOM     15  C   UNL     1       5.319   4.569  16.615  0.00  0.00    +0.000 C 
ATOM     16  C   UNL     1       5.792   5.866  15.929  0.00  0.00    +0.000 C 
ATOM     17  C   UNL     1       5.950   7.088  16.834  0.00  0.00    +0.000 C 
ATOM     18  C   UNL     1       7.319   7.181  17.507  0.00  0.00    +0.000 C 
ATOM     19  C   UNL     1       7.621   6.101  18.539  0.00  0.00    +0.000 C 
ATOM     20  C   UNL     1       7.529   4.673  18.009  0.00  0.00    +0.000 C 
ATOM     21  C   UNL     1       6.083   4.202  17.903  0.00  0.00    +0.000 C 
ENDBRANCH  13  15
ENDBRANCH  12  13
ENDBRANCH   4  12
TORSDOF 5
ENDMDL
MODEL 3
REMARK VINA RESULT:      -6.5      2.520      3.674
REMARK  Name = 
REMARK  7 active torsions:
REMARK  status: ('A' for Active; 'I' for Inactive)
REMARK    1  A    between atoms: C_1  and  O_2
REMARK    2  A    between atoms: O_2  and  C_3
REMARK    3  A    between atoms: C_5  and  O_6
REMARK    4  A    between atoms: O_6  and  C_7
REMARK    5  A    between atoms: C_8  and  C_9
REMARK    6  A    between atoms: C_9  and  N_10
REMARK    7  A    between atoms: N_10  and  C_11
REMARK                            x       y       z     vdW  Elec       q    Type
REMARK                         _______ _______ _______ _____ _____    ______ ____
ROOT
ATOM      1  C   UNL     1       6.928   4.691  14.036  0.00  0.00    +0.000 A 
ATOM      2  C   UNL     1       7.429   5.175  15.247  0.00  0.00    +0.000 A 
ATOM      3  C   UNL     1       6.735   4.981  16.449  0.00  0.00    +0.000 A 
ATOM      4  C   UNL     1       5.476   4.363  16.443  0.00  0.00    +0.000 A 
ATOM      5  C   UNL     1       4.965   3.890  15.219  0.00  0.00    +0.000 A 
ATOM      6  C   UNL     1       5.684   4.053  14.029  0.00  0.00    +0.000 A 
ATOM      7 BR   UNL     1       4.914   3.402  12.421  0.00  0.00    +0.000 Br
ENDROOT
BRANCH   1   9
ATOM      8  C   UNL     1       8.554   5.901  12.808  0.00  0.00    +0.000 C 
ATOM      9  O   UNL     1       7.588   4.853  12.843  0.00  0.00    +0.000 OA
ENDBRANCH   1   9
BRANCH   3  10
ATOM     10  O   UNL     1       7.220   5.443  17.652  0.00  0.00    +0.000 OA
ATOM     11  C   UNL     1       7.434   6.853  17.737  0.00  0.00    +0.000 C 
ENDBRANCH   3  10
BRANCH   4  12
ATOM     12  C   UNL     1       4.618   4.275  17.688  0.00  0.00    +0.000 C 
BRANCH  12  13
ATOM     13  N   UNL     1       5.092   3.280  18.660  0.00  0.00    +0.000 NA
ATOM     14  H   UNL     1       5.485   3.774  19.461  0.00  0.00    +0.000 HD
BRANCH  13  15
ATOM     15  C   UNL     1       4.011   2.370  19.116  0.00  0.00    +0.000 C 
ATOM     16  C   UNL     1       3.604   2.706  20.564  0.00  0.00    +0.000 C 
ATOM     17  C   UNL     1       2.678   3.910  20.741  0.00  0.00    +0.000 C 
ATOM     18  C   UNL     1       1.193   3.566  20.615  0.00  0.00    +0.000 C 
ATOM     19  C   UNL     1       0.733   3.134  19.228  0.00  0.00    +0.000 C 
ATOM     20  C   UNL     1       1.475   1.928  18.659  0.00  0.00    +0.000 C 
ATOM     21  C   UNL     1       2.844   2.315  18.110  0.00  0.00    +0.000 C 
ENDBRANCH  13  15
ENDBRANCH  12  13
ENDBRANCH   4  12
TORSDOF 5
ENDMDL
MODEL 4
REMARK VINA RESULT:      -6.4      2.419      3.494
REMARK  Name = 
REMARK  7 active torsions:
REMARK  status: ('A' for Active; 'I' for Inactive)
REMARK    1  A    between atoms: C_1  and  O_2
REMARK    2  A    between atoms: O_2  and  C_3
REMARK    3  A    between atoms: C_5  and  O_6
REMARK    4  A    between atoms: O_6  and  C_7
REMARK    5  A    between atoms: C_8  and  C_9
REMARK    6  A    between atoms: C_9  and  N_10
REMARK    7  A    between atoms: N_10  and  C_11
REMARK                            x       y       z     vdW  Elec       q    Type
REMARK                         _______ _______ _______ _____ _____    ______ ____
ROOT
ATOM      1  C   UNL     1       6.958   4.733  13.907  0.00  0.00    +0.000 A 
ATOM      2  C   UNL     1       7.351   5.264  15.138  0.00  0.00    +0.000 A 
ATOM      3  C   UNL     1       6.623   5.002  16.307  0.00  0.00    +0.000 A 
ATOM      4  C   UNL     1       5.432   4.264  16.243  0.00  0.00    +0.000 A 
ATOM      5  C   UNL     1       5.029   3.743  14.999  0.00  0.00    +0.000 A 
ATOM      6  C   UNL     1       5.784   3.977  13.844  0.00  0.00    +0.000 A 
ATOM      7 BR   UNL     1       5.159   3.255  12.203  0.00  0.00    +0.000 Br
ENDROOT
BRANCH   1   9
ATOM      8  C   UNL     1       8.685   5.943  12.826  0.00  0.00    +0.000 C 
ATOM      9  O   UNL     1       7.655   4.960  12.746  0.00  0.00    +0.000 OA
ENDBRANCH   1   9
BRANCH   3  10
ATOM     10  O   UNL     1       7.002   5.508  17.531  0.00  0.00    +0.000 OA
ATOM     11  C   UNL     1       7.456   6.863  17.529  0.00  0.00    +0.000 C 
ENDBRANCH   3  10
BRANCH   4  12
ATOM     12  C   UNL     1       4.528   4.091  17.446  0.00  0.00    +0.000 C 
BRANCH  12  13
ATOM     13  N   UNL     1       3.179   3.616  17.106  0.00  0.00    +0.000 NA
ATOM     14  H   UNL     1       3.162   2.601  17.198  0.00  0.00    +0.000 HD
BRANCH  13  15
ATOM     15  C   UNL     1       2.131   4.213  17.970  0.00  0.00    +0.000 C 
ATOM     16  C   UNL     1       1.153   3.124  18.456  0.00  0.00    +0.000 C 
ATOM     17  C   UNL     1       1.634   2.258  19.622  0.00  0.00    +0.000 C 
ATOM     18  C   UNL     1       1.336   2.858  20.996  0.00  0.00    +0.000 C 
ATOM     19  C   UNL     1       2.097   4.133  21.338  0.00  0.00    +0.000 C 
ATOM     20  C   UNL     1       1.897   5.277  20.347  0.00  0.00    +0.000 C 
ATOM     21  C   UNL     1       2.735   5.086  19.088  0.00  0.00    +0.000 C 
ENDBRANCH  13  15
ENDBRANCH  12  13
ENDBRANCH   4  12
TORSDOF 5
ENDMDL
MODEL 5
REMARK VINA RESULT:      -6.4      4.025      6.297
REMARK  Name = 
REMARK  7 active torsions:
REMARK  status: ('A' for Active; 'I' for Inactive)
REMARK    1  A    between atoms: C_1  and  O_2
REMARK    2  A    between atoms: O_2  and  C_3
REMARK    3  A    between atoms: C_5  and  O_6
REMARK    4  A    between atoms: O_6  and  C_7
REMARK    5  A    between atoms: C_8  and  C_9
REMARK    6  A    between atoms: C_9  and  N_10
REMARK    7  A    between atoms: N_10  and  C_11
REMARK                            x       y       z     vdW  Elec       q    Type
REMARK                         _______ _______ _______ _____ _____    ______ ____
ROOT
ATOM      1  C   UNL     1       3.568   3.570  19.583  0.00  0.00    +0.000 A 
ATOM      2  C   UNL     1       4.173   4.507  18.741  0.00  0.00    +0.000 A 
ATOM      3  C   UNL     1       3.792   5.856  18.763  0.00  0.00    +0.000 A 
ATOM      4  C   UNL     1       2.731   6.274  19.580  0.00  0.00    +0.000 A 
ATOM      5  C   UNL     1       2.112   5.326  20.416  0.00  0.00    +0.000 A 
ATOM      6  C   UNL     1       2.526   3.988  20.416  0.00  0.00    +0.000 A 
ATOM      7 BR   UNL     1       1.624   2.771  21.560  0.00  0.00    +0.000 Br
ENDROOT
BRANCH   1   9
ATOM      8  C   UNL     1       3.561   1.496  18.438  0.00  0.00    +0.000 C 
ATOM      9  O   UNL     1       3.925   2.245  19.595  0.00  0.00    +0.000 OA
ENDBRANCH   1   9
BRANCH   3  10
ATOM     10  O   UNL     1       4.385   6.794  17.948  0.00  0.00    +0.000 OA
ATOM     11  C   UNL     1       4.655   6.373  16.609  0.00  0.00    +0.000 C 
ENDBRANCH   3  10
BRANCH   4  12
ATOM     12  C   UNL     1       2.178   7.683  19.521  0.00  0.00    +0.000 C 
BRANCH  12  13
ATOM     13  N   UNL     1       1.661   8.167  20.809  0.00  0.00    +0.000 NA
ATOM     14  H   UNL     1       2.324   8.842  21.189  0.00  0.00    +0.000 HD
BRANCH  13  15
ATOM     15  C   UNL     1       0.323   8.798  20.684  0.00  0.00    +0.000 C 
ATOM     16  C   UNL     1      -0.494   8.580  21.973  0.00  0.00    +0.000 C 
ATOM     17  C   UNL     1      -0.160   9.502  23.146  0.00  0.00    +0.000 C 
ATOM     18  C   UNL     1      -0.923  10.826  23.124  0.00  0.00    +0.000 C 
ATOM     19  C   UNL     1      -0.563  11.775  21.987  0.00  0.00    +0.000 C 
ATOM     20  C   UNL     1      -0.736  11.186  20.589  0.00  0.00    +0.000 C 
ATOM     21  C   UNL     1       0.420  10.264  20.218  0.00  0.00    +0.000 C 
ENDBRANCH  13  15
ENDBRANCH  12  13
ENDBRANCH   4  12
TORSDOF 5
ENDMDL
MODEL 6
REMARK VINA RESULT:      -6.3      2.550      5.412
REMARK  Name = 
REMARK  7 active torsions:
REMARK  status: ('A' for Active; 'I' for Inactive)
REMARK    1  A    between atoms: C_1  and  O_2
REMARK    2  A    between atoms: O_2  and  C_3
REMARK    3  A    between atoms: C_5  and  O_6
REMARK    4  A    between atoms: O_6  and  C_7
REMARK    5  A    between atoms: C_8  and  C_9
REMARK    6  A    between atoms: C_9  and  N_10
REMARK    7  A    between atoms: N_10  and  C_11
REMARK                            x       y       z     vdW  Elec       q    Type
REMARK                         _______ _______ _______ _____ _____    ______ ____
ROOT
ATOM      1  C   UNL     1       2.685   3.776  20.348  0.00  0.00    +0.000 A 
ATOM      2  C   UNL     1       2.418   5.118  20.631  0.00  0.00    +0.000 A 
ATOM      3  C   UNL     1       2.538   6.107  19.644  0.00  0.00    +0.000 A 
ATOM      4  C   UNL     1       3.011   5.771  18.367  0.00  0.00    +0.000 A 
ATOM      5  C   UNL     1       3.295   4.420  18.088  0.00  0.00    +0.000 A 
ATOM      6  C   UNL     1       3.134   3.435  19.069  0.00  0.00    +0.000 A 
ATOM      7 BR   UNL     1       3.557   1.641  18.614  0.00  0.00    +0.000 Br
ENDROOT
BRANCH   1   9
ATOM      8  C   UNL     1       1.248   2.558  21.786  0.00  0.00    +0.000 C 
ATOM      9  O   UNL     1       2.566   2.782  21.288  0.00  0.00    +0.000 OA
ENDBRANCH   1   9
BRANCH   3  10
ATOM     10  O   UNL     1       2.269   7.432  19.904  0.00  0.00    +0.000 OA
ATOM     11  C   UNL     1       1.383   7.684  20.997  0.00  0.00    +0.000 C 
ENDBRANCH   3  10
BRANCH   4  12
ATOM     12  C   UNL     1       3.310   6.823  17.319  0.00  0.00    +0.000 C 
BRANCH  12  13
ATOM     13  N   UNL     1       4.523   7.605  17.600  0.00  0.00    +0.000 NA
ATOM     14  H   UNL     1       4.784   7.456  18.574  0.00  0.00    +0.000 HD
BRANCH  13  15
ATOM     15  C   UNL     1       5.657   7.233  16.717  0.00  0.00    +0.000 C 
ATOM     16  C   UNL     1       6.913   6.930  17.558  0.00  0.00    +0.000 C 
ATOM     17  C   UNL     1       6.964   5.552  18.219  0.00  0.00    +0.000 C 
ATOM     18  C   UNL     1       7.546   4.461  17.321  0.00  0.00    +0.000 C 
ATOM     19  C   UNL     1       6.706   4.091  16.104  0.00  0.00    +0.000 C 
ATOM     20  C   UNL     1       6.393   5.258  15.171  0.00  0.00    +0.000 C 
ATOM     21  C   UNL     1       5.266   6.129  15.715  0.00  0.00    +0.000 C 
ENDBRANCH  13  15
ENDBRANCH  12  13
ENDBRANCH   4  12
TORSDOF 5
ENDMDL
MODEL 7
REMARK VINA RESULT:      -6.2      2.446      3.830
REMARK  Name = 
REMARK  7 active torsions:
REMARK  status: ('A' for Active; 'I' for Inactive)
REMARK    1  A    between atoms: C_1  and  O_2
REMARK    2  A    between atoms: O_2  and  C_3
REMARK    3  A    between atoms: C_5  and  O_6
REMARK    4  A    between atoms: O_6  and  C_7
REMARK    5  A    between atoms: C_8  and  C_9
REMARK    6  A    between atoms: C_9  and  N_10
REMARK    7  A    between atoms: N_10  and  C_11
REMARK                            x       y       z     vdW  Elec       q    Type
REMARK                         _______ _______ _______ _____ _____    ______ ____
ROOT
ATOM      1  C   UNL     1       2.186   8.103  18.424  0.00  0.00    +0.000 A 
ATOM      2  C   UNL     1       3.045   7.609  17.439  0.00  0.00    +0.000 A 
ATOM      3  C   UNL     1       3.791   6.440  17.645  0.00  0.00    +0.000 A 
ATOM      4  C   UNL     1       3.748   5.789  18.887  0.00  0.00    +0.000 A 
ATOM      5  C   UNL     1       2.894   6.297  19.884  0.00  0.00    +0.000 A 
ATOM      6  C   UNL     1       2.122   7.442  19.654  0.00  0.00    +0.000 A 
ATOM      7 BR   UNL     1       1.012   8.071  21.059  0.00  0.00    +0.000 Br
ENDROOT
BRANCH   1   9
ATOM      8  C   UNL     1       2.166  10.454  18.131  0.00  0.00    +0.000 C 
ATOM      9  O   UNL     1       1.432   9.237  18.249  0.00  0.00    +0.000 OA
ENDBRANCH   1   9
BRANCH   3  10
ATOM     10  O   UNL     1       4.634   5.934  16.681  0.00  0.00    +0.000 OA
ATOM     11  C   UNL     1       5.850   6.657  16.477  0.00  0.00    +0.000 C 
ENDBRANCH   3  10
BRANCH   4  12
ATOM     12  C   UNL     1       4.654   4.620  19.212  0.00  0.00    +0.000 C 
BRANCH  12  13
ATOM     13  N   UNL     1       4.648   3.566  18.187  0.00  0.00    +0.000 NA
ATOM     14  H   UNL     1       5.562   3.116  18.182  0.00  0.00    +0.000 HD
BRANCH  13  15
ATOM     15  C   UNL     1       3.591   2.550  18.422  0.00  0.00    +0.000 C 
ATOM     16  C   UNL     1       3.684   2.005  19.862  0.00  0.00    +0.000 C 
ATOM     17  C   UNL     1       3.089   2.891  20.957  0.00  0.00    +0.000 C 
ATOM     18  C   UNL     1       1.593   2.668  21.182  0.00  0.00    +0.000 C 
ATOM     19  C   UNL     1       0.684   3.093  20.035  0.00  0.00    +0.000 C 
ATOM     20  C   UNL     1       0.995   2.425  18.698  0.00  0.00    +0.000 C 
ATOM     21  C   UNL     1       2.197   3.065  18.013  0.00  0.00    +0.000 C 
ENDBRANCH  13  15
ENDBRANCH  12  13
ENDBRANCH   4  12
TORSDOF 5
ENDMDL
MODEL 8
REMARK VINA RESULT:      -6.2      1.565      2.235
REMARK  Name = 
REMARK  7 active torsions:
REMARK  status: ('A' for Active; 'I' for Inactive)
REMARK    1  A    between atoms: C_1  and  O_2
REMARK    2  A    between atoms: O_2  and  C_3
REMARK    3  A    between atoms: C_5  and  O_6
REMARK    4  A    between atoms: O_6  and  C_7
REMARK    5  A    between atoms: C_8  and  C_9
REMARK    6  A    between atoms: C_9  and  N_10
REMARK    7  A    between atoms: N_10  and  C_11
REMARK                            x       y       z     vdW  Elec       q    Type
REMARK                         _______ _______ _______ _____ _____    ______ ____
ROOT
ATOM      1  C   UNL     1       5.476   6.249  16.786  0.00  0.00    +0.000 A 
ATOM      2  C   UNL     1       4.217   6.854  16.775  0.00  0.00    +0.000 A 
ATOM      3  C   UNL     1       3.395   6.840  17.911  0.00  0.00    +0.000 A 
ATOM      4  C   UNL     1       3.794   6.142  19.060  0.00  0.00    +0.000 A 
ATOM      5  C   UNL     1       5.057   5.519  19.064  0.00  0.00    +0.000 A 
ATOM      6  C   UNL     1       5.888   5.572  17.938  0.00  0.00    +0.000 A 
ATOM      7 BR   UNL     1       7.566   4.689  18.021  0.00  0.00    +0.000 Br
ENDROOT
BRANCH   1   9
ATOM      8  C   UNL     1       6.076   5.228  14.734  0.00  0.00    +0.000 C 
ATOM      9  O   UNL     1       6.310   6.254  15.696  0.00  0.00    +0.000 OA
ENDBRANCH   1   9
BRANCH   3  10
ATOM     10  O   UNL     1       2.156   7.441  17.920  0.00  0.00    +0.000 OA
ATOM     11  C   UNL     1       2.156   8.869  17.862  0.00  0.00    +0.000 C 
ENDBRANCH   3  10
BRANCH   4  12
ATOM     12  C   UNL     1       2.876   5.963  20.251  0.00  0.00    +0.000 C 
BRANCH  12  13
ATOM     13  N   UNL     1       1.517   5.534  19.887  0.00  0.00    +0.000 NA
ATOM     14  H   UNL     1       1.305   5.892  18.957  0.00  0.00    +0.000 HD
BRANCH  13  15
ATOM     15  C   UNL     1       1.364   4.058  19.902  0.00  0.00    +0.000 C 
ATOM     16  C   UNL     1       1.100   3.533  18.476  0.00  0.00    +0.000 C 
ATOM     17  C   UNL     1       2.323   3.406  17.568  0.00  0.00    +0.000 C 
ATOM     18  C   UNL     1       3.056   2.072  17.708  0.00  0.00    +0.000 C 
ATOM     19  C   UNL     1       3.748   1.838  19.046  0.00  0.00    +0.000 C 
ATOM     20  C   UNL     1       2.827   1.921  20.260  0.00  0.00    +0.000 C 
ATOM     21  C   UNL     1       2.526   3.366  20.642  0.00  0.00    +0.000 C 
ENDBRANCH  13  15
ENDBRANCH  12  13
ENDBRANCH   4  12
TORSDOF 5
ENDMDL
MODEL 9
REMARK VINA RESULT:      -6.2      1.153      1.478
REMARK  Name = 
REMARK  7 active torsions:
REMARK  status: ('A' for Active; 'I' for Inactive)
REMARK    1  A    between atoms: C_1  and  O_2
REMARK    2  A    between atoms: O_2  and  C_3
REMARK    3  A    between atoms: C_5  and  O_6
REMARK    4  A    between atoms: O_6  and  C_7
REMARK    5  A    between atoms: C_8  and  C_9
REMARK    6  A    between atoms: C_9  and  N_10
REMARK    7  A    between atoms: N_10  and  C_11
REMARK                            x       y       z     vdW  Elec       q    Type
REMARK                         _______ _______ _______ _____ _____    ______ ____
ROOT
ATOM      1  C   UNL     1       5.801   6.547  16.751  0.00  0.00    +0.000 A 
ATOM      2  C   UNL     1       4.623   6.770  17.468  0.00  0.00    +0.000 A 
ATOM      3  C   UNL     1       3.646   5.771  17.589  0.00  0.00    +0.000 A 
ATOM      4  C   UNL     1       3.804   4.549  16.918  0.00  0.00    +0.000 A 
ATOM      5  C   UNL     1       4.986   4.332  16.184  0.00  0.00    +0.000 A 
ATOM      6  C   UNL     1       5.972   5.321  16.101  0.00  0.00    +0.000 A 
ATOM      7 BR   UNL     1       7.526   4.954  15.074  0.00  0.00    +0.000 Br
ENDROOT
BRANCH   1   9
ATOM      8  C   UNL     1       7.672   7.622  17.730  0.00  0.00    +0.000 C 
ATOM      9  O   UNL     1       6.782   7.499  16.623  0.00  0.00    +0.000 OA
ENDBRANCH   1   9
BRANCH   3  10
ATOM     10  O   UNL     1       2.484   5.970  18.300  0.00  0.00    +0.000 OA
ATOM     11  C   UNL     1       2.477   7.098  19.177  0.00  0.00    +0.000 C 
ENDBRANCH   3  10
BRANCH   4  12
ATOM     12  C   UNL     1       2.709   3.503  16.886  0.00  0.00    +0.000 C 
BRANCH  12  13
ATOM     13  N   UNL     1       3.107   2.216  17.477  0.00  0.00    +0.000 NA
ATOM     14  H   UNL     1       4.107   2.245  17.668  0.00  0.00    +0.000 HD
BRANCH  13  15
ATOM     15  C   UNL     1       2.368   1.913  18.728  0.00  0.00    +0.000 C 
ATOM     16  C   UNL     1       3.290   2.090  19.951  0.00  0.00    +0.000 C 
ATOM     17  C   UNL     1       3.516   3.528  20.422  0.00  0.00    +0.000 C 
ATOM     18  C   UNL     1       2.454   4.027  21.402  0.00  0.00    +0.000 C 
ATOM     19  C   UNL     1       1.054   4.200  20.824  0.00  0.00    +0.000 C 
ATOM     20  C   UNL     1       0.465   2.938  20.199  0.00  0.00    +0.000 C 
ATOM     21  C   UNL     1       1.033   2.680  18.808  0.00  0.00    +0.000 C 
ENDBRANCH  13  15
ENDBRANCH  12  13
ENDBRANCH   4  12
TORSDOF 5
ENDMDL
