MODEL 1
REMARK VINA RESULT:      -5.8      0.000      0.000
REMARK  Name = 
REMARK  11 active torsions:
REMARK  status: ('A' for Active; 'I' for Inactive)
REMARK    1  A    between atoms: N_1  and  C_2
REMARK    2  A    between atoms: C_2  and  C_3
REMARK    3  A    between atoms: C_3  and  C_4
REMARK    4  A    between atoms: C_4  and  O_5
REMARK    5  A    between atoms: C_4  and  C_6
REMARK    6  A    between atoms: N_8  and  C_9
REMARK    7  A    between atoms: C_11  and  N_12
REMARK    8  A    between atoms: C_16  and  O_17
REMARK    9  A    between atoms: C_18  and  O_19
REMARK   10  A    between atoms: C_22  and  O_23
REMARK   11  A    between atoms: C_24  and  O_25
REMARK                            x       y       z     vdW  Elec       q    Type
REMARK                         _______ _______ _______ _____ _____    ______ ____
ROOT
ATOM      1  C   UNL     1       8.899  10.156  18.845  0.00  0.00    +0.000 C 
ATOM      2  C   UNL     1       9.888  10.809  17.834  0.00  0.00    +0.000 C 
ATOM      3  C   UNL     1      10.762  12.047  18.311  0.00  0.00    +0.000 C 
ATOM      4  C   UNL     1      10.099  13.077  19.343  0.00  0.00    +0.000 C 
ATOM      5  C   UNL     1       9.048  13.952  18.592  0.00  0.00    +0.000 C 
ATOM      6  C   UNL     1       9.552  15.210  17.866  0.00  0.00    +0.000 C 
ATOM      7  C   UNL     1       9.976  16.299  18.850  0.00  0.00    +0.000 C 
ATOM      8  C   UNL     1      11.442  16.192  19.289  0.00  0.00    +0.000 C 
ATOM      9  C   UNL     1      11.960  14.759  19.413  0.00  0.00    +0.000 C 
ATOM     10  O   UNL     1      11.067  13.888  20.055  0.00  0.00    +0.000 OA
ATOM     11  C   UNL     1       9.353  12.361  20.529  0.00  0.00    +0.000 C 
ATOM     12  C   UNL     1       8.946  10.871  20.258  0.00  0.00    +0.000 C 
ENDROOT
BRANCH   1  15
ATOM     13  C   UNL     1       8.144   7.857  18.245  0.00  0.00    +0.000 C 
ATOM     14  O   UNL     1       7.462   8.344  17.342  0.00  0.00    +0.000 OA
ATOM     15  N   UNL     1       8.967   8.676  19.065  0.00  0.00    +0.000 N 
ATOM     16  H   UNL     1       9.178   8.314  19.984  0.00  0.00    +0.000 HD
BRANCH  13  17
ATOM     17  C   UNL     1       8.109   6.361  18.604  0.00  0.00    +0.000 C 
BRANCH  17  18
ATOM     18  O   UNL     1       7.832   6.240  20.010  0.00  0.00    +0.000 OA
ATOM     19  H   UNL     1       7.520   5.328  20.163  0.00  0.00    +0.000 HD
ENDBRANCH  17  18
BRANCH  17  20
ATOM     20  C   UNL     1       7.056   5.544  17.823  0.00  0.00    +0.000 C 
BRANCH  20  21
ATOM     21  C   UNL     1       5.755   5.246  18.573  0.00  0.00    +0.000 C 
BRANCH  21  22
ATOM     22  N   UNL     1       5.737   3.891  19.102  0.00  0.00    +0.000 NA
ATOM     23  H   UNL     1       6.389   3.315  18.571  0.00  0.00    +0.000 HD
ATOM     24  H   UNL     1       4.814   3.473  18.950  0.00  0.00    +0.000 HD
ENDBRANCH  21  22
ENDBRANCH  20  21
ENDBRANCH  17  20
ENDBRANCH  13  17
ENDBRANCH   1  15
BRANCH   3  25
ATOM     25  N   UNL     1      12.068  11.538  18.757  0.00  0.00    +0.000 NA
ATOM     26  H   UNL     1      11.887  10.765  19.411  0.00  0.00    +0.000 HD
ATOM     27  H   UNL     1      12.504  12.245  19.349  0.00  0.00    +0.000 HD
ENDBRANCH   3  25
BRANCH   7  28
ATOM     28  O   UNL     1       9.763  17.572  18.222  0.00  0.00    +0.000 OA
ATOM     29  H   UNL     1       8.796  17.648  18.082  0.00  0.00    +0.000 HD
ENDBRANCH   7  28
BRANCH   8  30
ATOM     30  O   UNL     1      12.269  16.933  18.374  0.00  0.00    +0.000 OA
ATOM     31  H   UNL     1      12.487  17.785  18.791  0.00  0.00    +0.000 HD
ENDBRANCH   8  30
BRANCH  11  32
ATOM     32  O   UNL     1      10.111  12.394  21.773  0.00  0.00    +0.000 OA
ATOM     33  H   UNL     1      11.027  12.531  21.466  0.00  0.00    +0.000 HD
ENDBRANCH  11  32
BRANCH  12  34
ATOM     34  O   UNL     1      10.250  10.370  20.541  0.00  0.00    +0.000 OA
ATOM     35  H   UNL     1      10.101   9.656  21.193  0.00  0.00    +0.000 HD
ENDBRANCH  12  34
TORSDOF 11
ENDMDL
MODEL 2
REMARK VINA RESULT:      -5.6      2.894      9.862
REMARK  Name = 
REMARK  11 active torsions:
REMARK  status: ('A' for Active; 'I' for Inactive)
REMARK    1  A    between atoms: N_1  and  C_2
REMARK    2  A    between atoms: C_2  and  C_3
REMARK    3  A    between atoms: C_3  and  C_4
REMARK    4  A    between atoms: C_4  and  O_5
REMARK    5  A    between atoms: C_4  and  C_6
REMARK    6  A    between atoms: N_8  and  C_9
REMARK    7  A    between atoms: C_11  and  N_12
REMARK    8  A    between atoms: C_16  and  O_17
REMARK    9  A    between atoms: C_18  and  O_19
REMARK   10  A    between atoms: C_22  and  O_23
REMARK   11  A    between atoms: C_24  and  O_25
REMARK                            x       y       z     vdW  Elec       q    Type
REMARK                         _______ _______ _______ _____ _____    ______ ____
ROOT
ATOM      1  C   UNL     1       7.566   7.840  18.370  0.00  0.00    +0.000 C 
ATOM      2  C   UNL     1       7.973   6.377  18.717  0.00  0.00    +0.000 C 
ATOM      3  C   UNL     1       7.137   5.182  18.088  0.00  0.00    +0.000 C 
ATOM      4  C   UNL     1       5.563   5.398  17.881  0.00  0.00    +0.000 C 
ATOM      5  C   UNL     1       4.850   5.328  19.267  0.00  0.00    +0.000 C 
ATOM      6  C   UNL     1       4.456   3.941  19.800  0.00  0.00    +0.000 C 
ATOM      7  C   UNL     1       3.297   3.339  19.006  0.00  0.00    +0.000 C 
ATOM      8  C   UNL     1       3.748   2.533  17.781  0.00  0.00    +0.000 C 
ATOM      9  C   UNL     1       4.990   3.088  17.083  0.00  0.00    +0.000 C 
ATOM     10  O   UNL     1       4.974   4.482  16.924  0.00  0.00    +0.000 OA
ATOM     11  C   UNL     1       5.215   6.791  17.242  0.00  0.00    +0.000 C 
ATOM     12  C   UNL     1       6.327   7.888  17.384  0.00  0.00    +0.000 C 
ENDROOT
BRANCH   1  15
ATOM     13  C   UNL     1       9.062   9.803  18.727  0.00  0.00    +0.000 C 
ATOM     14  O   UNL     1       8.655   9.870  19.888  0.00  0.00    +0.000 OA
ATOM     15  N   UNL     1       8.615   8.776  17.851  0.00  0.00    +0.000 N 
ATOM     16  H   UNL     1       8.659   8.983  16.864  0.00  0.00    +0.000 HD
BRANCH  13  17
ATOM     17  C   UNL     1      10.014  10.845  18.113  0.00  0.00    +0.000 C 
BRANCH  17  18
ATOM     18  O   UNL     1       9.224  11.942  17.620  0.00  0.00    +0.000 OA
ATOM     19  H   UNL     1       9.762  12.750  17.720  0.00  0.00    +0.000 HD
ENDBRANCH  17  18
BRANCH  17  20
ATOM     20  C   UNL     1      11.067  11.402  19.097  0.00  0.00    +0.000 C 
BRANCH  20  21
ATOM     21  C   UNL     1      12.067  12.399  18.508  0.00  0.00    +0.000 C 
BRANCH  21  22
ATOM     22  N   UNL     1      12.143  12.294  17.058  0.00  0.00    +0.000 NA
ATOM     23  H   UNL     1      12.868  12.922  16.715  0.00  0.00    +0.000 HD
ATOM     24  H   UNL     1      11.269  12.630  16.642  0.00  0.00    +0.000 HD
ENDBRANCH  21  22
ENDBRANCH  20  21
ENDBRANCH  17  20
ENDBRANCH  13  17
ENDBRANCH   1  15
BRANCH   3  25
ATOM     25  N   UNL     1       7.827   4.737  16.867  0.00  0.00    +0.000 NA
ATOM     26  H   UNL     1       8.120   5.581  16.357  0.00  0.00    +0.000 HD
ATOM     27  H   UNL     1       7.138   4.317  16.243  0.00  0.00    +0.000 HD
ENDBRANCH   3  25
BRANCH   7  28
ATOM     28  O   UNL     1       2.554   2.483  19.886  0.00  0.00    +0.000 OA
ATOM     29  H   UNL     1       2.110   3.074  20.530  0.00  0.00    +0.000 HD
ENDBRANCH   7  28
BRANCH   8  30
ATOM     30  O   UNL     1       3.973   1.165  18.166  0.00  0.00    +0.000 OA
ATOM     31  H   UNL     1       4.746   0.839  17.672  0.00  0.00    +0.000 HD
ENDBRANCH   8  30
BRANCH  11  32
ATOM     32  O   UNL     1       4.868   6.693  15.830  0.00  0.00    +0.000 OA
ATOM     33  H   UNL     1       5.548   6.086  15.481  0.00  0.00    +0.000 HD
ENDBRANCH  11  32
BRANCH  12  34
ATOM     34  O   UNL     1       7.092   7.380  16.294  0.00  0.00    +0.000 OA
ATOM     35  H   UNL     1       6.837   6.438  16.235  0.00  0.00    +0.000 HD
ENDBRANCH  12  34
TORSDOF 11
ENDMDL
MODEL 3
REMARK VINA RESULT:      -5.5      8.568      9.743
REMARK  Name = 
REMARK  11 active torsions:
REMARK  status: ('A' for Active; 'I' for Inactive)
REMARK    1  A    between atoms: N_1  and  C_2
REMARK    2  A    between atoms: C_2  and  C_3
REMARK    3  A    between atoms: C_3  and  C_4
REMARK    4  A    between atoms: C_4  and  O_5
REMARK    5  A    between atoms: C_4  and  C_6
REMARK    6  A    between atoms: N_8  and  C_9
REMARK    7  A    between atoms: C_11  and  N_12
REMARK    8  A    between atoms: C_16  and  O_17
REMARK    9  A    between atoms: C_18  and  O_19
REMARK   10  A    between atoms: C_22  and  O_23
REMARK   11  A    between atoms: C_24  and  O_25
REMARK                            x       y       z     vdW  Elec       q    Type
REMARK                         _______ _______ _______ _____ _____    ______ ____
ROOT
ATOM      1  C   UNL     1       0.959   8.878  20.244  0.00  0.00    +0.000 C 
ATOM      2  C   UNL     1       1.273  10.261  19.599  0.00  0.00    +0.000 C 
ATOM      3  C   UNL     1       0.872  11.581  20.387  0.00  0.00    +0.000 C 
ATOM      4  C   UNL     1      -0.468  11.550  21.263  0.00  0.00    +0.000 C 
ATOM      5  C   UNL     1      -1.704  11.598  20.312  0.00  0.00    +0.000 C 
ATOM      6  C   UNL     1      -2.196  12.978  19.847  0.00  0.00    +0.000 C 
ATOM      7  C   UNL     1      -2.855  13.756  20.985  0.00  0.00    +0.000 C 
ATOM      8  C   UNL     1      -1.867  14.593  21.808  0.00  0.00    +0.000 C 
ATOM      9  C   UNL     1      -0.485  13.958  21.970  0.00  0.00    +0.000 C 
ATOM     10  O   UNL     1      -0.524  12.589  22.273  0.00  0.00    +0.000 OA
ATOM     11  C   UNL     1      -0.599  10.251  22.139  0.00  0.00    +0.000 C 
ATOM     12  C   UNL     1       0.267   9.034  21.661  0.00  0.00    +0.000 C 
ENDROOT
BRANCH   1  15
ATOM     13  C   UNL     1       2.451   7.182  19.189  0.00  0.00    +0.000 C 
ATOM     14  O   UNL     1       1.947   7.453  18.098  0.00  0.00    +0.000 OA
ATOM     15  N   UNL     1       2.064   7.875  20.369  0.00  0.00    +0.000 N 
ATOM     16  H   UNL     1       2.197   7.379  21.238  0.00  0.00    +0.000 HD
BRANCH  13  17
ATOM     17  C   UNL     1       3.470   6.043  19.378  0.00  0.00    +0.000 C 
BRANCH  17  18
ATOM     18  O   UNL     1       3.065   5.261  20.515  0.00  0.00    +0.000 OA
ATOM     19  H   UNL     1       2.169   5.558  20.763  0.00  0.00    +0.000 HD
ENDBRANCH  17  18
BRANCH  17  20
ATOM     20  C   UNL     1       3.607   5.104  18.159  0.00  0.00    +0.000 C 
BRANCH  20  21
ATOM     21  C   UNL     1       3.963   3.650  18.477  0.00  0.00    +0.000 C 
BRANCH  21  22
ATOM     22  N   UNL     1       5.289   3.536  19.067  0.00  0.00    +0.000 NA
ATOM     23  H   UNL     1       5.559   2.553  19.095  0.00  0.00    +0.000 HD
ATOM     24  H   UNL     1       5.259   3.840  20.044  0.00  0.00    +0.000 HD
ENDBRANCH  21  22
ENDBRANCH  20  21
ENDBRANCH  17  20
ENDBRANCH  13  17
ENDBRANCH   1  15
BRANCH   3  25
ATOM     25  N   UNL     1       2.050  12.034  21.144  0.00  0.00    +0.000 NA
ATOM     26  H   UNL     1       2.009  11.587  22.070  0.00  0.00    +0.000 HD
ATOM     27  H   UNL     1       1.932  13.024  21.360  0.00  0.00    +0.000 HD
ENDBRANCH   3  25
BRANCH   7  28
ATOM     28  O   UNL     1      -3.846  14.623  20.415  0.00  0.00    +0.000 OA
ATOM     29  H   UNL     1      -3.379  15.170  19.749  0.00  0.00    +0.000 HD
ENDBRANCH   7  28
BRANCH   8  30
ATOM     30  O   UNL     1      -1.739  15.898  21.216  0.00  0.00    +0.000 OA
ATOM     31  H   UNL     1      -1.918  16.559  21.908  0.00  0.00    +0.000 HD
ENDBRANCH   8  30
BRANCH  11  32
ATOM     32  O   UNL     1      -0.294  10.485  23.544  0.00  0.00    +0.000 OA
ATOM     33  H   UNL     1      -0.868  11.243  23.768  0.00  0.00    +0.000 HD
ENDBRANCH  11  32
BRANCH  12  34
ATOM     34  O   UNL     1       1.460   9.532  22.260  0.00  0.00    +0.000 OA
ATOM     35  H   UNL     1       1.454  10.489  22.058  0.00  0.00    +0.000 HD
ENDBRANCH  12  34
TORSDOF 11
ENDMDL
MODEL 4
REMARK VINA RESULT:      -5.4      8.002     10.711
REMARK  Name = 
REMARK  11 active torsions:
REMARK  status: ('A' for Active; 'I' for Inactive)
REMARK    1  A    between atoms: N_1  and  C_2
REMARK    2  A    between atoms: C_2  and  C_3
REMARK    3  A    between atoms: C_3  and  C_4
REMARK    4  A    between atoms: C_4  and  O_5
REMARK    5  A    between atoms: C_4  and  C_6
REMARK    6  A    between atoms: N_8  and  C_9
REMARK    7  A    between atoms: C_11  and  N_12
REMARK    8  A    between atoms: C_16  and  O_17
REMARK    9  A    between atoms: C_18  and  O_19
REMARK   10  A    between atoms: C_22  and  O_23
REMARK   11  A    between atoms: C_24  and  O_25
REMARK                            x       y       z     vdW  Elec       q    Type
REMARK                         _______ _______ _______ _____ _____    ______ ____
ROOT
ATOM      1  C   UNL     1       6.549   4.793  16.652  0.00  0.00    +0.000 C 
ATOM      2  C   UNL     1       5.633   3.534  16.636  0.00  0.00    +0.000 C 
ATOM      3  C   UNL     1       4.153   3.657  17.198  0.00  0.00    +0.000 C 
ATOM      4  C   UNL     1       3.905   4.635  18.442  0.00  0.00    +0.000 C 
ATOM      5  C   UNL     1       4.472   3.973  19.736  0.00  0.00    +0.000 C 
ATOM      6  C   UNL     1       3.563   2.993  20.496  0.00  0.00    +0.000 C 
ATOM      7  C   UNL     1       2.410   3.714  21.191  0.00  0.00    +0.000 C 
ATOM      8  C   UNL     1       1.170   3.885  20.304  0.00  0.00    +0.000 C 
ATOM      9  C   UNL     1       1.479   4.116  18.825  0.00  0.00    +0.000 C 
ATOM     10  O   UNL     1       2.519   5.031  18.601  0.00  0.00    +0.000 OA
ATOM     11  C   UNL     1       4.615   6.028  18.277  0.00  0.00    +0.000 C 
ATOM     12  C   UNL     1       5.801   6.055  17.251  0.00  0.00    +0.000 C 
ENDROOT
BRANCH   1  15
ATOM     13  C   UNL     1       6.569   4.899  14.162  0.00  0.00    +0.000 C 
ATOM     14  O   UNL     1       5.453   4.378  14.155  0.00  0.00    +0.000 OA
ATOM     15  N   UNL     1       7.228   5.208  15.383  0.00  0.00    +0.000 N 
ATOM     16  H   UNL     1       8.235   5.255  15.345  0.00  0.00    +0.000 HD
BRANCH  13  17
ATOM     17  C   UNL     1       7.364   5.186  12.875  0.00  0.00    +0.000 C 
BRANCH  17  18
ATOM     18  O   UNL     1       8.669   5.664  13.248  0.00  0.00    +0.000 OA
ATOM     19  H   UNL     1       9.299   4.940  13.076  0.00  0.00    +0.000 HD
ENDBRANCH  17  18
BRANCH  17  20
ATOM     20  C   UNL     1       7.536   3.963  11.948  0.00  0.00    +0.000 C 
BRANCH  20  21
ATOM     21  C   UNL     1       6.344   3.005  11.883  0.00  0.00    +0.000 C 
BRANCH  21  22
ATOM     22  N   UNL     1       6.749   1.666  11.479  0.00  0.00    +0.000 NA
ATOM     23  H   UNL     1       7.343   1.731  10.653  0.00  0.00    +0.000 HD
ATOM     24  H   UNL     1       5.927   1.131  11.184  0.00  0.00    +0.000 HD
ENDBRANCH  21  22
ENDBRANCH  20  21
ENDBRANCH  17  20
ENDBRANCH  13  17
ENDBRANCH   1  15
BRANCH   3  25
ATOM     25  N   UNL     1       3.254   3.922  16.063  0.00  0.00    +0.000 NA
ATOM     26  H   UNL     1       2.314   4.083  16.450  0.00  0.00    +0.000 HD
ATOM     27  H   UNL     1       3.141   3.058  15.533  0.00  0.00    +0.000 HD
ENDBRANCH   3  25
BRANCH   7  28
ATOM     28  O   UNL     1       2.055   2.960  22.359  0.00  0.00    +0.000 OA
ATOM     29  H   UNL     1       2.069   2.018  22.089  0.00  0.00    +0.000 HD
ENDBRANCH   7  28
BRANCH   8  30
ATOM     30  O   UNL     1       0.316   2.736  20.452  0.00  0.00    +0.000 OA
ATOM     31  H   UNL     1       0.863   1.940  20.328  0.00  0.00    +0.000 HD
ENDBRANCH   8  30
BRANCH  11  32
ATOM     32  O   UNL     1       3.689   7.093  17.912  0.00  0.00    +0.000 OA
ATOM     33  H   UNL     1       3.162   7.211  18.724  0.00  0.00    +0.000 HD
ENDBRANCH  11  32
BRANCH  12  34
ATOM     34  O   UNL     1       4.939   6.161  16.121  0.00  0.00    +0.000 OA
ATOM     35  H   UNL     1       5.455   6.673  15.468  0.00  0.00    +0.000 HD
ENDBRANCH  12  34
TORSDOF 11
ENDMDL
MODEL 5
REMARK VINA RESULT:      -5.3      7.834      9.062
REMARK  Name = 
REMARK  11 active torsions:
REMARK  status: ('A' for Active; 'I' for Inactive)
REMARK    1  A    between atoms: N_1  and  C_2
REMARK    2  A    between atoms: C_2  and  C_3
REMARK    3  A    between atoms: C_3  and  C_4
REMARK    4  A    between atoms: C_4  and  O_5
REMARK    5  A    between atoms: C_4  and  C_6
REMARK    6  A    between atoms: N_8  and  C_9
REMARK    7  A    between atoms: C_11  and  N_12
REMARK    8  A    between atoms: C_16  and  O_17
REMARK    9  A    between atoms: C_18  and  O_19
REMARK   10  A    between atoms: C_22  and  O_23
REMARK   11  A    between atoms: C_24  and  O_25
REMARK                            x       y       z     vdW  Elec       q    Type
REMARK                         _______ _______ _______ _____ _____    ______ ____
ROOT
ATOM      1  C   UNL     1       1.830   8.754  19.091  0.00  0.00    +0.000 C 
ATOM      2  C   UNL     1       0.373   9.170  19.450  0.00  0.00    +0.000 C 
ATOM      3  C   UNL     1      -0.130  10.622  19.047  0.00  0.00    +0.000 C 
ATOM      4  C   UNL     1       0.931  11.821  19.103  0.00  0.00    +0.000 C 
ATOM      5  C   UNL     1       1.203  12.196  20.593  0.00  0.00    +0.000 C 
ATOM      6  C   UNL     1       0.243  13.189  21.268  0.00  0.00    +0.000 C 
ATOM      7  C   UNL     1       0.420  14.605  20.724  0.00  0.00    +0.000 C 
ATOM      8  C   UNL     1      -0.442  14.900  19.489  0.00  0.00    +0.000 C 
ATOM      9  C   UNL     1      -0.635  13.705  18.555  0.00  0.00    +0.000 C 
ATOM     10  O   UNL     1       0.540  12.976  18.318  0.00  0.00    +0.000 OA
ATOM     11  C   UNL     1       2.312  11.449  18.451  0.00  0.00    +0.000 C 
ATOM     12  C   UNL     1       2.602   9.912  18.333  0.00  0.00    +0.000 C 
ENDROOT
BRANCH   1  15
ATOM     13  C   UNL     1       2.265   6.299  19.115  0.00  0.00    +0.000 C 
ATOM     14  O   UNL     1       2.195   6.324  20.344  0.00  0.00    +0.000 OA
ATOM     15  N   UNL     1       2.052   7.475  18.344  0.00  0.00    +0.000 N 
ATOM     16  H   UNL     1       2.487   7.494  17.433  0.00  0.00    +0.000 HD
BRANCH  13  17
ATOM     17  C   UNL     1       2.653   5.036  18.325  0.00  0.00    +0.000 C 
BRANCH  17  18
ATOM     18  O   UNL     1       3.554   4.258  19.133  0.00  0.00    +0.000 OA
ATOM     19  H   UNL     1       4.273   4.854  19.416  0.00  0.00    +0.000 HD
ENDBRANCH  17  18
BRANCH  17  20
ATOM     20  C   UNL     1       1.457   4.144  17.924  0.00  0.00    +0.000 C 
BRANCH  20  21
ATOM     21  C   UNL     1       1.142   2.987  18.876  0.00  0.00    +0.000 C 
BRANCH  21  22
ATOM     22  N   UNL     1       0.673   3.465  20.168  0.00  0.00    +0.000 NA
ATOM     23  H   UNL     1       1.366   3.237  20.880  0.00  0.00    +0.000 HD
ATOM     24  H   UNL     1      -0.174   2.956  20.437  0.00  0.00    +0.000 HD
ENDBRANCH  21  22
ENDBRANCH  20  21
ENDBRANCH  17  20
ENDBRANCH  13  17
ENDBRANCH   1  15
BRANCH   3  25
ATOM     25  N   UNL     1      -0.825  10.521  17.754  0.00  0.00    +0.000 NA
ATOM     26  H   UNL     1      -0.152  10.139  17.075  0.00  0.00    +0.000 HD
ATOM     27  H   UNL     1      -0.994  11.465  17.405  0.00  0.00    +0.000 HD
ENDBRANCH   3  25
BRANCH   7  28
ATOM     28  O   UNL     1       0.078  15.528  21.768  0.00  0.00    +0.000 OA
ATOM     29  H   UNL     1       0.832  16.151  21.838  0.00  0.00    +0.000 HD
ENDBRANCH   7  28
BRANCH   8  30
ATOM     30  O   UNL     1      -1.722  15.404  19.910  0.00  0.00    +0.000 OA
ATOM     31  H   UNL     1      -1.822  16.303  19.552  0.00  0.00    +0.000 HD
ENDBRANCH   8  30
BRANCH  11  32
ATOM     32  O   UNL     1       2.488  12.035  17.129  0.00  0.00    +0.000 OA
ATOM     33  H   UNL     1       3.013  12.837  17.315  0.00  0.00    +0.000 HD
ENDBRANCH  11  32
BRANCH  12  34
ATOM     34  O   UNL     1       1.807   9.762  17.160  0.00  0.00    +0.000 OA
ATOM     35  H   UNL     1       2.401  10.020  16.428  0.00  0.00    +0.000 HD
ENDBRANCH  12  34
TORSDOF 11
ENDMDL
MODEL 6
REMARK VINA RESULT:      -5.3      8.236     10.150
REMARK  Name = 
REMARK  11 active torsions:
REMARK  status: ('A' for Active; 'I' for Inactive)
REMARK    1  A    between atoms: N_1  and  C_2
REMARK    2  A    between atoms: C_2  and  C_3
REMARK    3  A    between atoms: C_3  and  C_4
REMARK    4  A    between atoms: C_4  and  O_5
REMARK    5  A    between atoms: C_4  and  C_6
REMARK    6  A    between atoms: N_8  and  C_9
REMARK    7  A    between atoms: C_11  and  N_12
REMARK    8  A    between atoms: C_16  and  O_17
REMARK    9  A    between atoms: C_18  and  O_19
REMARK   10  A    between atoms: C_22  and  O_23
REMARK   11  A    between atoms: C_24  and  O_25
REMARK                            x       y       z     vdW  Elec       q    Type
REMARK                         _______ _______ _______ _____ _____    ______ ____
ROOT
ATOM      1  C   UNL     1       3.077   6.976  19.269  0.00  0.00    +0.000 C 
ATOM      2  C   UNL     1       2.510   6.455  17.915  0.00  0.00    +0.000 C 
ATOM      3  C   UNL     1       3.270   5.276  17.170  0.00  0.00    +0.000 C 
ATOM      4  C   UNL     1       4.868   5.232  17.277  0.00  0.00    +0.000 C 
ATOM      5  C   UNL     1       5.473   6.354  16.377  0.00  0.00    +0.000 C 
ATOM      6  C   UNL     1       5.695   6.036  14.889  0.00  0.00    +0.000 C 
ATOM      7  C   UNL     1       6.843   5.048  14.687  0.00  0.00    +0.000 C 
ATOM      8  C   UNL     1       6.405   3.579  14.744  0.00  0.00    +0.000 C 
ATOM      9  C   UNL     1       5.274   3.296  15.732  0.00  0.00    +0.000 C 
ATOM     10  O   UNL     1       5.434   3.932  16.972  0.00  0.00    +0.000 OA
ATOM     11  C   UNL     1       5.392   5.470  18.740  0.00  0.00    +0.000 C 
ATOM     12  C   UNL     1       4.382   6.187  19.702  0.00  0.00    +0.000 C 
ENDROOT
BRANCH   1  15
ATOM     13  C   UNL     1       1.469   8.277  20.660  0.00  0.00    +0.000 C 
ATOM     14  O   UNL     1       1.564   9.206  19.857  0.00  0.00    +0.000 OA
ATOM     15  N   UNL     1       2.161   7.053  20.452  0.00  0.00    +0.000 N 
ATOM     16  H   UNL     1       2.362   6.510  21.279  0.00  0.00    +0.000 HD
BRANCH  13  17
ATOM     17  C   UNL     1       0.666   8.384  21.970  0.00  0.00    +0.000 C 
BRANCH  17  18
ATOM     18  O   UNL     1       1.508   8.992  22.966  0.00  0.00    +0.000 OA
ATOM     19  H   UNL     1       2.109   8.298  23.295  0.00  0.00    +0.000 HD
ENDBRANCH  17  18
BRANCH  17  20
ATOM     20  C   UNL     1      -0.633   9.210  21.853  0.00  0.00    +0.000 C 
BRANCH  20  21
ATOM     21  C   UNL     1      -0.591  10.608  22.476  0.00  0.00    +0.000 C 
BRANCH  21  22
ATOM     22  N   UNL     1       0.369  11.470  21.802  0.00  0.00    +0.000 NA
ATOM     23  H   UNL     1       0.165  12.442  22.032  0.00  0.00    +0.000 HD
ATOM     24  H   UNL     1       0.245  11.397  20.787  0.00  0.00    +0.000 HD
ENDBRANCH  21  22
ENDBRANCH  20  21
ENDBRANCH  17  20
ENDBRANCH  13  17
ENDBRANCH   1  15
BRANCH   3  25
ATOM     25  N   UNL     1       2.628   4.008  17.551  0.00  0.00    +0.000 NA
ATOM     26  H   UNL     1       1.634   4.080  17.295  0.00  0.00    +0.000 HD
ATOM     27  H   UNL     1       2.602   3.954  18.569  0.00  0.00    +0.000 HD
ENDBRANCH   3  25
BRANCH   7  28
ATOM     28  O   UNL     1       7.438   5.314  13.409  0.00  0.00    +0.000 OA
ATOM     29  H   UNL     1       8.204   4.706  13.333  0.00  0.00    +0.000 HD
ENDBRANCH   7  28
BRANCH   8  30
ATOM     30  O   UNL     1       6.024   3.144  13.426  0.00  0.00    +0.000 OA
ATOM     31  H   UNL     1       6.578   3.620  12.783  0.00  0.00    +0.000 HD
ENDBRANCH   8  30
BRANCH  11  32
ATOM     32  O   UNL     1       5.826   4.240  19.390  0.00  0.00    +0.000 OA
ATOM     33  H   UNL     1       6.691   4.488  19.768  0.00  0.00    +0.000 HD
ENDBRANCH  11  32
BRANCH  12  34
ATOM     34  O   UNL     1       3.650   4.993  19.968  0.00  0.00    +0.000 OA
ATOM     35  H   UNL     1       3.827   4.803  20.911  0.00  0.00    +0.000 HD
ENDBRANCH  12  34
TORSDOF 11
ENDMDL
MODEL 7
REMARK VINA RESULT:      -5.2      1.055      1.057
REMARK  Name = 
REMARK  11 active torsions:
REMARK  status: ('A' for Active; 'I' for Inactive)
REMARK    1  A    between atoms: N_1  and  C_2
REMARK    2  A    between atoms: C_2  and  C_3
REMARK    3  A    between atoms: C_3  and  C_4
REMARK    4  A    between atoms: C_4  and  O_5
REMARK    5  A    between atoms: C_4  and  C_6
REMARK    6  A    between atoms: N_8  and  C_9
REMARK    7  A    between atoms: C_11  and  N_12
REMARK    8  A    between atoms: C_16  and  O_17
REMARK    9  A    between atoms: C_18  and  O_19
REMARK   10  A    between atoms: C_22  and  O_23
REMARK   11  A    between atoms: C_24  and  O_25
REMARK                            x       y       z     vdW  Elec       q    Type
REMARK                         _______ _______ _______ _____ _____    ______ ____
ROOT
ATOM      1  C   UNL     1       8.614  10.216  18.935  0.00  0.00    +0.000 C 
ATOM      2  C   UNL     1       8.949  10.914  17.583  0.00  0.00    +0.000 C 
ATOM      3  C   UNL     1       9.845  12.225  17.600  0.00  0.00    +0.000 C 
ATOM      4  C   UNL     1       9.677  13.229  18.837  0.00  0.00    +0.000 C 
ATOM      5  C   UNL     1       8.331  14.005  18.688  0.00  0.00    +0.000 C 
ATOM      6  C   UNL     1       8.330  15.277  17.824  0.00  0.00    +0.000 C 
ATOM      7  C   UNL     1       9.086  16.420  18.501  0.00  0.00    +0.000 C 
ATOM      8  C   UNL     1      10.588  16.432  18.186  0.00  0.00    +0.000 C 
ATOM      9  C   UNL     1      11.211  15.045  18.031  0.00  0.00    +0.000 C 
ATOM     10  O   UNL     1      10.801  14.128  19.011  0.00  0.00    +0.000 OA
ATOM     11  C   UNL     1       9.643  12.492  20.225  0.00  0.00    +0.000 C 
ATOM     12  C   UNL     1       9.273  10.970  20.164  0.00  0.00    +0.000 C 
ENDROOT
BRANCH   1  15
ATOM     13  C   UNL     1       8.033   7.855  18.386  0.00  0.00    +0.000 C 
ATOM     14  O   UNL     1       7.145   8.273  17.642  0.00  0.00    +0.000 OA
ATOM     15  N   UNL     1       8.893   8.751  19.078  0.00  0.00    +0.000 N 
ATOM     16  H   UNL     1       9.310   8.400  19.927  0.00  0.00    +0.000 HD
BRANCH  13  17
ATOM     17  C   UNL     1       8.239   6.358  18.683  0.00  0.00    +0.000 C 
BRANCH  17  18
ATOM     18  O   UNL     1       7.793   6.099  20.026  0.00  0.00    +0.000 OA
ATOM     19  H   UNL     1       8.275   6.713  20.612  0.00  0.00    +0.000 HD
ENDBRANCH  17  18
BRANCH  17  20
ATOM     20  C   UNL     1       7.486   5.410  17.724  0.00  0.00    +0.000 C 
BRANCH  20  21
ATOM     21  C   UNL     1       6.190   4.805  18.268  0.00  0.00    +0.000 C 
BRANCH  21  22
ATOM     22  N   UNL     1       5.122   5.791  18.336  0.00  0.00    +0.000 NA
ATOM     23  H   UNL     1       4.753   5.950  17.398  0.00  0.00    +0.000 HD
ATOM     24  H   UNL     1       5.503   6.693  18.637  0.00  0.00    +0.000 HD
ENDBRANCH  21  22
ENDBRANCH  20  21
ENDBRANCH  17  20
ENDBRANCH  13  17
ENDBRANCH   1  15
BRANCH   3  25
ATOM     25  N   UNL     1      11.242  11.825  17.364  0.00  0.00    +0.000 NA
ATOM     26  H   UNL     1      11.462  11.076  18.034  0.00  0.00    +0.000 HD
ATOM     27  H   UNL     1      11.850  12.588  17.661  0.00  0.00    +0.000 HD
ENDBRANCH   3  25
BRANCH   7  28
ATOM     28  O   UNL     1       8.502  17.657  18.066  0.00  0.00    +0.000 OA
ATOM     29  H   UNL     1       8.742  18.323  18.744  0.00  0.00    +0.000 HD
ENDBRANCH   7  28
BRANCH   8  30
ATOM     30  O   UNL     1      10.819  17.209  16.997  0.00  0.00    +0.000 OA
ATOM     31  H   UNL     1      11.128  18.090  17.271  0.00  0.00    +0.000 HD
ENDBRANCH   8  30
BRANCH  11  32
ATOM     32  O   UNL     1      10.897  12.613  20.958  0.00  0.00    +0.000 OA
ATOM     33  H   UNL     1      11.395  11.826  20.669  0.00  0.00    +0.000 HD
ENDBRANCH  11  32
BRANCH  12  34
ATOM     34  O   UNL     1      10.588  10.573  19.784  0.00  0.00    +0.000 OA
ATOM     35  H   UNL     1      11.084  10.538  20.626  0.00  0.00    +0.000 HD
ENDBRANCH  12  34
TORSDOF 11
ENDMDL
MODEL 8
REMARK VINA RESULT:      -5.2      8.208     10.614
REMARK  Name = 
REMARK  11 active torsions:
REMARK  status: ('A' for Active; 'I' for Inactive)
REMARK    1  A    between atoms: N_1  and  C_2
REMARK    2  A    between atoms: C_2  and  C_3
REMARK    3  A    between atoms: C_3  and  C_4
REMARK    4  A    between atoms: C_4  and  O_5
REMARK    5  A    between atoms: C_4  and  C_6
REMARK    6  A    between atoms: N_8  and  C_9
REMARK    7  A    between atoms: C_11  and  N_12
REMARK    8  A    between atoms: C_16  and  O_17
REMARK    9  A    between atoms: C_18  and  O_19
REMARK   10  A    between atoms: C_22  and  O_23
REMARK   11  A    between atoms: C_24  and  O_25
REMARK                            x       y       z     vdW  Elec       q    Type
REMARK                         _______ _______ _______ _____ _____    ______ ____
ROOT
ATOM      1  C   UNL     1       2.175   7.442  20.477  0.00  0.00    +0.000 C 
ATOM      2  C   UNL     1       2.365   7.661  18.947  0.00  0.00    +0.000 C 
ATOM      3  C   UNL     1       2.796   6.426  18.045  0.00  0.00    +0.000 C 
ATOM      4  C   UNL     1       3.791   5.345  18.685  0.00  0.00    +0.000 C 
ATOM      5  C   UNL     1       5.227   5.950  18.758  0.00  0.00    +0.000 C 
ATOM      6  C   UNL     1       6.117   5.834  17.509  0.00  0.00    +0.000 C 
ATOM      7  C   UNL     1       6.573   4.396  17.271  0.00  0.00    +0.000 C 
ATOM      8  C   UNL     1       5.594   3.575  16.421  0.00  0.00    +0.000 C 
ATOM      9  C   UNL     1       4.122   3.918  16.647  0.00  0.00    +0.000 C 
ATOM     10  O   UNL     1       3.777   4.068  17.998  0.00  0.00    +0.000 OA
ATOM     11  C   UNL     1       3.382   4.925  20.144  0.00  0.00    +0.000 C 
ATOM     12  C   UNL     1       2.449   5.938  20.894  0.00  0.00    +0.000 C 
ENDROOT
BRANCH   1  15
ATOM     13  C   UNL     1       0.953   8.983  22.009  0.00  0.00    +0.000 C 
ATOM     14  O   UNL     1       2.005   9.596  22.192  0.00  0.00    +0.000 OA
ATOM     15  N   UNL     1       0.892   7.880  21.114  0.00  0.00    +0.000 N 
ATOM     16  H   UNL     1       0.163   7.204  21.291  0.00  0.00    +0.000 HD
BRANCH  13  17
ATOM     17  C   UNL     1      -0.345   9.303  22.773  0.00  0.00    +0.000 C 
BRANCH  17  18
ATOM     18  O   UNL     1      -0.051   9.302  24.181  0.00  0.00    +0.000 OA
ATOM     19  H   UNL     1       0.904   9.478  24.275  0.00  0.00    +0.000 HD
ENDBRANCH  17  18
BRANCH  17  20
ATOM     20  C   UNL     1      -0.980  10.663  22.404  0.00  0.00    +0.000 C 
BRANCH  20  21
ATOM     21  C   UNL     1      -0.393  11.359  21.174  0.00  0.00    +0.000 C 
BRANCH  21  22
ATOM     22  N   UNL     1       0.570  12.386  21.544  0.00  0.00    +0.000 NA
ATOM     23  H   UNL     1       1.255  12.487  20.796  0.00  0.00    +0.000 HD
ATOM     24  H   UNL     1       1.103  12.080  22.364  0.00  0.00    +0.000 HD
ENDBRANCH  21  22
ENDBRANCH  20  21
ENDBRANCH  17  20
ENDBRANCH  13  17
ENDBRANCH   1  15
BRANCH   3  25
ATOM     25  N   UNL     1       1.578   5.829  17.477  0.00  0.00    +0.000 NA
ATOM     26  H   UNL     1       1.855   4.955  17.010  0.00  0.00    +0.000 HD
ATOM     27  H   UNL     1       1.263   6.414  16.703  0.00  0.00    +0.000 HD
ENDBRANCH   3  25
BRANCH   7  28
ATOM     28  O   UNL     1       7.848   4.438  16.615  0.00  0.00    +0.000 OA
ATOM     29  H   UNL     1       8.437   3.844  17.127  0.00  0.00    +0.000 HD
ENDBRANCH   7  28
BRANCH   8  30
ATOM     30  O   UNL     1       5.925   3.731  15.029  0.00  0.00    +0.000 OA
ATOM     31  H   UNL     1       5.101   3.909  14.544  0.00  0.00    +0.000 HD
ENDBRANCH   8  30
BRANCH  11  32
ATOM     32  O   UNL     1       2.746   3.615  20.195  0.00  0.00    +0.000 OA
ATOM     33  H   UNL     1       3.444   3.021  19.860  0.00  0.00    +0.000 HD
ENDBRANCH  11  32
BRANCH  12  34
ATOM     34  O   UNL     1       1.271   5.474  20.240  0.00  0.00    +0.000 OA
ATOM     35  H   UNL     1       0.701   5.150  20.965  0.00  0.00    +0.000 HD
ENDBRANCH  12  34
TORSDOF 11
ENDMDL
MODEL 9
REMARK VINA RESULT:      -5.2      8.494     11.893
REMARK  Name = 
REMARK  11 active torsions:
REMARK  status: ('A' for Active; 'I' for Inactive)
REMARK    1  A    between atoms: N_1  and  C_2
REMARK    2  A    between atoms: C_2  and  C_3
REMARK    3  A    between atoms: C_3  and  C_4
REMARK    4  A    between atoms: C_4  and  O_5
REMARK    5  A    between atoms: C_4  and  C_6
REMARK    6  A    between atoms: N_8  and  C_9
REMARK    7  A    between atoms: C_11  and  N_12
REMARK    8  A    between atoms: C_16  and  O_17
REMARK    9  A    between atoms: C_18  and  O_19
REMARK   10  A    between atoms: C_22  and  O_23
REMARK   11  A    between atoms: C_24  and  O_25
REMARK                            x       y       z     vdW  Elec       q    Type
REMARK                         _______ _______ _______ _____ _____    ______ ____
ROOT
ATOM      1  C   UNL     1      -0.434  13.195  19.512  0.00  0.00    +0.000 C 
ATOM      2  C   UNL     1       1.083  12.865  19.644  0.00  0.00    +0.000 C 
ATOM      3  C   UNL     1       1.637  11.536  18.973  0.00  0.00    +0.000 C 
ATOM      4  C   UNL     1       0.681  10.251  18.960  0.00  0.00    +0.000 C 
ATOM      5  C   UNL     1       0.618   9.645  20.397  0.00  0.00    +0.000 C 
ATOM      6  C   UNL     1       1.722   8.656  20.805  0.00  0.00    +0.000 C 
ATOM      7  C   UNL     1       1.584   7.321  20.075  0.00  0.00    +0.000 C 
ATOM      8  C   UNL     1       2.311   7.284  18.723  0.00  0.00    +0.000 C 
ATOM      9  C   UNL     1       2.303   8.613  17.966  0.00  0.00    +0.000 C 
ATOM     10  O   UNL     1       1.057   9.259  17.972  0.00  0.00    +0.000 OA
ATOM     11  C   UNL     1      -0.792  10.587  18.526  0.00  0.00    +0.000 C 
ATOM     12  C   UNL     1      -1.205  12.092  18.675  0.00  0.00    +0.000 C 
ENDROOT
BRANCH   1  15
ATOM     13  C   UNL     1      -0.677  15.650  19.875  0.00  0.00    +0.000 C 
ATOM     14  O   UNL     1      -0.161  15.512  20.984  0.00  0.00    +0.000 OA
ATOM     15  N   UNL     1      -0.836  14.543  18.997  0.00  0.00    +0.000 N 
ATOM     16  H   UNL     1      -1.577  14.619  18.315  0.00  0.00    +0.000 HD
BRANCH  13  17
ATOM     17  C   UNL     1      -1.251  16.990  19.381  0.00  0.00    +0.000 C 
BRANCH  17  18
ATOM     18  O   UNL     1      -1.145  17.947  20.449  0.00  0.00    +0.000 OA
ATOM     19  H   UNL     1      -0.202  18.000  20.694  0.00  0.00    +0.000 HD
ENDBRANCH  17  18
BRANCH  17  20
ATOM     20  C   UNL     1      -0.542  17.564  18.134  0.00  0.00    +0.000 C 
BRANCH  20  21
ATOM     21  C   UNL     1       0.988  17.535  18.167  0.00  0.00    +0.000 C 
BRANCH  21  22
ATOM     22  N   UNL     1       1.532  18.630  18.955  0.00  0.00    +0.000 NA
ATOM     23  H   UNL     1       0.972  18.745  19.799  0.00  0.00    +0.000 HD
ATOM     24  H   UNL     1       1.433  19.509  18.439  0.00  0.00    +0.000 HD
ENDBRANCH  21  22
ENDBRANCH  20  21
ENDBRANCH  17  20
ENDBRANCH  13  17
ENDBRANCH   1  15
BRANCH   3  25
ATOM     25  N   UNL     1       2.162  11.882  17.643  0.00  0.00    +0.000 NA
ATOM     26  H   UNL     1       1.823  12.827  17.417  0.00  0.00    +0.000 HD
ATOM     27  H   UNL     1       1.695  11.297  16.950  0.00  0.00    +0.000 HD
ENDBRANCH   3  25
BRANCH   7  28
ATOM     28  O   UNL     1       2.115   6.293  20.924  0.00  0.00    +0.000 OA
ATOM     29  H   UNL     1       2.307   6.723  21.784  0.00  0.00    +0.000 HD
ENDBRANCH   7  28
BRANCH   8  30
ATOM     30  O   UNL     1       3.666   6.842  18.922  0.00  0.00    +0.000 OA
ATOM     31  H   UNL     1       4.066   6.702  18.046  0.00  0.00    +0.000 HD
ENDBRANCH   8  30
BRANCH  11  32
ATOM     32  O   UNL     1      -1.083  10.181  17.157  0.00  0.00    +0.000 OA
ATOM     33  H   UNL     1      -0.263   9.725  16.887  0.00  0.00    +0.000 HD
ENDBRANCH  11  32
BRANCH  12  34
ATOM     34  O   UNL     1      -0.570  12.479  17.459  0.00  0.00    +0.000 OA
ATOM     35  H   UNL     1      -1.308  12.643  16.840  0.00  0.00    +0.000 HD
ENDBRANCH  12  34
TORSDOF 11
ENDMDL
