MODEL 1
REMARK VINA RESULT:      -8.5      0.000      0.000
REMARK  Name = 
REMARK  8 active torsions:
REMARK  status: ('A' for Active; 'I' for Inactive)
REMARK    1  A    between atoms: C_1  and  O_2
REMARK    2  A    between atoms: O_2  and  C_3
REMARK    3  A    between atoms: C_6  and  C_7
REMARK    4  A    between atoms: C_9  and  N_10
REMARK    5  A    between atoms: C_11  and  C_13
REMARK    6  A    between atoms: C_13  and  C_15
REMARK    7  A    between atoms: N_17  and  C_18
REMARK    8  A    between atoms: C_18  and  C_19
REMARK                            x       y       z     vdW  Elec       q    Type
REMARK                         _______ _______ _______ _____ _____    ______ ____
ROOT
ATOM      1  C   UNL     1       6.612   6.161  17.902  0.00  0.00    +0.000 A 
ATOM      2  C   UNL     1       5.322   6.212  18.402  0.00  0.00    +0.000 A 
ATOM      3  N   UNL     1       4.468   5.633  17.498  0.00  0.00    +0.000 N 
ATOM      4  C   UNL     1       5.176   5.205  16.394  0.00  0.00    +0.000 A 
ATOM      5  C   UNL     1       4.746   4.584  15.208  0.00  0.00    +0.000 A 
ATOM      6  C   UNL     1       5.703   4.260  14.241  0.00  0.00    +0.000 A 
ATOM      7  C   UNL     1       7.048   4.550  14.445  0.00  0.00    +0.000 A 
ATOM      8  C   UNL     1       7.470   5.176  15.626  0.00  0.00    +0.000 A 
ATOM      9  C   UNL     1       6.529   5.504  16.629  0.00  0.00    +0.000 A 
ENDROOT
BRANCH   1  10
ATOM     10  C   UNL     1       7.777   6.731  18.580  0.00  0.00    +0.000 C 
ATOM     11  O   UNL     1       8.509   6.098  19.335  0.00  0.00    +0.000 OA
BRANCH  10  13
ATOM     12  N   UNL     1       8.937   8.827  19.240  0.00  0.00    +0.000 N 
ATOM     13  C   UNL     1       8.136   8.190  18.290  0.00  0.00    +0.000 C 
ATOM     14  O   UNL     1       7.654   8.666  17.264  0.00  0.00    +0.000 OA
ATOM     15  H   UNL     1       9.290   8.269  20.012  0.00  0.00    +0.000 HD
BRANCH  12  22
ATOM     16  C   UNL     1       9.160  11.027  20.370  0.00  0.00    +0.000 A 
ATOM     17  C   UNL     1       9.531  12.384  20.304  0.00  0.00    +0.000 A 
ATOM     18  C   UNL     1      10.043  12.940  19.139  0.00  0.00    +0.000 A 
ATOM     19  C   UNL     1      10.225  12.141  18.020  0.00  0.00    +0.000 A 
ATOM     20  C   UNL     1      10.840  12.701  16.776  0.00  0.00    +0.000 C 
ATOM     21  C   UNL     1       9.855  10.792  18.073  0.00  0.00    +0.000 A 
ATOM     22  C   UNL     1       9.320  10.203  19.230  0.00  0.00    +0.000 A 
BRANCH  16  24
ATOM     23  C   UNL     1       8.378  11.432  22.570  0.00  0.00    +0.000 C 
ATOM     24  O   UNL     1       8.653  10.478  21.531  0.00  0.00    +0.000 OA
ENDBRANCH  16  24
ENDBRANCH  12  22
ENDBRANCH  10  13
ENDBRANCH   1  10
BRANCH   3  25
ATOM     25  C   UNL     1       3.007   5.622  17.650  0.00  0.00    +0.000 C 
BRANCH  25  26
ATOM     26  C   UNL     1       2.434   4.255  17.936  0.00  0.00    +0.000 C 
ATOM     27  O   UNL     1       2.294   3.383  17.074  0.00  0.00    +0.000 OA
ATOM     28  N   UNL     1       2.063   3.995  19.254  0.00  0.00    +0.000 N 
ATOM     29  C   UNL     1       2.137   4.887  20.398  0.00  0.00    +0.000 C 
ATOM     30  C   UNL     1       2.269   3.922  21.567  0.00  0.00    +0.000 C 
ATOM     31  C   UNL     1       1.405   2.734  21.152  0.00  0.00    +0.000 C 
ATOM     32  C   UNL     1       1.459   2.731  19.627  0.00  0.00    +0.000 C 
ENDBRANCH  25  26
ENDBRANCH   3  25
TORSDOF 6
ENDMDL
MODEL 2
REMARK VINA RESULT:      -8.5      6.578      9.827
REMARK  Name = 
REMARK  8 active torsions:
REMARK  status: ('A' for Active; 'I' for Inactive)
REMARK    1  A    between atoms: C_1  and  O_2
REMARK    2  A    between atoms: O_2  and  C_3
REMARK    3  A    between atoms: C_6  and  C_7
REMARK    4  A    between atoms: C_9  and  N_10
REMARK    5  A    between atoms: C_11  and  C_13
REMARK    6  A    between atoms: C_13  and  C_15
REMARK    7  A    between atoms: N_17  and  C_18
REMARK    8  A    between atoms: C_18  and  C_19
REMARK                            x       y       z     vdW  Elec       q    Type
REMARK                         _______ _______ _______ _____ _____    ______ ____
ROOT
ATOM      1  C   UNL     1       0.700   9.914  18.940  0.00  0.00    +0.000 A 
ATOM      2  C   UNL     1       0.897  10.618  20.115  0.00  0.00    +0.000 A 
ATOM      3  N   UNL     1      -0.219  11.368  20.381  0.00  0.00    +0.000 N 
ATOM      4  C   UNL     1      -1.158  11.178  19.386  0.00  0.00    +0.000 A 
ATOM      5  C   UNL     1      -2.433  11.742  19.204  0.00  0.00    +0.000 A 
ATOM      6  C   UNL     1      -3.174  11.360  18.080  0.00  0.00    +0.000 A 
ATOM      7  C   UNL     1      -2.660  10.451  17.163  0.00  0.00    +0.000 A 
ATOM      8  C   UNL     1      -1.384   9.899  17.346  0.00  0.00    +0.000 A 
ATOM      9  C   UNL     1      -0.615  10.253  18.479  0.00  0.00    +0.000 A 
ENDROOT
BRANCH   1  10
ATOM     10  C   UNL     1       1.707   9.046  18.325  0.00  0.00    +0.000 C 
ATOM     11  O   UNL     1       2.322   9.328  17.301  0.00  0.00    +0.000 OA
BRANCH  10  13
ATOM     12  N   UNL     1       2.362   6.653  18.203  0.00  0.00    +0.000 N 
ATOM     13  C   UNL     1       2.051   7.733  19.031  0.00  0.00    +0.000 C 
ATOM     14  O   UNL     1       1.986   7.752  20.259  0.00  0.00    +0.000 OA
ATOM     15  H   UNL     1       2.416   6.824  17.203  0.00  0.00    +0.000 HD
BRANCH  12  22
ATOM     16  C   UNL     1       3.607   4.513  17.999  0.00  0.00    +0.000 A 
ATOM     17  C   UNL     1       3.811   3.191  18.439  0.00  0.00    +0.000 A 
ATOM     18  C   UNL     1       3.060   2.646  19.473  0.00  0.00    +0.000 A 
ATOM     19  C   UNL     1       2.107   3.424  20.111  0.00  0.00    +0.000 A 
ATOM     20  C   UNL     1       1.334   2.882  21.273  0.00  0.00    +0.000 C 
ATOM     21  C   UNL     1       1.892   4.739  19.680  0.00  0.00    +0.000 A 
ATOM     22  C   UNL     1       2.623   5.314  18.628  0.00  0.00    +0.000 A 
BRANCH  16  24
ATOM     23  C   UNL     1       5.775   4.873  17.115  0.00  0.00    +0.000 C 
ATOM     24  O   UNL     1       4.357   5.051  16.972  0.00  0.00    +0.000 OA
ENDBRANCH  16  24
ENDBRANCH  12  22
ENDBRANCH  10  13
ENDBRANCH   1  10
BRANCH   3  25
ATOM     25  C   UNL     1      -0.310  12.331  21.487  0.00  0.00    +0.000 C 
BRANCH  25  26
ATOM     26  C   UNL     1      -1.206  11.881  22.615  0.00  0.00    +0.000 C 
ATOM     27  O   UNL     1      -0.972  10.893  23.317  0.00  0.00    +0.000 OA
ATOM     28  N   UNL     1      -2.342  12.651  22.855  0.00  0.00    +0.000 N 
ATOM     29  C   UNL     1      -2.794  13.831  22.139  0.00  0.00    +0.000 C 
ATOM     30  C   UNL     1      -3.600  14.575  23.192  0.00  0.00    +0.000 C 
ATOM     31  C   UNL     1      -4.259  13.458  23.997  0.00  0.00    +0.000 C 
ATOM     32  C   UNL     1      -3.295  12.281  23.884  0.00  0.00    +0.000 C 
ENDBRANCH  25  26
ENDBRANCH   3  25
TORSDOF 6
ENDMDL
MODEL 3
REMARK VINA RESULT:      -8.4      0.910      1.133
REMARK  Name = 
REMARK  8 active torsions:
REMARK  status: ('A' for Active; 'I' for Inactive)
REMARK    1  A    between atoms: C_1  and  O_2
REMARK    2  A    between atoms: O_2  and  C_3
REMARK    3  A    between atoms: C_6  and  C_7
REMARK    4  A    between atoms: C_9  and  N_10
REMARK    5  A    between atoms: C_11  and  C_13
REMARK    6  A    between atoms: C_13  and  C_15
REMARK    7  A    between atoms: N_17  and  C_18
REMARK    8  A    between atoms: C_18  and  C_19
REMARK                            x       y       z     vdW  Elec       q    Type
REMARK                         _______ _______ _______ _____ _____    ______ ____
ROOT
ATOM      1  C   UNL     1       6.673   6.233  17.941  0.00  0.00    +0.000 A 
ATOM      2  C   UNL     1       5.392   6.314  18.460  0.00  0.00    +0.000 A 
ATOM      3  N   UNL     1       4.515   5.732  17.581  0.00  0.00    +0.000 N 
ATOM      4  C   UNL     1       5.199   5.270  16.475  0.00  0.00    +0.000 A 
ATOM      5  C   UNL     1       4.740   4.634  15.308  0.00  0.00    +0.000 A 
ATOM      6  C   UNL     1       5.677   4.275  14.334  0.00  0.00    +0.000 A 
ATOM      7  C   UNL     1       7.029   4.548  14.510  0.00  0.00    +0.000 A 
ATOM      8  C   UNL     1       7.480   5.190  15.672  0.00  0.00    +0.000 A 
ATOM      9  C   UNL     1       6.560   5.553  16.683  0.00  0.00    +0.000 A 
ENDROOT
BRANCH   1  10
ATOM     10  C   UNL     1       7.858   6.798  18.590  0.00  0.00    +0.000 C 
ATOM     11  O   UNL     1       8.614   6.157  19.314  0.00  0.00    +0.000 OA
BRANCH  10  13
ATOM     12  N   UNL     1       8.988   8.905  19.265  0.00  0.00    +0.000 N 
ATOM     13  C   UNL     1       8.205   8.261  18.306  0.00  0.00    +0.000 C 
ATOM     14  O   UNL     1       7.729   8.734  17.276  0.00  0.00    +0.000 OA
ATOM     15  H   UNL     1       9.338   8.349  20.041  0.00  0.00    +0.000 HD
BRANCH  12  22
ATOM     16  C   UNL     1       9.204  11.098  20.412  0.00  0.00    +0.000 A 
ATOM     17  C   UNL     1       9.560  12.458  20.352  0.00  0.00    +0.000 A 
ATOM     18  C   UNL     1      10.051  13.030  19.184  0.00  0.00    +0.000 A 
ATOM     19  C   UNL     1      10.225  12.242  18.057  0.00  0.00    +0.000 A 
ATOM     20  C   UNL     1      10.818  12.819  16.809  0.00  0.00    +0.000 C 
ATOM     21  C   UNL     1       9.870  10.889  18.103  0.00  0.00    +0.000 A 
ATOM     22  C   UNL     1       9.358  10.285  19.262  0.00  0.00    +0.000 A 
BRANCH  16  24
ATOM     23  C   UNL     1       8.239  11.483  22.541  0.00  0.00    +0.000 C 
ATOM     24  O   UNL     1       8.718  10.534  21.574  0.00  0.00    +0.000 OA
ENDBRANCH  16  24
ENDBRANCH  12  22
ENDBRANCH  10  13
ENDBRANCH   1  10
BRANCH   3  25
ATOM     25  C   UNL     1       3.057   5.747  17.757  0.00  0.00    +0.000 C 
BRANCH  25  26
ATOM     26  C   UNL     1       2.616   5.765  19.201  0.00  0.00    +0.000 C 
ATOM     27  O   UNL     1       2.403   6.803  19.834  0.00  0.00    +0.000 OA
ATOM     28  N   UNL     1       2.441   4.527  19.816  0.00  0.00    +0.000 N 
ATOM     29  C   UNL     1       2.650   3.206  19.248  0.00  0.00    +0.000 C 
ATOM     30  C   UNL     1       1.703   2.338  20.062  0.00  0.00    +0.000 C 
ATOM     31  C   UNL     1       1.755   2.957  21.456  0.00  0.00    +0.000 C 
ATOM     32  C   UNL     1       2.066   4.431  21.213  0.00  0.00    +0.000 C 
ENDBRANCH  25  26
ENDBRANCH   3  25
TORSDOF 6
ENDMDL
MODEL 4
REMARK VINA RESULT:      -8.4      4.679      7.324
REMARK  Name = 
REMARK  8 active torsions:
REMARK  status: ('A' for Active; 'I' for Inactive)
REMARK    1  A    between atoms: C_1  and  O_2
REMARK    2  A    between atoms: O_2  and  C_3
REMARK    3  A    between atoms: C_6  and  C_7
REMARK    4  A    between atoms: C_9  and  N_10
REMARK    5  A    between atoms: C_11  and  C_13
REMARK    6  A    between atoms: C_13  and  C_15
REMARK    7  A    between atoms: N_17  and  C_18
REMARK    8  A    between atoms: C_18  and  C_19
REMARK                            x       y       z     vdW  Elec       q    Type
REMARK                         _______ _______ _______ _____ _____    ______ ____
ROOT
ATOM      1  C   UNL     1       2.202   6.372  19.230  0.00  0.00    +0.000 A 
ATOM      2  C   UNL     1       3.067   6.420  18.150  0.00  0.00    +0.000 A 
ATOM      3  N   UNL     1       3.300   5.145  17.704  0.00  0.00    +0.000 N 
ATOM      4  C   UNL     1       2.604   4.243  18.484  0.00  0.00    +0.000 A 
ATOM      5  C   UNL     1       2.545   2.839  18.438  0.00  0.00    +0.000 A 
ATOM      6  C   UNL     1       1.745   2.175  19.374  0.00  0.00    +0.000 A 
ATOM      7  C   UNL     1       1.032   2.886  20.332  0.00  0.00    +0.000 A 
ATOM      8  C   UNL     1       1.101   4.285  20.379  0.00  0.00    +0.000 A 
ATOM      9  C   UNL     1       1.889   4.987  19.437  0.00  0.00    +0.000 A 
ENDROOT
BRANCH   1  10
ATOM     10  C   UNL     1       1.772   7.547  19.990  0.00  0.00    +0.000 C 
ATOM     11  O   UNL     1       1.656   7.568  21.212  0.00  0.00    +0.000 OA
BRANCH  10  13
ATOM     12  N   UNL     1       0.949   9.890  19.957  0.00  0.00    +0.000 N 
ATOM     13  C   UNL     1       1.504   8.842  19.221  0.00  0.00    +0.000 C 
ATOM     14  O   UNL     1       1.772   8.817  18.021  0.00  0.00    +0.000 OA
ATOM     15  H   UNL     1       0.833   9.757  20.957  0.00  0.00    +0.000 HD
BRANCH  12  22
ATOM     16  C   UNL     1      -0.715  11.310  18.779  0.00  0.00    +0.000 A 
ATOM     17  C   UNL     1      -1.074  12.570  18.263  0.00  0.00    +0.000 A 
ATOM     18  C   UNL     1      -0.228  13.667  18.374  0.00  0.00    +0.000 A 
ATOM     19  C   UNL     1       0.984  13.534  19.033  0.00  0.00    +0.000 A 
ATOM     20  C   UNL     1       1.880  14.718  19.226  0.00  0.00    +0.000 C 
ATOM     21  C   UNL     1       1.354  12.285  19.546  0.00  0.00    +0.000 A 
ATOM     22  C   UNL     1       0.529  11.153  19.437  0.00  0.00    +0.000 A 
BRANCH  16  24
ATOM     23  C   UNL     1      -1.943   9.903  17.321  0.00  0.00    +0.000 C 
ATOM     24  O   UNL     1      -1.558  10.223  18.668  0.00  0.00    +0.000 OA
ENDBRANCH  16  24
ENDBRANCH  12  22
ENDBRANCH  10  13
ENDBRANCH   1  10
BRANCH   3  25
ATOM     25  C   UNL     1       4.266   4.815  16.648  0.00  0.00    +0.000 C 
BRANCH  25  26
ATOM     26  C   UNL     1       5.346   5.854  16.463  0.00  0.00    +0.000 C 
ATOM     27  O   UNL     1       5.354   6.669  15.537  0.00  0.00    +0.000 OA
ATOM     28  N   UNL     1       6.366   5.870  17.413  0.00  0.00    +0.000 N 
ATOM     29  C   UNL     1       6.539   4.994  18.558  0.00  0.00    +0.000 C 
ATOM     30  C   UNL     1       7.332   5.859  19.526  0.00  0.00    +0.000 C 
ATOM     31  C   UNL     1       8.248   6.671  18.614  0.00  0.00    +0.000 C 
ATOM     32  C   UNL     1       7.476   6.796  17.303  0.00  0.00    +0.000 C 
ENDBRANCH  25  26
ENDBRANCH   3  25
TORSDOF 6
ENDMDL
MODEL 5
REMARK VINA RESULT:      -8.3      8.023     10.958
REMARK  Name = 
REMARK  8 active torsions:
REMARK  status: ('A' for Active; 'I' for Inactive)
REMARK    1  A    between atoms: C_1  and  O_2
REMARK    2  A    between atoms: O_2  and  C_3
REMARK    3  A    between atoms: C_6  and  C_7
REMARK    4  A    between atoms: C_9  and  N_10
REMARK    5  A    between atoms: C_11  and  C_13
REMARK    6  A    between atoms: C_13  and  C_15
REMARK    7  A    between atoms: N_17  and  C_18
REMARK    8  A    between atoms: C_18  and  C_19
REMARK                            x       y       z     vdW  Elec       q    Type
REMARK                         _______ _______ _______ _____ _____    ______ ____
ROOT
ATOM      1  C   UNL     1      -0.424  10.545  22.173  0.00  0.00    +0.000 A 
ATOM      2  C   UNL     1      -1.086  11.239  23.171  0.00  0.00    +0.000 A 
ATOM      3  N   UNL     1      -1.913  12.170  22.597  0.00  0.00    +0.000 N 
ATOM      4  C   UNL     1      -1.802  12.109  21.222  0.00  0.00    +0.000 A 
ATOM      5  C   UNL     1      -2.421  12.870  20.214  0.00  0.00    +0.000 A 
ATOM      6  C   UNL     1      -2.110  12.584  18.880  0.00  0.00    +0.000 A 
ATOM      7  C   UNL     1      -1.206  11.578  18.559  0.00  0.00    +0.000 A 
ATOM      8  C   UNL     1      -0.586  10.829  19.569  0.00  0.00    +0.000 A 
ATOM      9  C   UNL     1      -0.889  11.083  20.927  0.00  0.00    +0.000 A 
ENDROOT
BRANCH   1  10
ATOM     10  C   UNL     1       0.578   9.506  22.422  0.00  0.00    +0.000 C 
ATOM     11  O   UNL     1       1.453   9.590  23.279  0.00  0.00    +0.000 OA
BRANCH  10  13
ATOM     12  N   UNL     1       1.707   7.724  21.111  0.00  0.00    +0.000 N 
ATOM     13  C   UNL     1       0.497   8.218  21.602  0.00  0.00    +0.000 C 
ATOM     14  O   UNL     1      -0.632   7.764  21.428  0.00  0.00    +0.000 OA
ATOM     15  H   UNL     1       2.560   8.200  21.390  0.00  0.00    +0.000 HD
BRANCH  12  22
ATOM     16  C   UNL     1       2.412   6.727  18.948  0.00  0.00    +0.000 A 
ATOM     17  C   UNL     1       2.529   5.589  18.128  0.00  0.00    +0.000 A 
ATOM     18  C   UNL     1       2.112   4.336  18.560  0.00  0.00    +0.000 A 
ATOM     19  C   UNL     1       1.596   4.189  19.838  0.00  0.00    +0.000 A 
ATOM     20  C   UNL     1       1.205   2.838  20.352  0.00  0.00    +0.000 C 
ATOM     21  C   UNL     1       1.471   5.314  20.662  0.00  0.00    +0.000 A 
ATOM     22  C   UNL     1       1.868   6.596  20.250  0.00  0.00    +0.000 A 
BRANCH  16  24
ATOM     23  C   UNL     1       1.844   8.701  17.769  0.00  0.00    +0.000 C 
ATOM     24  O   UNL     1       2.829   7.969  18.515  0.00  0.00    +0.000 OA
ENDBRANCH  16  24
ENDBRANCH  12  22
ENDBRANCH  10  13
ENDBRANCH   1  10
BRANCH   3  25
ATOM     25  C   UNL     1      -2.676  13.165  23.363  0.00  0.00    +0.000 C 
BRANCH  25  26
ATOM     26  C   UNL     1      -3.978  12.639  23.919  0.00  0.00    +0.000 C 
ATOM     27  O   UNL     1      -4.063  11.604  24.586  0.00  0.00    +0.000 OA
ATOM     28  N   UNL     1      -5.119  13.392  23.654  0.00  0.00    +0.000 N 
ATOM     29  C   UNL     1      -5.225  14.620  22.886  0.00  0.00    +0.000 C 
ATOM     30  C   UNL     1      -6.449  15.290  23.492  0.00  0.00    +0.000 C 
ATOM     31  C   UNL     1      -7.370  14.121  23.829  0.00  0.00    +0.000 C 
ATOM     32  C   UNL     1      -6.427  12.953  24.101  0.00  0.00    +0.000 C 
ENDBRANCH  25  26
ENDBRANCH   3  25
TORSDOF 6
ENDMDL
MODEL 6
REMARK VINA RESULT:      -8.2      6.841     10.838
REMARK  Name = 
REMARK  8 active torsions:
REMARK  status: ('A' for Active; 'I' for Inactive)
REMARK    1  A    between atoms: C_1  and  O_2
REMARK    2  A    between atoms: O_2  and  C_3
REMARK    3  A    between atoms: C_6  and  C_7
REMARK    4  A    between atoms: C_9  and  N_10
REMARK    5  A    between atoms: C_11  and  C_13
REMARK    6  A    between atoms: C_13  and  C_15
REMARK    7  A    between atoms: N_17  and  C_18
REMARK    8  A    between atoms: C_18  and  C_19
REMARK                            x       y       z     vdW  Elec       q    Type
REMARK                         _______ _______ _______ _____ _____    ______ ____
ROOT
ATOM      1  C   UNL     1      -0.007  10.855  21.740  0.00  0.00    +0.000 A 
ATOM      2  C   UNL     1       0.410  11.439  20.557  0.00  0.00    +0.000 A 
ATOM      3  N   UNL     1      -0.416  12.492  20.260  0.00  0.00    +0.000 N 
ATOM      4  C   UNL     1      -1.389  12.611  21.232  0.00  0.00    +0.000 A 
ATOM      5  C   UNL     1      -2.465  13.508  21.354  0.00  0.00    +0.000 A 
ATOM      6  C   UNL     1      -3.309  13.389  22.463  0.00  0.00    +0.000 A 
ATOM      7  C   UNL     1      -3.093  12.403  23.419  0.00  0.00    +0.000 A 
ATOM      8  C   UNL     1      -2.024  11.506  23.289  0.00  0.00    +0.000 A 
ATOM      9  C   UNL     1      -1.144  11.608  22.186  0.00  0.00    +0.000 A 
ENDROOT
BRANCH   1  10
ATOM     10  C   UNL     1       0.615   9.671  22.335  0.00  0.00    +0.000 C 
ATOM     11  O   UNL     1       1.166   9.663  23.431  0.00  0.00    +0.000 OA
BRANCH  10  13
ATOM     12  N   UNL     1       1.733   7.839  21.084  0.00  0.00    +0.000 N 
ATOM     13  C   UNL     1       0.528   8.350  21.567  0.00  0.00    +0.000 C 
ATOM     14  O   UNL     1      -0.603   7.889  21.423  0.00  0.00    +0.000 OA
ATOM     15  H   UNL     1       2.588   8.327  21.335  0.00  0.00    +0.000 HD
BRANCH  12  22
ATOM     16  C   UNL     1       2.404   6.760  18.949  0.00  0.00    +0.000 A 
ATOM     17  C   UNL     1       2.514   5.590  18.173  0.00  0.00    +0.000 A 
ATOM     18  C   UNL     1       2.117   4.353  18.665  0.00  0.00    +0.000 A 
ATOM     19  C   UNL     1       1.629   4.254  19.958  0.00  0.00    +0.000 A 
ATOM     20  C   UNL     1       1.261   2.922  20.534  0.00  0.00    +0.000 C 
ATOM     21  C   UNL     1       1.510   5.411  20.738  0.00  0.00    +0.000 A 
ATOM     22  C   UNL     1       1.888   6.678  20.265  0.00  0.00    +0.000 A 
BRANCH  16  24
ATOM     23  C   UNL     1       1.786   8.689  17.721  0.00  0.00    +0.000 C 
ATOM     24  O   UNL     1       2.801   7.987  18.457  0.00  0.00    +0.000 OA
ENDBRANCH  16  24
ENDBRANCH  12  22
ENDBRANCH  10  13
ENDBRANCH   1  10
BRANCH   3  25
ATOM     25  C   UNL     1      -0.338  13.263  19.012  0.00  0.00    +0.000 C 
BRANCH  25  26
ATOM     26  C   UNL     1       0.289  14.627  19.176  0.00  0.00    +0.000 C 
ATOM     27  O   UNL     1      -0.288  15.581  19.706  0.00  0.00    +0.000 OA
ATOM     28  N   UNL     1       1.590  14.777  18.702  0.00  0.00    +0.000 N 
ATOM     29  C   UNL     1       2.425  13.788  18.044  0.00  0.00    +0.000 C 
ATOM     30  C   UNL     1       3.832  14.257  18.383  0.00  0.00    +0.000 C 
ATOM     31  C   UNL     1       3.715  15.779  18.374  0.00  0.00    +0.000 C 
ATOM     32  C   UNL     1       2.268  16.058  18.767  0.00  0.00    +0.000 C 
ENDBRANCH  25  26
ENDBRANCH   3  25
TORSDOF 6
ENDMDL
MODEL 7
REMARK VINA RESULT:      -8.2      7.766     10.585
REMARK  Name = 
REMARK  8 active torsions:
REMARK  status: ('A' for Active; 'I' for Inactive)
REMARK    1  A    between atoms: C_1  and  O_2
REMARK    2  A    between atoms: O_2  and  C_3
REMARK    3  A    between atoms: C_6  and  C_7
REMARK    4  A    between atoms: C_9  and  N_10
REMARK    5  A    between atoms: C_11  and  C_13
REMARK    6  A    between atoms: C_13  and  C_15
REMARK    7  A    between atoms: N_17  and  C_18
REMARK    8  A    between atoms: C_18  and  C_19
REMARK                            x       y       z     vdW  Elec       q    Type
REMARK                         _______ _______ _______ _____ _____    ______ ____
ROOT
ATOM      1  C   UNL     1      -0.249  10.791  21.879  0.00  0.00    +0.000 A 
ATOM      2  C   UNL     1      -1.392  11.309  22.463  0.00  0.00    +0.000 A 
ATOM      3  N   UNL     1      -1.800  12.409  21.752  0.00  0.00    +0.000 N 
ATOM      4  C   UNL     1      -0.932  12.634  20.702  0.00  0.00    +0.000 A 
ATOM      5  C   UNL     1      -0.914  13.642  19.722  0.00  0.00    +0.000 A 
ATOM      6  C   UNL     1       0.107  13.623  18.766  0.00  0.00    +0.000 A 
ATOM      7  C   UNL     1       1.085  12.635  18.789  0.00  0.00    +0.000 A 
ATOM      8  C   UNL     1       1.067  11.637  19.773  0.00  0.00    +0.000 A 
ATOM      9  C   UNL     1       0.040  11.620  20.745  0.00  0.00    +0.000 A 
ENDROOT
BRANCH   1  10
ATOM     10  C   UNL     1       0.491   9.641  22.405  0.00  0.00    +0.000 C 
ATOM     11  O   UNL     1       1.112   9.652  23.463  0.00  0.00    +0.000 OA
BRANCH  10  13
ATOM     12  N   UNL     1       1.669   7.847  21.155  0.00  0.00    +0.000 N 
ATOM     13  C   UNL     1       0.443   8.333  21.613  0.00  0.00    +0.000 C 
ATOM     14  O   UNL     1      -0.676   7.858  21.431  0.00  0.00    +0.000 OA
ATOM     15  H   UNL     1       2.510   8.343  21.437  0.00  0.00    +0.000 HD
BRANCH  12  22
ATOM     16  C   UNL     1       2.387   6.816  19.012  0.00  0.00    +0.000 A 
ATOM     17  C   UNL     1       2.537   5.661  18.221  0.00  0.00    +0.000 A 
ATOM     18  C   UNL     1       2.170   4.407  18.692  0.00  0.00    +0.000 A 
ATOM     19  C   UNL     1       1.673   4.276  19.980  0.00  0.00    +0.000 A 
ATOM     20  C   UNL     1       1.337   2.927  20.534  0.00  0.00    +0.000 C 
ATOM     21  C   UNL     1       1.516   5.419  20.774  0.00  0.00    +0.000 A 
ATOM     22  C   UNL     1       1.862   6.702  20.322  0.00  0.00    +0.000 A 
BRANCH  16  24
ATOM     23  C   UNL     1       1.774   8.692  17.700  0.00  0.00    +0.000 C 
ATOM     24  O   UNL     1       2.754   8.061  18.540  0.00  0.00    +0.000 OA
ENDBRANCH  16  24
ENDBRANCH  12  22
ENDBRANCH  10  13
ENDBRANCH   1  10
BRANCH   3  25
ATOM     25  C   UNL     1      -2.911  13.278  22.161  0.00  0.00    +0.000 C 
BRANCH  25  26
ATOM     26  C   UNL     1      -4.230  12.927  21.514  0.00  0.00    +0.000 C 
ATOM     27  O   UNL     1      -4.341  12.606  20.327  0.00  0.00    +0.000 OA
ATOM     28  N   UNL     1      -5.357  12.967  22.332  0.00  0.00    +0.000 N 
ATOM     29  C   UNL     1      -5.433  13.328  23.737  0.00  0.00    +0.000 C 
ATOM     30  C   UNL     1      -6.660  12.565  24.213  0.00  0.00    +0.000 C 
ATOM     31  C   UNL     1      -7.601  12.613  23.013  0.00  0.00    +0.000 C 
ATOM     32  C   UNL     1      -6.678  12.694  21.801  0.00  0.00    +0.000 C 
ENDBRANCH  25  26
ENDBRANCH   3  25
TORSDOF 6
ENDMDL
MODEL 8
REMARK VINA RESULT:      -8.2      6.275      9.956
REMARK  Name = 
REMARK  8 active torsions:
REMARK  status: ('A' for Active; 'I' for Inactive)
REMARK    1  A    between atoms: C_1  and  O_2
REMARK    2  A    between atoms: O_2  and  C_3
REMARK    3  A    between atoms: C_6  and  C_7
REMARK    4  A    between atoms: C_9  and  N_10
REMARK    5  A    between atoms: C_11  and  C_13
REMARK    6  A    between atoms: C_13  and  C_15
REMARK    7  A    between atoms: N_17  and  C_18
REMARK    8  A    between atoms: C_18  and  C_19
REMARK                            x       y       z     vdW  Elec       q    Type
REMARK                         _______ _______ _______ _____ _____    ______ ____
ROOT
ATOM      1  C   UNL     1       0.828  10.022  18.844  0.00  0.00    +0.000 A 
ATOM      2  C   UNL     1       1.099  10.824  19.940  0.00  0.00    +0.000 A 
ATOM      3  N   UNL     1      -0.011  11.575  20.230  0.00  0.00    +0.000 N 
ATOM      4  C   UNL     1      -1.017  11.289  19.330  0.00  0.00    +0.000 A 
ATOM      5  C   UNL     1      -2.315  11.816  19.202  0.00  0.00    +0.000 A 
ATOM      6  C   UNL     1      -3.131  11.331  18.175  0.00  0.00    +0.000 A 
ATOM      7  C   UNL     1      -2.668  10.359  17.296  0.00  0.00    +0.000 A 
ATOM      8  C   UNL     1      -1.371   9.843  17.423  0.00  0.00    +0.000 A 
ATOM      9  C   UNL     1      -0.525  10.301  18.461  0.00  0.00    +0.000 A 
ENDROOT
BRANCH   1  10
ATOM     10  C   UNL     1       1.804   9.123  18.225  0.00  0.00    +0.000 C 
ATOM     11  O   UNL     1       2.457   9.403  17.224  0.00  0.00    +0.000 OA
BRANCH  10  13
ATOM     12  N   UNL     1       2.550   6.759  18.070  0.00  0.00    +0.000 N 
ATOM     13  C   UNL     1       2.065   7.773  18.897  0.00  0.00    +0.000 C 
ATOM     14  O   UNL     1       1.787   7.708  20.093  0.00  0.00    +0.000 OA
ATOM     15  H   UNL     1       2.771   6.997  17.108  0.00  0.00    +0.000 HD
BRANCH  12  22
ATOM     16  C   UNL     1       4.066   4.937  18.816  0.00  0.00    +0.000 A 
ATOM     17  C   UNL     1       4.245   3.584  19.160  0.00  0.00    +0.000 A 
ATOM     18  C   UNL     1       3.186   2.683  19.138  0.00  0.00    +0.000 A 
ATOM     19  C   UNL     1       1.917   3.126  18.801  0.00  0.00    +0.000 A 
ATOM     20  C   UNL     1       0.749   2.191  18.838  0.00  0.00    +0.000 C 
ATOM     21  C   UNL     1       1.728   4.469  18.453  0.00  0.00    +0.000 A 
ATOM     22  C   UNL     1       2.779   5.400  18.450  0.00  0.00    +0.000 A 
BRANCH  16  24
ATOM     23  C   UNL     1       6.058   5.670  17.764  0.00  0.00    +0.000 C 
ATOM     24  O   UNL     1       5.120   5.828  18.840  0.00  0.00    +0.000 OA
ENDBRANCH  16  24
ENDBRANCH  12  22
ENDBRANCH  10  13
ENDBRANCH   1  10
BRANCH   3  25
ATOM     25  C   UNL     1      -0.037  12.624  21.259  0.00  0.00    +0.000 C 
BRANCH  25  26
ATOM     26  C   UNL     1       1.015  13.690  21.070  0.00  0.00    +0.000 C 
ATOM     27  O   UNL     1       2.166  13.595  21.507  0.00  0.00    +0.000 OA
ATOM     28  N   UNL     1       0.636  14.822  20.351  0.00  0.00    +0.000 N 
ATOM     29  C   UNL     1      -0.661  15.123  19.772  0.00  0.00    +0.000 C 
ATOM     30  C   UNL     1      -0.306  16.048  18.617  0.00  0.00    +0.000 C 
ATOM     31  C   UNL     1       0.874  16.855  19.152  0.00  0.00    +0.000 C 
ATOM     32  C   UNL     1       1.555  15.926  20.153  0.00  0.00    +0.000 C 
ENDBRANCH  25  26
ENDBRANCH   3  25
TORSDOF 6
ENDMDL
MODEL 9
REMARK VINA RESULT:      -8.1      6.962      9.509
REMARK  Name = 
REMARK  8 active torsions:
REMARK  status: ('A' for Active; 'I' for Inactive)
REMARK    1  A    between atoms: C_1  and  O_2
REMARK    2  A    between atoms: O_2  and  C_3
REMARK    3  A    between atoms: C_6  and  C_7
REMARK    4  A    between atoms: C_9  and  N_10
REMARK    5  A    between atoms: C_11  and  C_13
REMARK    6  A    between atoms: C_13  and  C_15
REMARK    7  A    between atoms: N_17  and  C_18
REMARK    8  A    between atoms: C_18  and  C_19
REMARK                            x       y       z     vdW  Elec       q    Type
REMARK                         _______ _______ _______ _____ _____    ______ ____
ROOT
ATOM      1  C   UNL     1       0.496  10.269  19.078  0.00  0.00    +0.000 A 
ATOM      2  C   UNL     1      -0.814  10.185  18.640  0.00  0.00    +0.000 A 
ATOM      3  N   UNL     1      -1.265  11.443  18.332  0.00  0.00    +0.000 N 
ATOM      4  C   UNL     1      -0.269  12.368  18.569  0.00  0.00    +0.000 A 
ATOM      5  C   UNL     1      -0.260  13.767  18.433  0.00  0.00    +0.000 A 
ATOM      6  C   UNL     1       0.912  14.460  18.756  0.00  0.00    +0.000 A 
ATOM      7  C   UNL     1       2.038  13.782  19.209  0.00  0.00    +0.000 A 
ATOM      8  C   UNL     1       2.021  12.388  19.351  0.00  0.00    +0.000 A 
ATOM      9  C   UNL     1       0.856  11.656  19.019  0.00  0.00    +0.000 A 
ENDROOT
BRANCH   1  10
ATOM     10  C   UNL     1       1.282   9.123  19.540  0.00  0.00    +0.000 C 
ATOM     11  O   UNL     1       1.346   8.763  20.711  0.00  0.00    +0.000 OA
BRANCH  10  13
ATOM     12  N   UNL     1       2.464   7.033  18.904  0.00  0.00    +0.000 N 
ATOM     13  C   UNL     1       2.025   8.292  18.492  0.00  0.00    +0.000 C 
ATOM     14  O   UNL     1       2.192   8.832  17.400  0.00  0.00    +0.000 OA
ATOM     15  H   UNL     1       2.199   6.720  19.834  0.00  0.00    +0.000 HD
BRANCH  12  22
ATOM     16  C   UNL     1       2.765   4.849  17.759  0.00  0.00    +0.000 A 
ATOM     17  C   UNL     1       3.591   3.979  17.022  0.00  0.00    +0.000 A 
ATOM     18  C   UNL     1       4.884   4.337  16.662  0.00  0.00    +0.000 A 
ATOM     19  C   UNL     1       5.370   5.588  17.007  0.00  0.00    +0.000 A 
ATOM     20  C   UNL     1       6.734   6.023  16.571  0.00  0.00    +0.000 C 
ATOM     21  C   UNL     1       4.560   6.460  17.744  0.00  0.00    +0.000 A 
ATOM     22  C   UNL     1       3.254   6.123  18.136  0.00  0.00    +0.000 A 
BRANCH  16  24
ATOM     23  C   UNL     1       1.335   3.119  18.517  0.00  0.00    +0.000 C 
ATOM     24  O   UNL     1       1.480   4.490  18.113  0.00  0.00    +0.000 OA
ENDBRANCH  16  24
ENDBRANCH  12  22
ENDBRANCH  10  13
ENDBRANCH   1  10
BRANCH   3  25
ATOM     25  C   UNL     1      -2.653  11.740  17.951  0.00  0.00    +0.000 C 
BRANCH  25  26
ATOM     26  C   UNL     1      -3.559  12.027  19.124  0.00  0.00    +0.000 C 
ATOM     27  O   UNL     1      -3.151  12.435  20.215  0.00  0.00    +0.000 OA
ATOM     28  N   UNL     1      -4.923  11.819  18.925  0.00  0.00    +0.000 N 
ATOM     29  C   UNL     1      -5.591  11.335  17.729  0.00  0.00    +0.000 C 
ATOM     30  C   UNL     1      -6.979  11.945  17.852  0.00  0.00    +0.000 C 
ATOM     31  C   UNL     1      -7.254  11.916  19.353  0.00  0.00    +0.000 C 
ATOM     32  C   UNL     1      -5.875  12.018  19.999  0.00  0.00    +0.000 C 
ENDBRANCH  25  26
ENDBRANCH   3  25
TORSDOF 6
ENDMDL
