MODEL 1
REMARK VINA RESULT:      -8.9      0.000      0.000
REMARK  Name = 
REMARK  6 active torsions:
REMARK  status: ('A' for Active; 'I' for Inactive)
REMARK    1  A    between atoms: C_1  and  C_2
REMARK    2  A    between atoms: C_2  and  C_3
REMARK    3  A    between atoms: C_2  and  N_4
REMARK    4  A    between atoms: C_9  and  N_10
REMARK    5  A    between atoms: C_11  and  C_13
REMARK    6  A    between atoms: C_22  and  C_23
REMARK                            x       y       z     vdW  Elec       q    Type
REMARK                         _______ _______ _______ _____ _____    ______ ____
ROOT
ATOM      1  N   UNL     1       1.359   8.917  19.635  0.00  0.00    +0.000 N 
ATOM      2  C   UNL     1       1.975   8.824  18.385  0.00  0.00    +0.000 C 
ATOM      3  O   UNL     1       1.856   9.594  17.442  0.00  0.00    +0.000 OA
ATOM      4  H   UNL     1       1.656   8.211  20.301  0.00  0.00    +0.000 HD
ENDROOT
BRANCH   2   5
ATOM      5  C   UNL     1       2.875   7.637  18.256  0.00  0.00    +0.000 A 
ATOM      6  C   UNL     1       4.017   7.666  17.449  0.00  0.00    +0.000 A 
ATOM      7  C   UNL     1       4.739   6.481  17.234  0.00  0.00    +0.000 A 
ATOM      8  C   UNL     1       4.233   5.308  17.813  0.00  0.00    +0.000 A 
ATOM      9  C   UNL     1       4.487   3.899  17.724  0.00  0.00    +0.000 A 
ATOM     10  C   UNL     1       3.467   3.257  18.418  0.00  0.00    +0.000 A 
ATOM     11  N   UNL     1       2.860   4.232  19.173  0.00  0.00    +0.000 N 
ATOM     12  C   UNL     1       3.142   5.453  18.664  0.00  0.00    +0.000 A 
ATOM     13  N   UNL     1       2.433   6.554  18.937  0.00  0.00    +0.000 NA
ATOM     14  C   UNL     1       1.853   3.918  20.173  0.00  0.00    +0.000 C 
ATOM     15  C   UNL     1       2.522   3.420  21.459  0.00  0.00    +0.000 C 
ATOM     16  C   UNL     1       0.961   2.860  19.534  0.00  0.00    +0.000 C 
ATOM     17  N   UNL     1       1.761   1.733  19.064  0.00  0.00    +0.000 N 
ATOM     18  C   UNL     1       2.992   1.890  18.446  0.00  0.00    +0.000 C 
ATOM     19  O   UNL     1       3.576   0.931  17.960  0.00  0.00    +0.000 OA
ATOM     20  H   UNL     1       1.358   0.807  19.011  0.00  0.00    +0.000 HD
ENDBRANCH   2   5
BRANCH   1  26
ATOM     21  N   UNL     1      -1.924  13.040  21.131  0.00  0.00    +0.000 N 
ATOM     22  N   UNL     1      -2.905  13.062  20.189  0.00  0.00    +0.000 NA
ATOM     23  C   UNL     1      -2.579  12.041  19.390  0.00  0.00    +0.000 A 
ATOM     24  C   UNL     1      -1.422  11.361  19.809  0.00  0.00    +0.000 A 
ATOM     25  C   UNL     1      -0.661  10.278  19.352  0.00  0.00    +0.000 A 
ATOM     26  C   UNL     1       0.483   9.932  20.066  0.00  0.00    +0.000 A 
ATOM     27  C   UNL     1       0.753  10.646  21.241  0.00  0.00    +0.000 A 
ATOM     28  N   UNL     1       0.043  11.701  21.737  0.00  0.00    +0.000 NA
ATOM     29  C   UNL     1      -1.020  12.016  20.963  0.00  0.00    +0.000 A 
BRANCH  21  31
ATOM     30  C   UNL     1      -2.625  15.337  21.711  0.00  0.00    +0.000 C 
ATOM     31  C   UNL     1      -1.920  14.060  22.174  0.00  0.00    +0.000 C 
ATOM     32  C   UNL     1      -2.549  13.529  23.462  0.00  0.00    +0.000 C 
ENDBRANCH  21  31
ENDBRANCH   1  26
TORSDOF 3
ENDMDL
MODEL 2
REMARK VINA RESULT:      -8.9      0.974      1.548
REMARK  Name = 
REMARK  6 active torsions:
REMARK  status: ('A' for Active; 'I' for Inactive)
REMARK    1  A    between atoms: C_1  and  C_2
REMARK    2  A    between atoms: C_2  and  C_3
REMARK    3  A    between atoms: C_2  and  N_4
REMARK    4  A    between atoms: C_9  and  N_10
REMARK    5  A    between atoms: C_11  and  C_13
REMARK    6  A    between atoms: C_22  and  C_23
REMARK                            x       y       z     vdW  Elec       q    Type
REMARK                         _______ _______ _______ _____ _____    ______ ____
ROOT
ATOM      1  N   UNL     1       1.247   8.916  19.626  0.00  0.00    +0.000 N 
ATOM      2  C   UNL     1       1.860   8.792  18.377  0.00  0.00    +0.000 C 
ATOM      3  O   UNL     1       1.715   9.521  17.407  0.00  0.00    +0.000 OA
ATOM      4  H   UNL     1       1.566   8.243  20.317  0.00  0.00    +0.000 HD
ENDROOT
BRANCH   2   5
ATOM      5  C   UNL     1       2.792   7.627  18.288  0.00  0.00    +0.000 A 
ATOM      6  C   UNL     1       3.969   7.683  17.535  0.00  0.00    +0.000 A 
ATOM      7  C   UNL     1       4.727   6.516  17.352  0.00  0.00    +0.000 A 
ATOM      8  C   UNL     1       4.222   5.330  17.906  0.00  0.00    +0.000 A 
ATOM      9  C   UNL     1       4.512   3.927  17.828  0.00  0.00    +0.000 A 
ATOM     10  C   UNL     1       3.477   3.260  18.473  0.00  0.00    +0.000 A 
ATOM     11  N   UNL     1       2.813   4.220  19.200  0.00  0.00    +0.000 N 
ATOM     12  C   UNL     1       3.091   5.448  18.706  0.00  0.00    +0.000 A 
ATOM     13  N   UNL     1       2.344   6.532  18.948  0.00  0.00    +0.000 NA
ATOM     14  C   UNL     1       1.769   3.881  20.153  0.00  0.00    +0.000 C 
ATOM     15  C   UNL     1       2.391   3.395  21.468  0.00  0.00    +0.000 C 
ATOM     16  C   UNL     1       0.933   2.804  19.473  0.00  0.00    +0.000 C 
ATOM     17  N   UNL     1       1.779   1.697  19.039  0.00  0.00    +0.000 N 
ATOM     18  C   UNL     1       3.033   1.883  18.478  0.00  0.00    +0.000 C 
ATOM     19  O   UNL     1       3.661   0.939  18.019  0.00  0.00    +0.000 OA
ATOM     20  H   UNL     1       1.400   0.761  18.966  0.00  0.00    +0.000 HD
ENDBRANCH   2   5
BRANCH   1  26
ATOM     21  N   UNL     1      -2.427  12.625  21.287  0.00  0.00    +0.000 N 
ATOM     22  N   UNL     1      -2.117  12.860  22.591  0.00  0.00    +0.000 NA
ATOM     23  C   UNL     1      -1.050  12.081  22.793  0.00  0.00    +0.000 A 
ATOM     24  C   UNL     1      -0.664  11.366  21.645  0.00  0.00    +0.000 A 
ATOM     25  C   UNL     1       0.329  10.436  21.317  0.00  0.00    +0.000 A 
ATOM     26  C   UNL     1       0.345   9.921  20.024  0.00  0.00    +0.000 A 
ATOM     27  C   UNL     1      -0.593  10.428  19.114  0.00  0.00    +0.000 A 
ATOM     28  N   UNL     1      -1.575  11.339  19.376  0.00  0.00    +0.000 NA
ATOM     29  C   UNL     1      -1.564  11.753  20.664  0.00  0.00    +0.000 A 
BRANCH  21  31
ATOM     30  C   UNL     1      -4.896  12.661  21.212  0.00  0.00    +0.000 C 
ATOM     31  C   UNL     1      -3.591  13.282  20.706  0.00  0.00    +0.000 C 
ATOM     32  C   UNL     1      -3.565  14.786  20.978  0.00  0.00    +0.000 C 
ENDBRANCH  21  31
ENDBRANCH   1  26
TORSDOF 3
ENDMDL
MODEL 3
REMARK VINA RESULT:      -8.6      2.176      3.480
REMARK  Name = 
REMARK  6 active torsions:
REMARK  status: ('A' for Active; 'I' for Inactive)
REMARK    1  A    between atoms: C_1  and  C_2
REMARK    2  A    between atoms: C_2  and  C_3
REMARK    3  A    between atoms: C_2  and  N_4
REMARK    4  A    between atoms: C_9  and  N_10
REMARK    5  A    between atoms: C_11  and  C_13
REMARK    6  A    between atoms: C_22  and  C_23
REMARK                            x       y       z     vdW  Elec       q    Type
REMARK                         _______ _______ _______ _____ _____    ______ ____
ROOT
ATOM      1  N   UNL     1       0.805   8.427  20.941  0.00  0.00    +0.000 N 
ATOM      2  C   UNL     1       1.454   8.317  19.708  0.00  0.00    +0.000 C 
ATOM      3  O   UNL     1       1.447   9.129  18.794  0.00  0.00    +0.000 OA
ATOM      4  H   UNL     1       1.005   7.670  21.587  0.00  0.00    +0.000 HD
ENDROOT
BRANCH   2   5
ATOM      5  C   UNL     1       2.234   7.050  19.561  0.00  0.00    +0.000 A 
ATOM      6  C   UNL     1       2.015   5.951  20.396  0.00  0.00    +0.000 A 
ATOM      7  C   UNL     1       2.879   4.847  20.325  0.00  0.00    +0.000 A 
ATOM      8  C   UNL     1       3.961   4.936  19.435  0.00  0.00    +0.000 A 
ATOM      9  C   UNL     1       5.159   4.197  19.161  0.00  0.00    +0.000 A 
ATOM     10  C   UNL     1       5.915   4.959  18.278  0.00  0.00    +0.000 A 
ATOM     11  N   UNL     1       5.057   5.912  17.780  0.00  0.00    +0.000 N 
ATOM     12  C   UNL     1       3.994   6.051  18.604  0.00  0.00    +0.000 A 
ATOM     13  N   UNL     1       3.185   7.117  18.599  0.00  0.00    +0.000 NA
ATOM     14  C   UNL     1       5.434   6.794  16.688  0.00  0.00    +0.000 C 
ATOM     15  C   UNL     1       5.308   6.061  15.348  0.00  0.00    +0.000 C 
ATOM     16  C   UNL     1       6.867   7.219  16.987  0.00  0.00    +0.000 C 
ATOM     17  N   UNL     1       7.718   6.050  17.178  0.00  0.00    +0.000 N 
ATOM     18  C   UNL     1       7.303   4.922  17.870  0.00  0.00    +0.000 C 
ATOM     19  O   UNL     1       8.084   4.012  18.112  0.00  0.00    +0.000 OA
ATOM     20  H   UNL     1       8.707   6.096  16.968  0.00  0.00    +0.000 HD
ENDBRANCH   2   5
BRANCH   1  26
ATOM     21  N   UNL     1      -2.014  12.800  22.656  0.00  0.00    +0.000 N 
ATOM     22  N   UNL     1      -2.323  13.480  21.519  0.00  0.00    +0.000 NA
ATOM     23  C   UNL     1      -1.801  12.714  20.556  0.00  0.00    +0.000 A 
ATOM     24  C   UNL     1      -1.179  11.554  21.052  0.00  0.00    +0.000 A 
ATOM     25  C   UNL     1      -0.489  10.464  20.510  0.00  0.00    +0.000 A 
ATOM     26  C   UNL     1       0.021   9.509  21.384  0.00  0.00    +0.000 A 
ATOM     27  C   UNL     1      -0.259   9.666  22.748  0.00  0.00    +0.000 A 
ATOM     28  N   UNL     1      -0.933  10.701  23.330  0.00  0.00    +0.000 NA
ATOM     29  C   UNL     1      -1.350  11.617  22.427  0.00  0.00    +0.000 A 
BRANCH  21  31
ATOM     30  C   UNL     1      -2.181  14.881  23.977  0.00  0.00    +0.000 C 
ATOM     31  C   UNL     1      -2.393  13.365  23.945  0.00  0.00    +0.000 C 
ATOM     32  C   UNL     1      -3.839  13.011  24.295  0.00  0.00    +0.000 C 
ENDBRANCH  21  31
ENDBRANCH   1  26
TORSDOF 3
ENDMDL
MODEL 4
REMARK VINA RESULT:      -8.6      2.554      9.951
REMARK  Name = 
REMARK  6 active torsions:
REMARK  status: ('A' for Active; 'I' for Inactive)
REMARK    1  A    between atoms: C_1  and  C_2
REMARK    2  A    between atoms: C_2  and  C_3
REMARK    3  A    between atoms: C_2  and  N_4
REMARK    4  A    between atoms: C_9  and  N_10
REMARK    5  A    between atoms: C_11  and  C_13
REMARK    6  A    between atoms: C_22  and  C_23
REMARK                            x       y       z     vdW  Elec       q    Type
REMARK                         _______ _______ _______ _____ _____    ______ ____
ROOT
ATOM      1  N   UNL     1       1.927   7.965  19.814  0.00  0.00    +0.000 N 
ATOM      2  C   UNL     1       1.121   9.063  19.504  0.00  0.00    +0.000 C 
ATOM      3  O   UNL     1       0.879   9.512  18.393  0.00  0.00    +0.000 OA
ATOM      4  H   UNL     1       1.933   7.715  20.798  0.00  0.00    +0.000 HD
ENDROOT
BRANCH   2   5
ATOM      5  C   UNL     1       0.507   9.705  20.707  0.00  0.00    +0.000 A 
ATOM      6  C   UNL     1       0.698   9.191  21.993  0.00  0.00    +0.000 A 
ATOM      7  C   UNL     1      -0.027   9.731  23.067  0.00  0.00    +0.000 A 
ATOM      8  C   UNL     1      -0.954  10.741  22.770  0.00  0.00    +0.000 A 
ATOM      9  C   UNL     1      -2.011  11.430  23.453  0.00  0.00    +0.000 A 
ATOM     10  C   UNL     1      -2.688  12.183  22.500  0.00  0.00    +0.000 A 
ATOM     11  N   UNL     1      -1.862  12.223  21.402  0.00  0.00    +0.000 N 
ATOM     12  C   UNL     1      -0.965  11.212  21.461  0.00  0.00    +0.000 A 
ATOM     13  N   UNL     1      -0.278  10.766  20.404  0.00  0.00    +0.000 NA
ATOM     14  C   UNL     1      -2.145  13.070  20.254  0.00  0.00    +0.000 C 
ATOM     15  C   UNL     1      -1.730  14.516  20.548  0.00  0.00    +0.000 C 
ATOM     16  C   UNL     1      -3.643  12.932  20.008  0.00  0.00    +0.000 C 
ATOM     17  N   UNL     1      -4.391  13.240  21.222  0.00  0.00    +0.000 N 
ATOM     18  C   UNL     1      -3.981  12.833  22.483  0.00  0.00    +0.000 C 
ATOM     19  O   UNL     1      -4.695  13.008  23.461  0.00  0.00    +0.000 OA
ATOM     20  H   UNL     1      -5.332  13.607  21.164  0.00  0.00    +0.000 HD
ENDBRANCH   2   5
BRANCH   1  26
ATOM     21  N   UNL     1       4.790   4.707  16.468  0.00  0.00    +0.000 N 
ATOM     22  N   UNL     1       4.348   3.450  16.746  0.00  0.00    +0.000 NA
ATOM     23  C   UNL     1       3.415   3.658  17.679  0.00  0.00    +0.000 A 
ATOM     24  C   UNL     1       3.242   5.018  17.993  0.00  0.00    +0.000 A 
ATOM     25  C   UNL     1       2.447   5.762  18.872  0.00  0.00    +0.000 A 
ATOM     26  C   UNL     1       2.615   7.143  18.901  0.00  0.00    +0.000 A 
ATOM     27  C   UNL     1       3.521   7.704  17.990  0.00  0.00    +0.000 A 
ATOM     28  N   UNL     1       4.313   7.029  17.106  0.00  0.00    +0.000 NA
ATOM     29  C   UNL     1       4.136   5.690  17.173  0.00  0.00    +0.000 A 
BRANCH  21  31
ATOM     30  C   UNL     1       7.233   4.570  16.122  0.00  0.00    +0.000 C 
ATOM     31  C   UNL     1       5.868   4.881  15.502  0.00  0.00    +0.000 C 
ATOM     32  C   UNL     1       5.631   4.028  14.255  0.00  0.00    +0.000 C 
ENDBRANCH  21  31
ENDBRANCH   1  26
TORSDOF 3
ENDMDL
MODEL 5
REMARK VINA RESULT:      -8.6      0.923      1.030
REMARK  Name = 
REMARK  6 active torsions:
REMARK  status: ('A' for Active; 'I' for Inactive)
REMARK    1  A    between atoms: C_1  and  C_2
REMARK    2  A    between atoms: C_2  and  C_3
REMARK    3  A    between atoms: C_2  and  N_4
REMARK    4  A    between atoms: C_9  and  N_10
REMARK    5  A    between atoms: C_11  and  C_13
REMARK    6  A    between atoms: C_22  and  C_23
REMARK                            x       y       z     vdW  Elec       q    Type
REMARK                         _______ _______ _______ _____ _____    ______ ____
ROOT
ATOM      1  N   UNL     1       0.974   9.067  20.298  0.00  0.00    +0.000 N 
ATOM      2  C   UNL     1       1.308   8.931  18.948  0.00  0.00    +0.000 C 
ATOM      3  O   UNL     1       0.891   9.599  18.013  0.00  0.00    +0.000 OA
ATOM      4  H   UNL     1       1.495   8.456  20.921  0.00  0.00    +0.000 HD
ENDROOT
BRANCH   2   5
ATOM      5  C   UNL     1       2.297   7.840  18.690  0.00  0.00    +0.000 A 
ATOM      6  C   UNL     1       3.390   8.026  17.838  0.00  0.00    +0.000 A 
ATOM      7  C   UNL     1       4.197   6.928  17.502  0.00  0.00    +0.000 A 
ATOM      8  C   UNL     1       3.821   5.676  18.012  0.00  0.00    +0.000 A 
ATOM      9  C   UNL     1       4.188   4.304  17.806  0.00  0.00    +0.000 A 
ATOM     10  C   UNL     1       3.262   3.528  18.493  0.00  0.00    +0.000 A 
ATOM     11  N   UNL     1       2.614   4.390  19.346  0.00  0.00    +0.000 N 
ATOM     12  C   UNL     1       2.767   5.664  18.919  0.00  0.00    +0.000 A 
ATOM     13  N   UNL     1       1.982   6.676  19.306  0.00  0.00    +0.000 NA
ATOM     14  C   UNL     1       1.689   3.918  20.364  0.00  0.00    +0.000 C 
ATOM     15  C   UNL     1       2.462   3.389  21.577  0.00  0.00    +0.000 C 
ATOM     16  C   UNL     1       0.858   2.835  19.686  0.00  0.00    +0.000 C 
ATOM     17  N   UNL     1       1.724   1.819  19.098  0.00  0.00    +0.000 N 
ATOM     18  C   UNL     1       2.905   2.127  18.439  0.00  0.00    +0.000 C 
ATOM     19  O   UNL     1       3.543   1.260  17.857  0.00  0.00    +0.000 OA
ATOM     20  H   UNL     1       1.398   0.867  18.992  0.00  0.00    +0.000 HD
ENDBRANCH   2   5
BRANCH   1  26
ATOM     21  N   UNL     1      -2.236  12.953  22.445  0.00  0.00    +0.000 N 
ATOM     22  N   UNL     1      -2.730  13.626  21.371  0.00  0.00    +0.000 NA
ATOM     23  C   UNL     1      -2.198  12.973  20.333  0.00  0.00    +0.000 A 
ATOM     24  C   UNL     1      -1.388  11.891  20.720  0.00  0.00    +0.000 A 
ATOM     25  C   UNL     1      -0.610  10.925  20.072  0.00  0.00    +0.000 A 
ATOM     26  C   UNL     1       0.096  10.016  20.855  0.00  0.00    +0.000 A 
ATOM     27  C   UNL     1      -0.081  10.085  22.244  0.00  0.00    +0.000 A 
ATOM     28  N   UNL     1      -0.832  10.997  22.927  0.00  0.00    +0.000 NA
ATOM     29  C   UNL     1      -1.443  11.880  22.106  0.00  0.00    +0.000 A 
BRANCH  21  31
ATOM     30  C   UNL     1      -2.668  14.941  23.846  0.00  0.00    +0.000 C 
ATOM     31  C   UNL     1      -2.571  13.414  23.786  0.00  0.00    +0.000 C 
ATOM     32  C   UNL     1      -3.866  12.769  24.281  0.00  0.00    +0.000 C 
ENDBRANCH  21  31
ENDBRANCH   1  26
TORSDOF 3
ENDMDL
MODEL 6
REMARK VINA RESULT:      -8.5      2.574      9.723
REMARK  Name = 
REMARK  6 active torsions:
REMARK  status: ('A' for Active; 'I' for Inactive)
REMARK    1  A    between atoms: C_1  and  C_2
REMARK    2  A    between atoms: C_2  and  C_3
REMARK    3  A    between atoms: C_2  and  N_4
REMARK    4  A    between atoms: C_9  and  N_10
REMARK    5  A    between atoms: C_11  and  C_13
REMARK    6  A    between atoms: C_22  and  C_23
REMARK                            x       y       z     vdW  Elec       q    Type
REMARK                         _______ _______ _______ _____ _____    ______ ____
ROOT
ATOM      1  N   UNL     1       1.844   8.149  19.392  0.00  0.00    +0.000 N 
ATOM      2  C   UNL     1       1.438   7.932  20.711  0.00  0.00    +0.000 C 
ATOM      3  O   UNL     1       1.651   6.941  21.396  0.00  0.00    +0.000 OA
ATOM      4  H   UNL     1       1.625   9.074  19.035  0.00  0.00    +0.000 HD
ENDROOT
BRANCH   2   5
ATOM      5  C   UNL     1       0.677   9.078  21.293  0.00  0.00    +0.000 A 
ATOM      6  C   UNL     1       0.509   9.224  22.673  0.00  0.00    +0.000 A 
ATOM      7  C   UNL     1      -0.347  10.224  23.163  0.00  0.00    +0.000 A 
ATOM      8  C   UNL     1      -1.033  10.999  22.216  0.00  0.00    +0.000 A 
ATOM      9  C   UNL     1      -2.104  11.954  22.219  0.00  0.00    +0.000 A 
ATOM     10  C   UNL     1      -2.444  12.188  20.891  0.00  0.00    +0.000 A 
ATOM     11  N   UNL     1      -1.402  11.686  20.147  0.00  0.00    +0.000 N 
ATOM     12  C   UNL     1      -0.694  10.800  20.882  0.00  0.00    +0.000 A 
ATOM     13  N   UNL     1       0.135   9.892  20.355  0.00  0.00    +0.000 NA
ATOM     14  C   UNL     1      -1.306  11.901  18.712  0.00  0.00    +0.000 C 
ATOM     15  C   UNL     1      -0.763  13.305  18.422  0.00  0.00    +0.000 C 
ATOM     16  C   UNL     1      -2.719  11.701  18.176  0.00  0.00    +0.000 C 
ATOM     17  N   UNL     1      -3.660  12.563  18.884  0.00  0.00    +0.000 N 
ATOM     18  C   UNL     1      -3.596  12.785  20.250  0.00  0.00    +0.000 C 
ATOM     19  O   UNL     1      -4.472  13.417  20.825  0.00  0.00    +0.000 OA
ATOM     20  H   UNL     1      -4.505  12.882  18.426  0.00  0.00    +0.000 HD
ENDBRANCH   2   5
BRANCH   1  26
ATOM     21  N   UNL     1       4.927   4.672  16.491  0.00  0.00    +0.000 N 
ATOM     22  N   UNL     1       4.403   3.444  16.752  0.00  0.00    +0.000 NA
ATOM     23  C   UNL     1       3.379   3.718  17.566  0.00  0.00    +0.000 A 
ATOM     24  C   UNL     1       3.230   5.094  17.819  0.00  0.00    +0.000 A 
ATOM     25  C   UNL     1       2.373   5.897  18.579  0.00  0.00    +0.000 A 
ATOM     26  C   UNL     1       2.595   7.271  18.588  0.00  0.00    +0.000 A 
ATOM     27  C   UNL     1       3.621   7.765  17.771  0.00  0.00    +0.000 A 
ATOM     28  N   UNL     1       4.479   7.031  17.004  0.00  0.00    +0.000 NA
ATOM     29  C   UNL     1       4.239   5.703  17.088  0.00  0.00    +0.000 A 
BRANCH  21  31
ATOM     30  C   UNL     1       7.390   4.485  16.447  0.00  0.00    +0.000 C 
ATOM     31  C   UNL     1       6.114   4.772  15.651  0.00  0.00    +0.000 C 
ATOM     32  C   UNL     1       6.009   3.844  14.440  0.00  0.00    +0.000 C 
ENDBRANCH  21  31
ENDBRANCH   1  26
TORSDOF 3
ENDMDL
MODEL 7
REMARK VINA RESULT:      -8.4      2.340      3.585
REMARK  Name = 
REMARK  6 active torsions:
REMARK  status: ('A' for Active; 'I' for Inactive)
REMARK    1  A    between atoms: C_1  and  C_2
REMARK    2  A    between atoms: C_2  and  C_3
REMARK    3  A    between atoms: C_2  and  N_4
REMARK    4  A    between atoms: C_9  and  N_10
REMARK    5  A    between atoms: C_11  and  C_13
REMARK    6  A    between atoms: C_22  and  C_23
REMARK                            x       y       z     vdW  Elec       q    Type
REMARK                         _______ _______ _______ _____ _____    ______ ____
ROOT
ATOM      1  N   UNL     1       1.272   8.868  21.065  0.00  0.00    +0.000 N 
ATOM      2  C   UNL     1       1.459   8.487  19.734  0.00  0.00    +0.000 C 
ATOM      3  O   UNL     1       1.093   9.088  18.734  0.00  0.00    +0.000 OA
ATOM      4  H   UNL     1       1.723   8.260  21.741  0.00  0.00    +0.000 HD
ENDROOT
BRANCH   2   5
ATOM      5  C   UNL     1       2.207   7.201  19.586  0.00  0.00    +0.000 A 
ATOM      6  C   UNL     1       1.956   6.105  20.417  0.00  0.00    +0.000 A 
ATOM      7  C   UNL     1       2.791   4.979  20.346  0.00  0.00    +0.000 A 
ATOM      8  C   UNL     1       3.878   5.043  19.461  0.00  0.00    +0.000 A 
ATOM      9  C   UNL     1       5.058   4.274  19.189  0.00  0.00    +0.000 A 
ATOM     10  C   UNL     1       5.837   5.019  18.312  0.00  0.00    +0.000 A 
ATOM     11  N   UNL     1       5.006   5.994  17.813  0.00  0.00    +0.000 N 
ATOM     12  C   UNL     1       3.944   6.159  18.634  0.00  0.00    +0.000 A 
ATOM     13  N   UNL     1       3.163   7.246  18.628  0.00  0.00    +0.000 NA
ATOM     14  C   UNL     1       5.410   6.870  16.725  0.00  0.00    +0.000 C 
ATOM     15  C   UNL     1       5.271   6.144  15.382  0.00  0.00    +0.000 C 
ATOM     16  C   UNL     1       6.853   7.257  17.031  0.00  0.00    +0.000 C 
ATOM     17  N   UNL     1       7.673   6.065  17.222  0.00  0.00    +0.000 N 
ATOM     18  C   UNL     1       7.225   4.947  17.909  0.00  0.00    +0.000 C 
ATOM     19  O   UNL     1       7.982   4.016  18.152  0.00  0.00    +0.000 OA
ATOM     20  H   UNL     1       8.663   6.087  17.016  0.00  0.00    +0.000 HD
ENDBRANCH   2   5
BRANCH   1  26
ATOM     21  N   UNL     1      -1.406  13.381  22.638  0.00  0.00    +0.000 N 
ATOM     22  N   UNL     1      -2.436  12.924  23.401  0.00  0.00    +0.000 NA
ATOM     23  C   UNL     1      -2.249  11.601  23.400  0.00  0.00    +0.000 A 
ATOM     24  C   UNL     1      -1.118  11.204  22.666  0.00  0.00    +0.000 A 
ATOM     25  C   UNL     1      -0.496   9.994  22.336  0.00  0.00    +0.000 A 
ATOM     26  C   UNL     1       0.633  10.036  21.523  0.00  0.00    +0.000 A 
ATOM     27  C   UNL     1       1.115  11.298  21.149  0.00  0.00    +0.000 A 
ATOM     28  N   UNL     1       0.556  12.507  21.448  0.00  0.00    +0.000 NA
ATOM     29  C   UNL     1      -0.566  12.386  22.193  0.00  0.00    +0.000 A 
BRANCH  21  31
ATOM     30  C   UNL     1      -2.541  15.337  21.643  0.00  0.00    +0.000 C 
ATOM     31  C   UNL     1      -1.301  14.810  22.371  0.00  0.00    +0.000 C 
ATOM     32  C   UNL     1      -1.056  15.593  23.662  0.00  0.00    +0.000 C 
ENDBRANCH  21  31
ENDBRANCH   1  26
TORSDOF 3
ENDMDL
MODEL 8
REMARK VINA RESULT:      -8.3      1.399      1.548
REMARK  Name = 
REMARK  6 active torsions:
REMARK  status: ('A' for Active; 'I' for Inactive)
REMARK    1  A    between atoms: C_1  and  C_2
REMARK    2  A    between atoms: C_2  and  C_3
REMARK    3  A    between atoms: C_2  and  N_4
REMARK    4  A    between atoms: C_9  and  N_10
REMARK    5  A    between atoms: C_11  and  C_13
REMARK    6  A    between atoms: C_22  and  C_23
REMARK                            x       y       z     vdW  Elec       q    Type
REMARK                         _______ _______ _______ _____ _____    ______ ____
ROOT
ATOM      1  N   UNL     1       1.409   9.502  20.497  0.00  0.00    +0.000 N 
ATOM      2  C   UNL     1       1.308   9.149  19.149  0.00  0.00    +0.000 C 
ATOM      3  O   UNL     1       0.589   9.661  18.303  0.00  0.00    +0.000 OA
ATOM      4  H   UNL     1       2.124   8.995  21.009  0.00  0.00    +0.000 HD
ENDROOT
BRANCH   2   5
ATOM      5  C   UNL     1       2.213   8.024  18.762  0.00  0.00    +0.000 A 
ATOM      6  C   UNL     1       3.212   8.184  17.798  0.00  0.00    +0.000 A 
ATOM      7  C   UNL     1       3.928   7.061  17.353  0.00  0.00    +0.000 A 
ATOM      8  C   UNL     1       3.555   5.814  17.879  0.00  0.00    +0.000 A 
ATOM      9  C   UNL     1       3.836   4.434  17.608  0.00  0.00    +0.000 A 
ATOM     10  C   UNL     1       2.958   3.680  18.379  0.00  0.00    +0.000 A 
ATOM     11  N   UNL     1       2.447   4.549  19.315  0.00  0.00    +0.000 N 
ATOM     12  C   UNL     1       2.608   5.825  18.897  0.00  0.00    +0.000 A 
ATOM     13  N   UNL     1       1.917   6.860  19.388  0.00  0.00    +0.000 NA
ATOM     14  C   UNL     1       1.620   4.093  20.420  0.00  0.00    +0.000 C 
ATOM     15  C   UNL     1       2.499   3.503  21.530  0.00  0.00    +0.000 C 
ATOM     16  C   UNL     1       0.672   3.061  19.819  0.00  0.00    +0.000 C 
ATOM     17  N   UNL     1       1.423   2.024  19.119  0.00  0.00    +0.000 N 
ATOM     18  C   UNL     1       2.536   2.297  18.339  0.00  0.00    +0.000 C 
ATOM     19  O   UNL     1       3.066   1.418  17.673  0.00  0.00    +0.000 OA
ATOM     20  H   UNL     1       1.045   1.089  19.033  0.00  0.00    +0.000 HD
ENDBRANCH   2   5
BRANCH   1  26
ATOM     21  N   UNL     1      -1.505  13.512  22.829  0.00  0.00    +0.000 N 
ATOM     22  N   UNL     1      -2.500  12.871  23.501  0.00  0.00    +0.000 NA
ATOM     23  C   UNL     1      -2.239  11.581  23.271  0.00  0.00    +0.000 A 
ATOM     24  C   UNL     1      -1.094  11.384  22.479  0.00  0.00    +0.000 A 
ATOM     25  C   UNL     1      -0.408  10.287  21.945  0.00  0.00    +0.000 A 
ATOM     26  C   UNL     1       0.709  10.534  21.151  0.00  0.00    +0.000 A 
ATOM     27  C   UNL     1       1.115  11.866  21.002  0.00  0.00    +0.000 A 
ATOM     28  N   UNL     1       0.492  12.971  21.507  0.00  0.00    +0.000 NA
ATOM     29  C   UNL     1      -0.615  12.659  22.219  0.00  0.00    +0.000 A 
BRANCH  21  31
ATOM     30  C   UNL     1      -2.822  15.545  22.343  0.00  0.00    +0.000 C 
ATOM     31  C   UNL     1      -1.484  14.969  22.815  0.00  0.00    +0.000 C 
ATOM     32  C   UNL     1      -1.107  15.526  24.189  0.00  0.00    +0.000 C 
ENDBRANCH  21  31
ENDBRANCH   1  26
TORSDOF 3
ENDMDL
MODEL 9
REMARK VINA RESULT:      -8.3      0.914      1.161
REMARK  Name = 
REMARK  6 active torsions:
REMARK  status: ('A' for Active; 'I' for Inactive)
REMARK    1  A    between atoms: C_1  and  C_2
REMARK    2  A    between atoms: C_2  and  C_3
REMARK    3  A    between atoms: C_2  and  N_4
REMARK    4  A    between atoms: C_9  and  N_10
REMARK    5  A    between atoms: C_11  and  C_13
REMARK    6  A    between atoms: C_22  and  C_23
REMARK                            x       y       z     vdW  Elec       q    Type
REMARK                         _______ _______ _______ _____ _____    ______ ____
ROOT
ATOM      1  N   UNL     1       1.545   9.235  19.519  0.00  0.00    +0.000 N 
ATOM      2  C   UNL     1       1.788   8.723  18.242  0.00  0.00    +0.000 C 
ATOM      3  O   UNL     1       1.321   9.121  17.184  0.00  0.00    +0.000 OA
ATOM      4  H   UNL     1       2.096   8.802  20.254  0.00  0.00    +0.000 HD
ENDROOT
BRANCH   2   5
ATOM      5  C   UNL     1       2.742   7.572  18.237  0.00  0.00    +0.000 A 
ATOM      6  C   UNL     1       3.957   7.628  17.547  0.00  0.00    +0.000 A 
ATOM      7  C   UNL     1       4.743   6.469  17.438  0.00  0.00    +0.000 A 
ATOM      8  C   UNL     1       4.227   5.291  17.999  0.00  0.00    +0.000 A 
ATOM      9  C   UNL     1       4.543   3.892  17.978  0.00  0.00    +0.000 A 
ATOM     10  C   UNL     1       3.486   3.225  18.586  0.00  0.00    +0.000 A 
ATOM     11  N   UNL     1       2.768   4.194  19.248  0.00  0.00    +0.000 N 
ATOM     12  C   UNL     1       3.052   5.412  18.734  0.00  0.00    +0.000 A 
ATOM     13  N   UNL     1       2.277   6.489  18.903  0.00  0.00    +0.000 NA
ATOM     14  C   UNL     1       1.680   3.863  20.153  0.00  0.00    +0.000 C 
ATOM     15  C   UNL     1       2.237   3.426  21.513  0.00  0.00    +0.000 C 
ATOM     16  C   UNL     1       0.898   2.753  19.460  0.00  0.00    +0.000 C 
ATOM     17  N   UNL     1       1.784   1.649  19.105  0.00  0.00    +0.000 N 
ATOM     18  C   UNL     1       3.064   1.842  18.608  0.00  0.00    +0.000 C 
ATOM     19  O   UNL     1       3.731   0.896  18.210  0.00  0.00    +0.000 OA
ATOM     20  H   UNL     1       1.425   0.705  19.040  0.00  0.00    +0.000 HD
ENDBRANCH   2   5
BRANCH   1  26
ATOM     21  N   UNL     1      -1.461  13.588  20.942  0.00  0.00    +0.000 N 
ATOM     22  N   UNL     1      -1.047  14.582  20.110  0.00  0.00    +0.000 NA
ATOM     23  C   UNL     1      -0.133  13.976  19.346  0.00  0.00    +0.000 A 
ATOM     24  C   UNL     1       0.036  12.616  19.663  0.00  0.00    +0.000 A 
ATOM     25  C   UNL     1       0.838  11.562  19.211  0.00  0.00    +0.000 A 
ATOM     26  C   UNL     1       0.719  10.328  19.843  0.00  0.00    +0.000 A 
ATOM     27  C   UNL     1      -0.255  10.205  20.843  0.00  0.00    +0.000 A 
ATOM     28  N   UNL     1      -1.068  11.193  21.317  0.00  0.00    +0.000 NA
ATOM     29  C   UNL     1      -0.858  12.376  20.695  0.00  0.00    +0.000 A 
BRANCH  21  31
ATOM     30  C   UNL     1      -1.795  14.054  23.345  0.00  0.00    +0.000 C 
ATOM     31  C   UNL     1      -2.449  13.890  21.971  0.00  0.00    +0.000 C 
ATOM     32  C   UNL     1      -3.260  15.134  21.604  0.00  0.00    +0.000 C 
ENDBRANCH  21  31
ENDBRANCH   1  26
TORSDOF 3
ENDMDL
