MODEL 1
REMARK VINA RESULT:      -6.9      0.000      0.000
REMARK  Name = 
REMARK  11 active torsions:
REMARK  status: ('A' for Active; 'I' for Inactive)
REMARK    1  A    between atoms: N_1  and  C_2
REMARK    2  A    between atoms: C_2  and  C_3
REMARK    3  A    between atoms: C_3  and  N_4
REMARK    4  A    between atoms: N_4  and  C_5
REMARK    5  A    between atoms: C_9  and  C_10
REMARK    6  A    between atoms: C_10  and  N_11
REMARK    7  A    between atoms: N_11  and  C_12
REMARK    8  A    between atoms: C_12  and  C_13
REMARK    9  A    between atoms: C_13  and  C_14
REMARK   10  A    between atoms: C_14  and  O_15
REMARK   11  A    between atoms: C_22  and  O_23
REMARK                            x       y       z     vdW  Elec       q    Type
REMARK                         _______ _______ _______ _____ _____    ______ ____
ROOT
ATOM      1  C   UNL     1       2.371   5.103  20.524  0.00  0.00    +0.000 A 
ATOM      2  C   UNL     1       1.610   6.244  20.919  0.00  0.00    +0.000 A 
ATOM      3  C   UNL     1       1.447   7.391  20.163  0.00  0.00    +0.000 A 
ATOM      4  C   UNL     1       2.224   7.490  19.033  0.00  0.00    +0.000 A 
ATOM      5  C   UNL     1       2.502   8.528  18.127  0.00  0.00    +0.000 A 
ATOM      6  N   UNL     1       3.357   8.139  17.174  0.00  0.00    +0.000 NA
ATOM      7  N   UNL     1       3.627   6.850  17.493  0.00  0.00    +0.000 N 
ATOM      8  C   UNL     1       4.471   6.024  16.751  0.00  0.00    +0.000 A 
ATOM      9  C   UNL     1       5.107   6.581  15.618  0.00  0.00    +0.000 A 
ATOM     10  C   UNL     1       5.890   5.773  14.814  0.00  0.00    +0.000 A 
ATOM     11  C   UNL     1       6.002   4.417  15.133  0.00  0.00    +0.000 A 
ATOM     12  C   UNL     1       5.372   3.884  16.278  0.00  0.00    +0.000 A 
ATOM     13  C   UNL     1       4.613   4.678  17.154  0.00  0.00    +0.000 A 
ATOM     14  C   UNL     1       3.918   4.174  18.476  0.00  0.00    +0.000 A 
ATOM     15  O   UNL     1       4.051   3.022  18.859  0.00  0.00    +0.000 OA
ATOM     16  C   UNL     1       3.083   5.174  19.272  0.00  0.00    +0.000 A 
ATOM     17  C   UNL     1       2.988   6.418  18.623  0.00  0.00    +0.000 A 
ENDROOT
BRANCH   1  18
ATOM     18  N   UNL     1       2.420   4.012  21.460  0.00  0.00    +0.000 N 
ATOM     19  H   UNL     1       2.247   4.358  22.408  0.00  0.00    +0.000 HD
BRANCH  18  20
ATOM     20  C   UNL     1       1.507   2.871  21.150  0.00  0.00    +0.000 C 
BRANCH  20  21
ATOM     21  C   UNL     1       0.723   2.916  19.831  0.00  0.00    +0.000 C 
BRANCH  21  22
ATOM     22  N   UNL     1       1.157   1.905  18.857  0.00  0.00    +0.000 NA
ATOM     23  H   UNL     1       0.333   1.402  18.526  0.00  0.00    +0.000 HD
ATOM     24  H   UNL     1       1.728   1.199  19.326  0.00  0.00    +0.000 HD
ENDBRANCH  21  22
ENDBRANCH  20  21
ENDBRANCH  18  20
ENDBRANCH   1  18
BRANCH  12  25
ATOM     25  O   UNL     1       5.520   2.527  16.469  0.00  0.00    +0.000 OA
ATOM     26  H   UNL     1       6.237   2.347  17.084  0.00  0.00    +0.000 HD
ENDBRANCH  12  25
BRANCH   5  27
ATOM     27  C   UNL     1       1.974   9.923  18.225  0.00  0.00    +0.000 C 
BRANCH  27  28
ATOM     28  N   UNL     1       0.554   9.990  17.892  0.00  0.00    +0.000 NA
ATOM     29  H   UNL     1       0.261   9.033  17.684  0.00  0.00    +0.000 HD
BRANCH  28  30
ATOM     30  C   UNL     1      -0.264  10.496  18.995  0.00  0.00    +0.000 C 
BRANCH  30  31
ATOM     31  C   UNL     1      -1.709  10.524  18.517  0.00  0.00    +0.000 C 
BRANCH  31  32
ATOM     32  C   UNL     1      -1.860   9.908  17.136  0.00  0.00    +0.000 C 
BRANCH  32  33
ATOM     33  O   UNL     1      -2.032  10.938  16.172  0.00  0.00    +0.000 OA
ATOM     34  H   UNL     1      -1.640  11.749  16.537  0.00  0.00    +0.000 HD
ENDBRANCH  32  33
ENDBRANCH  31  32
ENDBRANCH  30  31
ENDBRANCH  28  30
ENDBRANCH  27  28
ENDBRANCH   5  27
TORSDOF 11
ENDMDL
MODEL 2
REMARK VINA RESULT:      -6.7      2.254      6.210
REMARK  Name = 
REMARK  11 active torsions:
REMARK  status: ('A' for Active; 'I' for Inactive)
REMARK    1  A    between atoms: N_1  and  C_2
REMARK    2  A    between atoms: C_2  and  C_3
REMARK    3  A    between atoms: C_3  and  N_4
REMARK    4  A    between atoms: N_4  and  C_5
REMARK    5  A    between atoms: C_9  and  C_10
REMARK    6  A    between atoms: C_10  and  N_11
REMARK    7  A    between atoms: N_11  and  C_12
REMARK    8  A    between atoms: C_12  and  C_13
REMARK    9  A    between atoms: C_13  and  C_14
REMARK   10  A    between atoms: C_14  and  O_15
REMARK   11  A    between atoms: C_22  and  O_23
REMARK                            x       y       z     vdW  Elec       q    Type
REMARK                         _______ _______ _______ _____ _____    ______ ____
ROOT
ATOM      1  C   UNL     1       3.441   3.935  20.065  0.00  0.00    +0.000 A 
ATOM      2  C   UNL     1       4.462   3.307  19.289  0.00  0.00    +0.000 A 
ATOM      3  C   UNL     1       5.169   3.913  18.267  0.00  0.00    +0.000 A 
ATOM      4  C   UNL     1       4.722   5.151  17.868  0.00  0.00    +0.000 A 
ATOM      5  C   UNL     1       5.018   5.994  16.783  0.00  0.00    +0.000 A 
ATOM      6  N   UNL     1       4.291   7.117  16.813  0.00  0.00    +0.000 NA
ATOM      7  N   UNL     1       3.523   6.970  17.921  0.00  0.00    +0.000 N 
ATOM      8  C   UNL     1       2.608   7.924  18.365  0.00  0.00    +0.000 A 
ATOM      9  C   UNL     1       2.453   9.098  17.592  0.00  0.00    +0.000 A 
ATOM     10  C   UNL     1       1.612  10.100  18.042  0.00  0.00    +0.000 A 
ATOM     11  C   UNL     1       0.965   9.932  19.269  0.00  0.00    +0.000 A 
ATOM     12  C   UNL     1       1.121   8.745  20.018  0.00  0.00    +0.000 A 
ATOM     13  C   UNL     1       1.921   7.679  19.574  0.00  0.00    +0.000 A 
ATOM     14  C   UNL     1       2.110   6.305  20.322  0.00  0.00    +0.000 A 
ATOM     15  O   UNL     1       1.503   6.059  21.354  0.00  0.00    +0.000 OA
ATOM     16  C   UNL     1       3.068   5.283  19.713  0.00  0.00    +0.000 A 
ATOM     17  C   UNL     1       3.726   5.788  18.578  0.00  0.00    +0.000 A 
ENDROOT
BRANCH   1  18
ATOM     18  N   UNL     1       2.821   3.127  21.080  0.00  0.00    +0.000 N 
ATOM     19  H   UNL     1       2.531   3.715  21.866  0.00  0.00    +0.000 HD
BRANCH  18  20
ATOM     20  C   UNL     1       1.675   2.290  20.609  0.00  0.00    +0.000 C 
BRANCH  20  21
ATOM     21  C   UNL     1       0.836   2.816  19.436  0.00  0.00    +0.000 C 
BRANCH  21  22
ATOM     22  N   UNL     1       0.945   1.993  18.223  0.00  0.00    +0.000 NA
ATOM     23  H   UNL     1       0.279   2.346  17.534  0.00  0.00    +0.000 HD
ATOM     24  H   UNL     1       0.635   1.040  18.426  0.00  0.00    +0.000 HD
ENDBRANCH  21  22
ENDBRANCH  20  21
ENDBRANCH  18  20
ENDBRANCH   1  18
BRANCH  12  25
ATOM     25  O   UNL     1       0.466   8.709  21.230  0.00  0.00    +0.000 OA
ATOM     26  H   UNL     1      -0.487   8.752  21.102  0.00  0.00    +0.000 HD
ENDBRANCH  12  25
BRANCH   5  27
ATOM     27  C   UNL     1       5.976   5.675  15.680  0.00  0.00    +0.000 C 
BRANCH  27  28
ATOM     28  N   UNL     1       5.372   4.807  14.671  0.00  0.00    +0.000 NA
ATOM     29  H   UNL     1       5.145   5.406  13.874  0.00  0.00    +0.000 HD
BRANCH  28  30
ATOM     30  C   UNL     1       6.280   3.754  14.215  0.00  0.00    +0.000 C 
BRANCH  30  31
ATOM     31  C   UNL     1       6.413   3.887  12.705  0.00  0.00    +0.000 C 
BRANCH  31  32
ATOM     32  C   UNL     1       5.386   3.041  11.970  0.00  0.00    +0.000 C 
BRANCH  32  33
ATOM     33  O   UNL     1       5.933   1.757  11.700  0.00  0.00    +0.000 OA
ATOM     34  H   UNL     1       6.251   1.762  10.781  0.00  0.00    +0.000 HD
ENDBRANCH  32  33
ENDBRANCH  31  32
ENDBRANCH  30  31
ENDBRANCH  28  30
ENDBRANCH  27  28
ENDBRANCH   5  27
TORSDOF 11
ENDMDL
MODEL 3
REMARK VINA RESULT:      -6.6      2.333      5.955
REMARK  Name = 
REMARK  11 active torsions:
REMARK  status: ('A' for Active; 'I' for Inactive)
REMARK    1  A    between atoms: N_1  and  C_2
REMARK    2  A    between atoms: C_2  and  C_3
REMARK    3  A    between atoms: C_3  and  N_4
REMARK    4  A    between atoms: N_4  and  C_5
REMARK    5  A    between atoms: C_9  and  C_10
REMARK    6  A    between atoms: C_10  and  N_11
REMARK    7  A    between atoms: N_11  and  C_12
REMARK    8  A    between atoms: C_12  and  C_13
REMARK    9  A    between atoms: C_13  and  C_14
REMARK   10  A    between atoms: C_14  and  O_15
REMARK   11  A    between atoms: C_22  and  O_23
REMARK                            x       y       z     vdW  Elec       q    Type
REMARK                         _______ _______ _______ _____ _____    ______ ____
ROOT
ATOM      1  C   UNL     1       3.154   4.094  20.085  0.00  0.00    +0.000 A 
ATOM      2  C   UNL     1       4.222   3.491  19.354  0.00  0.00    +0.000 A 
ATOM      3  C   UNL     1       4.997   4.132  18.405  0.00  0.00    +0.000 A 
ATOM      4  C   UNL     1       4.581   5.387  18.025  0.00  0.00    +0.000 A 
ATOM      5  C   UNL     1       4.949   6.268  16.995  0.00  0.00    +0.000 A 
ATOM      6  N   UNL     1       4.225   7.393  17.020  0.00  0.00    +0.000 NA
ATOM      7  N   UNL     1       3.385   7.208  18.068  0.00  0.00    +0.000 N 
ATOM      8  C   UNL     1       2.446   8.149  18.488  0.00  0.00    +0.000 A 
ATOM      9  C   UNL     1       2.345   9.352  17.752  0.00  0.00    +0.000 A 
ATOM     10  C   UNL     1       1.479  10.341  18.184  0.00  0.00    +0.000 A 
ATOM     11  C   UNL     1       0.752  10.130  19.358  0.00  0.00    +0.000 A 
ATOM     12  C   UNL     1       0.855   8.915  20.070  0.00  0.00    +0.000 A 
ATOM     13  C   UNL     1       1.679   7.861  19.638  0.00  0.00    +0.000 A 
ATOM     14  C   UNL     1       1.815   6.459  20.344  0.00  0.00    +0.000 A 
ATOM     15  O   UNL     1       1.140   6.177  21.323  0.00  0.00    +0.000 OA
ATOM     16  C   UNL     1       2.809   5.456  19.761  0.00  0.00    +0.000 A 
ATOM     17  C   UNL     1       3.541   6.001  18.692  0.00  0.00    +0.000 A 
ENDROOT
BRANCH   1  18
ATOM     18  N   UNL     1       2.466   3.251  21.025  0.00  0.00    +0.000 N 
ATOM     19  H   UNL     1       2.477   3.682  21.953  0.00  0.00    +0.000 HD
BRANCH  18  20
ATOM     20  C   UNL     1       1.069   2.884  20.640  0.00  0.00    +0.000 C 
BRANCH  20  21
ATOM     21  C   UNL     1       0.771   2.653  19.152  0.00  0.00    +0.000 C 
BRANCH  21  22
ATOM     22  N   UNL     1       1.511   1.522  18.576  0.00  0.00    +0.000 NA
ATOM     23  H   UNL     1       1.157   1.353  17.633  0.00  0.00    +0.000 HD
ATOM     24  H   UNL     1       1.296   0.670  19.096  0.00  0.00    +0.000 HD
ENDBRANCH  21  22
ENDBRANCH  20  21
ENDBRANCH  18  20
ENDBRANCH   1  18
BRANCH  12  25
ATOM     25  O   UNL     1       0.121   8.836  21.234  0.00  0.00    +0.000 OA
ATOM     26  H   UNL     1       0.699   8.883  22.003  0.00  0.00    +0.000 HD
ENDBRANCH  12  25
BRANCH   5  27
ATOM     27  C   UNL     1       5.977   5.987  15.946  0.00  0.00    +0.000 C 
BRANCH  27  28
ATOM     28  N   UNL     1       7.322   6.338  16.396  0.00  0.00    +0.000 NA
ATOM     29  H   UNL     1       7.847   6.601  15.559  0.00  0.00    +0.000 HD
BRANCH  28  30
ATOM     30  C   UNL     1       7.332   7.469  17.324  0.00  0.00    +0.000 C 
BRANCH  30  31
ATOM     31  C   UNL     1       8.293   7.126  18.453  0.00  0.00    +0.000 C 
BRANCH  31  32
ATOM     32  C   UNL     1       7.834   5.908  19.237  0.00  0.00    +0.000 C 
BRANCH  32  33
ATOM     33  O   UNL     1       8.266   4.726  18.577  0.00  0.00    +0.000 OA
ATOM     34  H   UNL     1       7.476   4.192  18.387  0.00  0.00    +0.000 HD
ENDBRANCH  32  33
ENDBRANCH  31  32
ENDBRANCH  30  31
ENDBRANCH  28  30
ENDBRANCH  27  28
ENDBRANCH   5  27
TORSDOF 11
ENDMDL
MODEL 4
REMARK VINA RESULT:      -6.6      1.293      1.459
REMARK  Name = 
REMARK  11 active torsions:
REMARK  status: ('A' for Active; 'I' for Inactive)
REMARK    1  A    between atoms: N_1  and  C_2
REMARK    2  A    between atoms: C_2  and  C_3
REMARK    3  A    between atoms: C_3  and  N_4
REMARK    4  A    between atoms: N_4  and  C_5
REMARK    5  A    between atoms: C_9  and  C_10
REMARK    6  A    between atoms: C_10  and  N_11
REMARK    7  A    between atoms: N_11  and  C_12
REMARK    8  A    between atoms: C_12  and  C_13
REMARK    9  A    between atoms: C_13  and  C_14
REMARK   10  A    between atoms: C_14  and  O_15
REMARK   11  A    between atoms: C_22  and  O_23
REMARK                            x       y       z     vdW  Elec       q    Type
REMARK                         _______ _______ _______ _____ _____    ______ ____
ROOT
ATOM      1  C   UNL     1       2.383   5.069  20.429  0.00  0.00    +0.000 A 
ATOM      2  C   UNL     1       1.644   6.220  20.836  0.00  0.00    +0.000 A 
ATOM      3  C   UNL     1       1.512   7.382  20.097  0.00  0.00    +0.000 A 
ATOM      4  C   UNL     1       2.301   7.483  18.975  0.00  0.00    +0.000 A 
ATOM      5  C   UNL     1       2.610   8.528  18.088  0.00  0.00    +0.000 A 
ATOM      6  N   UNL     1       3.465   8.136  17.136  0.00  0.00    +0.000 NA
ATOM      7  N   UNL     1       3.704   6.836  17.438  0.00  0.00    +0.000 N 
ATOM      8  C   UNL     1       4.537   6.005  16.690  0.00  0.00    +0.000 A 
ATOM      9  C   UNL     1       5.195   6.565  15.571  0.00  0.00    +0.000 A 
ATOM     10  C   UNL     1       5.968   5.753  14.761  0.00  0.00    +0.000 A 
ATOM     11  C   UNL     1       6.048   4.390  15.059  0.00  0.00    +0.000 A 
ATOM     12  C   UNL     1       5.396   3.853  16.191  0.00  0.00    +0.000 A 
ATOM     13  C   UNL     1       4.646   4.649  17.072  0.00  0.00    +0.000 A 
ATOM     14  C   UNL     1       3.929   4.140  18.380  0.00  0.00    +0.000 A 
ATOM     15  O   UNL     1       4.034   2.979  18.746  0.00  0.00    +0.000 OA
ATOM     16  C   UNL     1       3.108   5.145  19.185  0.00  0.00    +0.000 A 
ATOM     17  C   UNL     1       3.046   6.401  18.555  0.00  0.00    +0.000 A 
ENDROOT
BRANCH   1  18
ATOM     18  N   UNL     1       2.401   3.963  21.348  0.00  0.00    +0.000 N 
ATOM     19  H   UNL     1       2.363   4.309  22.311  0.00  0.00    +0.000 HD
BRANCH  18  20
ATOM     20  C   UNL     1       1.337   2.938  21.124  0.00  0.00    +0.000 C 
BRANCH  20  21
ATOM     21  C   UNL     1       0.729   2.829  19.719  0.00  0.00    +0.000 C 
BRANCH  21  22
ATOM     22  N   UNL     1       1.326   1.762  18.903  0.00  0.00    +0.000 NA
ATOM     23  H   UNL     1       1.064   1.917  17.929  0.00  0.00    +0.000 HD
ATOM     24  H   UNL     1       0.907   0.864  19.152  0.00  0.00    +0.000 HD
ENDBRANCH  21  22
ENDBRANCH  20  21
ENDBRANCH  18  20
ENDBRANCH   1  18
BRANCH  12  25
ATOM     25  O   UNL     1       5.513   2.490  16.361  0.00  0.00    +0.000 OA
ATOM     26  H   UNL     1       6.268   2.150  15.870  0.00  0.00    +0.000 HD
ENDBRANCH  12  25
BRANCH   5  27
ATOM     27  C   UNL     1       2.111   9.933  18.204  0.00  0.00    +0.000 C 
BRANCH  27  28
ATOM     28  N   UNL     1       0.671  10.017  17.975  0.00  0.00    +0.000 NA
ATOM     29  H   UNL     1       0.283   9.108  18.238  0.00  0.00    +0.000 HD
BRANCH  28  30
ATOM     30  C   UNL     1       0.028  11.048  18.792  0.00  0.00    +0.000 C 
BRANCH  30  31
ATOM     31  C   UNL     1      -0.746  10.340  19.895  0.00  0.00    +0.000 C 
BRANCH  31  32
ATOM     32  C   UNL     1      -0.281  10.769  21.277  0.00  0.00    +0.000 C 
BRANCH  32  33
ATOM     33  O   UNL     1       1.110  11.061  21.242  0.00  0.00    +0.000 OA
ATOM     34  H   UNL     1       1.507  10.692  22.049  0.00  0.00    +0.000 HD
ENDBRANCH  32  33
ENDBRANCH  31  32
ENDBRANCH  30  31
ENDBRANCH  28  30
ENDBRANCH  27  28
ENDBRANCH   5  27
TORSDOF 11
ENDMDL
MODEL 5
REMARK VINA RESULT:      -6.5      2.346      4.985
REMARK  Name = 
REMARK  11 active torsions:
REMARK  status: ('A' for Active; 'I' for Inactive)
REMARK    1  A    between atoms: N_1  and  C_2
REMARK    2  A    between atoms: C_2  and  C_3
REMARK    3  A    between atoms: C_3  and  N_4
REMARK    4  A    between atoms: N_4  and  C_5
REMARK    5  A    between atoms: C_9  and  C_10
REMARK    6  A    between atoms: C_10  and  N_11
REMARK    7  A    between atoms: N_11  and  C_12
REMARK    8  A    between atoms: C_12  and  C_13
REMARK    9  A    between atoms: C_13  and  C_14
REMARK   10  A    between atoms: C_14  and  O_15
REMARK   11  A    between atoms: C_22  and  O_23
REMARK                            x       y       z     vdW  Elec       q    Type
REMARK                         _______ _______ _______ _____ _____    ______ ____
ROOT
ATOM      1  C   UNL     1       5.945   5.806  17.230  0.00  0.00    +0.000 A 
ATOM      2  C   UNL     1       5.687   7.089  16.659  0.00  0.00    +0.000 A 
ATOM      3  C   UNL     1       4.620   7.905  16.988  0.00  0.00    +0.000 A 
ATOM      4  C   UNL     1       3.654   7.349  17.794  0.00  0.00    +0.000 A 
ATOM      5  C   UNL     1       2.366   7.745  18.191  0.00  0.00    +0.000 A 
ATOM      6  N   UNL     1       1.789   6.837  18.986  0.00  0.00    +0.000 NA
ATOM      7  N   UNL     1       2.720   5.855  19.077  0.00  0.00    +0.000 N 
ATOM      8  C   UNL     1       2.556   4.695  19.834  0.00  0.00    +0.000 A 
ATOM      9  C   UNL     1       1.331   4.523  20.518  0.00  0.00    +0.000 A 
ATOM     10  C   UNL     1       1.162   3.423  21.340  0.00  0.00    +0.000 A 
ATOM     11  C   UNL     1       2.226   2.530  21.492  0.00  0.00    +0.000 A 
ATOM     12  C   UNL     1       3.436   2.712  20.788  0.00  0.00    +0.000 A 
ATOM     13  C   UNL     1       3.632   3.784  19.900  0.00  0.00    +0.000 A 
ATOM     14  C   UNL     1       4.929   4.032  19.040  0.00  0.00    +0.000 A 
ATOM     15  O   UNL     1       5.860   3.241  19.059  0.00  0.00    +0.000 OA
ATOM     16  C   UNL     1       4.983   5.288  18.172  0.00  0.00    +0.000 A 
ATOM     17  C   UNL     1       3.853   6.104  18.353  0.00  0.00    +0.000 A 
ENDROOT
BRANCH   1  18
ATOM     18  N   UNL     1       7.108   5.113  16.746  0.00  0.00    +0.000 N 
ATOM     19  H   UNL     1       7.608   4.681  17.528  0.00  0.00    +0.000 HD
BRANCH  18  20
ATOM     20  C   UNL     1       6.841   4.100  15.679  0.00  0.00    +0.000 C 
BRANCH  20  21
ATOM     21  C   UNL     1       6.731   4.595  14.230  0.00  0.00    +0.000 C 
BRANCH  21  22
ATOM     22  N   UNL     1       7.810   5.515  13.841  0.00  0.00    +0.000 NA
ATOM     23  H   UNL     1       7.449   6.469  13.882  0.00  0.00    +0.000 HD
ATOM     24  H   UNL     1       8.052   5.364  12.860  0.00  0.00    +0.000 HD
ENDBRANCH  21  22
ENDBRANCH  20  21
ENDBRANCH  18  20
ENDBRANCH   1  18
BRANCH  12  25
ATOM     25  O   UNL     1       4.427   1.791  21.048  0.00  0.00    +0.000 OA
ATOM     26  H   UNL     1       5.238   2.025  20.586  0.00  0.00    +0.000 HD
ENDBRANCH  12  25
BRANCH   5  27
ATOM     27  C   UNL     1       1.672   8.993  17.746  0.00  0.00    +0.000 C 
BRANCH  27  28
ATOM     28  N   UNL     1       0.604   9.377  18.666  0.00  0.00    +0.000 NA
ATOM     29  H   UNL     1       0.292   8.516  19.121  0.00  0.00    +0.000 HD
BRANCH  28  30
ATOM     30  C   UNL     1       1.056  10.310  19.699  0.00  0.00    +0.000 C 
BRANCH  30  31
ATOM     31  C   UNL     1       0.145  10.132  20.905  0.00  0.00    +0.000 C 
BRANCH  31  32
ATOM     32  C   UNL     1       0.271   8.744  21.510  0.00  0.00    +0.000 C 
BRANCH  32  33
ATOM     33  O   UNL     1       1.639   8.359  21.538  0.00  0.00    +0.000 OA
ATOM     34  H   UNL     1       2.155   9.134  21.817  0.00  0.00    +0.000 HD
ENDBRANCH  32  33
ENDBRANCH  31  32
ENDBRANCH  30  31
ENDBRANCH  28  30
ENDBRANCH  27  28
ENDBRANCH   5  27
TORSDOF 11
ENDMDL
MODEL 6
REMARK VINA RESULT:      -6.5      2.491      4.904
REMARK  Name = 
REMARK  11 active torsions:
REMARK  status: ('A' for Active; 'I' for Inactive)
REMARK    1  A    between atoms: N_1  and  C_2
REMARK    2  A    between atoms: C_2  and  C_3
REMARK    3  A    between atoms: C_3  and  N_4
REMARK    4  A    between atoms: N_4  and  C_5
REMARK    5  A    between atoms: C_9  and  C_10
REMARK    6  A    between atoms: C_10  and  N_11
REMARK    7  A    between atoms: N_11  and  C_12
REMARK    8  A    between atoms: C_12  and  C_13
REMARK    9  A    between atoms: C_13  and  C_14
REMARK   10  A    between atoms: C_14  and  O_15
REMARK   11  A    between atoms: C_22  and  O_23
REMARK                            x       y       z     vdW  Elec       q    Type
REMARK                         _______ _______ _______ _____ _____    ______ ____
ROOT
ATOM      1  C   UNL     1       5.816   5.701  17.411  0.00  0.00    +0.000 A 
ATOM      2  C   UNL     1       5.554   6.967  16.805  0.00  0.00    +0.000 A 
ATOM      3  C   UNL     1       4.460   7.768  17.079  0.00  0.00    +0.000 A 
ATOM      4  C   UNL     1       3.477   7.209  17.860  0.00  0.00    +0.000 A 
ATOM      5  C   UNL     1       2.168   7.587  18.202  0.00  0.00    +0.000 A 
ATOM      6  N   UNL     1       1.579   6.683  18.994  0.00  0.00    +0.000 NA
ATOM      7  N   UNL     1       2.525   5.722  19.139  0.00  0.00    +0.000 N 
ATOM      8  C   UNL     1       2.356   4.574  19.913  0.00  0.00    +0.000 A 
ATOM      9  C   UNL     1       1.111   4.391  20.555  0.00  0.00    +0.000 A 
ATOM     10  C   UNL     1       0.933   3.304  21.393  0.00  0.00    +0.000 A 
ATOM     11  C   UNL     1       2.008   2.436  21.602  0.00  0.00    +0.000 A 
ATOM     12  C   UNL     1       3.239   2.628  20.938  0.00  0.00    +0.000 A 
ATOM     13  C   UNL     1       3.447   3.686  20.036  0.00  0.00    +0.000 A 
ATOM     14  C   UNL     1       4.769   3.943  19.219  0.00  0.00    +0.000 A 
ATOM     15  O   UNL     1       5.714   3.172  19.287  0.00  0.00    +0.000 OA
ATOM     16  C   UNL     1       4.831   5.182  18.327  0.00  0.00    +0.000 A 
ATOM     17  C   UNL     1       3.679   5.979  18.451  0.00  0.00    +0.000 A 
ENDROOT
BRANCH   1  18
ATOM     18  N   UNL     1       7.009   5.022  16.983  0.00  0.00    +0.000 N 
ATOM     19  H   UNL     1       7.409   5.499  16.170  0.00  0.00    +0.000 HD
BRANCH  18  20
ATOM     20  C   UNL     1       8.048   4.841  18.042  0.00  0.00    +0.000 C 
BRANCH  20  21
ATOM     21  C   UNL     1       8.103   5.872  19.178  0.00  0.00    +0.000 C 
BRANCH  21  22
ATOM     22  N   UNL     1       8.106   5.267  20.518  0.00  0.00    +0.000 NA
ATOM     23  H   UNL     1       9.054   4.953  20.727  0.00  0.00    +0.000 HD
ATOM     24  H   UNL     1       7.540   4.416  20.511  0.00  0.00    +0.000 HD
ENDBRANCH  21  22
ENDBRANCH  20  21
ENDBRANCH  18  20
ENDBRANCH   1  18
BRANCH  12  25
ATOM     25  O   UNL     1       4.238   1.732  21.253  0.00  0.00    +0.000 OA
ATOM     26  H   UNL     1       4.060   0.873  20.857  0.00  0.00    +0.000 HD
ENDBRANCH  12  25
BRANCH   5  27
ATOM     27  C   UNL     1       1.467   8.811  17.707  0.00  0.00    +0.000 C 
BRANCH  27  28
ATOM     28  N   UNL     1       1.412   9.855  18.728  0.00  0.00    +0.000 NA
ATOM     29  H   UNL     1       1.649  10.732  18.258  0.00  0.00    +0.000 HD
BRANCH  28  30
ATOM     30  C   UNL     1       0.083   9.994  19.325  0.00  0.00    +0.000 C 
BRANCH  30  31
ATOM     31  C   UNL     1       0.270  10.145  20.828  0.00  0.00    +0.000 C 
BRANCH  31  32
ATOM     32  C   UNL     1       0.335   8.798  21.529  0.00  0.00    +0.000 C 
BRANCH  32  33
ATOM     33  O   UNL     1       1.673   8.318  21.516  0.00  0.00    +0.000 OA
ATOM     34  H   UNL     1       2.173   8.862  20.883  0.00  0.00    +0.000 HD
ENDBRANCH  32  33
ENDBRANCH  31  32
ENDBRANCH  30  31
ENDBRANCH  28  30
ENDBRANCH  27  28
ENDBRANCH   5  27
TORSDOF 11
ENDMDL
MODEL 7
REMARK VINA RESULT:      -6.5      2.481      5.077
REMARK  Name = 
REMARK  11 active torsions:
REMARK  status: ('A' for Active; 'I' for Inactive)
REMARK    1  A    between atoms: N_1  and  C_2
REMARK    2  A    between atoms: C_2  and  C_3
REMARK    3  A    between atoms: C_3  and  N_4
REMARK    4  A    between atoms: N_4  and  C_5
REMARK    5  A    between atoms: C_9  and  C_10
REMARK    6  A    between atoms: C_10  and  N_11
REMARK    7  A    between atoms: N_11  and  C_12
REMARK    8  A    between atoms: C_12  and  C_13
REMARK    9  A    between atoms: C_13  and  C_14
REMARK   10  A    between atoms: C_14  and  O_15
REMARK   11  A    between atoms: C_22  and  O_23
REMARK                            x       y       z     vdW  Elec       q    Type
REMARK                         _______ _______ _______ _____ _____    ______ ____
ROOT
ATOM      1  C   UNL     1       5.281   4.936  15.779  0.00  0.00    +0.000 A 
ATOM      2  C   UNL     1       5.446   6.327  15.504  0.00  0.00    +0.000 A 
ATOM      3  C   UNL     1       4.862   7.354  16.224  0.00  0.00    +0.000 A 
ATOM      4  C   UNL     1       3.919   6.985  17.155  0.00  0.00    +0.000 A 
ATOM      5  C   UNL     1       2.984   7.691  17.931  0.00  0.00    +0.000 A 
ATOM      6  N   UNL     1       2.253   6.871  18.695  0.00  0.00    +0.000 NA
ATOM      7  N   UNL     1       2.725   5.639  18.385  0.00  0.00    +0.000 N 
ATOM      8  C   UNL     1       2.262   4.459  18.966  0.00  0.00    +0.000 A 
ATOM      9  C   UNL     1       1.213   4.557  19.909  0.00  0.00    +0.000 A 
ATOM     10  C   UNL     1       0.780   3.417  20.563  0.00  0.00    +0.000 A 
ATOM     11  C   UNL     1       1.418   2.205  20.290  0.00  0.00    +0.000 A 
ATOM     12  C   UNL     1       2.453   2.126  19.333  0.00  0.00    +0.000 A 
ATOM     13  C   UNL     1       2.888   3.246  18.605  0.00  0.00    +0.000 A 
ATOM     14  C   UNL     1       3.999   3.236  17.488  0.00  0.00    +0.000 A 
ATOM     15  O   UNL     1       4.534   2.193  17.139  0.00  0.00    +0.000 OA
ATOM     16  C   UNL     1       4.381   4.567  16.844  0.00  0.00    +0.000 A 
ATOM     17  C   UNL     1       3.714   5.652  17.440  0.00  0.00    +0.000 A 
ENDROOT
BRANCH   1  18
ATOM     18  N   UNL     1       5.971   4.026  14.906  0.00  0.00    +0.000 N 
ATOM     19  H   UNL     1       6.009   3.095  15.331  0.00  0.00    +0.000 HD
BRANCH  18  20
ATOM     20  C   UNL     1       5.419   3.939  13.519  0.00  0.00    +0.000 C 
BRANCH  20  21
ATOM     21  C   UNL     1       6.367   3.500  12.395  0.00  0.00    +0.000 C 
BRANCH  21  22
ATOM     22  N   UNL     1       6.062   2.166  11.859  0.00  0.00    +0.000 NA
ATOM     23  H   UNL     1       5.114   2.182  11.479  0.00  0.00    +0.000 HD
ATOM     24  H   UNL     1       6.030   1.488  12.622  0.00  0.00    +0.000 HD
ENDBRANCH  21  22
ENDBRANCH  20  21
ENDBRANCH  18  20
ENDBRANCH   1  18
BRANCH  12  25
ATOM     25  O   UNL     1       3.035   0.886  19.178  0.00  0.00    +0.000 OA
ATOM     26  H   UNL     1       3.474   0.821  18.324  0.00  0.00    +0.000 HD
ENDBRANCH  12  25
BRANCH   5  27
ATOM     27  C   UNL     1       2.766   9.169  17.884  0.00  0.00    +0.000 C 
BRANCH  27  28
ATOM     28  N   UNL     1       1.344   9.507  17.874  0.00  0.00    +0.000 NA
ATOM     29  H   UNL     1       0.838   8.628  18.000  0.00  0.00    +0.000 HD
BRANCH  28  30
ATOM     30  C   UNL     1       0.971  10.417  18.958  0.00  0.00    +0.000 C 
BRANCH  30  31
ATOM     31  C   UNL     1       0.277   9.589  20.031  0.00  0.00    +0.000 C 
BRANCH  31  32
ATOM     32  C   UNL     1       1.147   9.422  21.266  0.00  0.00    +0.000 C 
BRANCH  32  33
ATOM     33  O   UNL     1       1.631   8.087  21.330  0.00  0.00    +0.000 OA
ATOM     34  H   UNL     1       0.937   7.544  21.741  0.00  0.00    +0.000 HD
ENDBRANCH  32  33
ENDBRANCH  31  32
ENDBRANCH  30  31
ENDBRANCH  28  30
ENDBRANCH  27  28
ENDBRANCH   5  27
TORSDOF 11
ENDMDL
MODEL 8
REMARK VINA RESULT:      -6.5      0.958      1.088
REMARK  Name = 
REMARK  11 active torsions:
REMARK  status: ('A' for Active; 'I' for Inactive)
REMARK    1  A    between atoms: N_1  and  C_2
REMARK    2  A    between atoms: C_2  and  C_3
REMARK    3  A    between atoms: C_3  and  N_4
REMARK    4  A    between atoms: N_4  and  C_5
REMARK    5  A    between atoms: C_9  and  C_10
REMARK    6  A    between atoms: C_10  and  N_11
REMARK    7  A    between atoms: N_11  and  C_12
REMARK    8  A    between atoms: C_12  and  C_13
REMARK    9  A    between atoms: C_13  and  C_14
REMARK   10  A    between atoms: C_14  and  O_15
REMARK   11  A    between atoms: C_22  and  O_23
REMARK                            x       y       z     vdW  Elec       q    Type
REMARK                         _______ _______ _______ _____ _____    ______ ____
ROOT
ATOM      1  C   UNL     1       2.372   5.087  20.526  0.00  0.00    +0.000 A 
ATOM      2  C   UNL     1       1.583   6.197  20.956  0.00  0.00    +0.000 A 
ATOM      3  C   UNL     1       1.393   7.363  20.236  0.00  0.00    +0.000 A 
ATOM      4  C   UNL     1       2.168   7.516  19.110  0.00  0.00    +0.000 A 
ATOM      5  C   UNL     1       2.422   8.588  18.238  0.00  0.00    +0.000 A 
ATOM      6  N   UNL     1       3.286   8.250  17.273  0.00  0.00    +0.000 NA
ATOM      7  N   UNL     1       3.587   6.958  17.553  0.00  0.00    +0.000 N 
ATOM      8  C   UNL     1       4.452   6.177  16.787  0.00  0.00    +0.000 A 
ATOM      9  C   UNL     1       5.074   6.784  15.672  0.00  0.00    +0.000 A 
ATOM     10  C   UNL     1       5.877   6.021  14.844  0.00  0.00    +0.000 A 
ATOM     11  C   UNL     1       6.022   4.659  15.121  0.00  0.00    +0.000 A 
ATOM     12  C   UNL     1       5.404   4.075  16.248  0.00  0.00    +0.000 A 
ATOM     13  C   UNL     1       4.625   4.823  17.147  0.00  0.00    +0.000 A 
ATOM     14  C   UNL     1       3.943   4.262  18.452  0.00  0.00    +0.000 A 
ATOM     15  O   UNL     1       4.104   3.101  18.799  0.00  0.00    +0.000 OA
ATOM     16  C   UNL     1       3.082   5.216  19.278  0.00  0.00    +0.000 A 
ATOM     17  C   UNL     1       2.958   6.476  18.668  0.00  0.00    +0.000 A 
ENDROOT
BRANCH   1  18
ATOM     18  N   UNL     1       2.447   3.970  21.428  0.00  0.00    +0.000 N 
ATOM     19  H   UNL     1       2.503   4.304  22.394  0.00  0.00    +0.000 HD
BRANCH  18  20
ATOM     20  C   UNL     1       1.346   2.969  21.288  0.00  0.00    +0.000 C 
BRANCH  20  21
ATOM     21  C   UNL     1       0.802   2.692  19.880  0.00  0.00    +0.000 C 
BRANCH  21  22
ATOM     22  N   UNL     1       1.572   1.679  19.144  0.00  0.00    +0.000 NA
ATOM     23  H   UNL     1       1.467   1.860  18.145  0.00  0.00    +0.000 HD
ATOM     24  H   UNL     1       1.158   0.757  19.293  0.00  0.00    +0.000 HD
ENDBRANCH  21  22
ENDBRANCH  20  21
ENDBRANCH  18  20
ENDBRANCH   1  18
BRANCH  12  25
ATOM     25  O   UNL     1       5.585   2.716  16.396  0.00  0.00    +0.000 OA
ATOM     26  H   UNL     1       4.745   2.280  16.572  0.00  0.00    +0.000 HD
ENDBRANCH  12  25
BRANCH   5  27
ATOM     27  C   UNL     1       1.860   9.966  18.378  0.00  0.00    +0.000 C 
BRANCH  27  28
ATOM     28  N   UNL     1       0.544  10.082  17.754  0.00  0.00    +0.000 NA
ATOM     29  H   UNL     1       0.391   9.212  17.239  0.00  0.00    +0.000 HD
BRANCH  28  30
ATOM     30  C   UNL     1      -0.535  10.238  18.731  0.00  0.00    +0.000 C 
BRANCH  30  31
ATOM     31  C   UNL     1      -0.383  11.615  19.363  0.00  0.00    +0.000 C 
BRANCH  31  32
ATOM     32  C   UNL     1      -0.745  12.726  18.391  0.00  0.00    +0.000 C 
BRANCH  32  33
ATOM     33  O   UNL     1      -1.270  13.835  19.109  0.00  0.00    +0.000 OA
ATOM     34  H   UNL     1      -2.042  14.162  18.617  0.00  0.00    +0.000 HD
ENDBRANCH  32  33
ENDBRANCH  31  32
ENDBRANCH  30  31
ENDBRANCH  28  30
ENDBRANCH  27  28
ENDBRANCH   5  27
TORSDOF 11
ENDMDL
MODEL 9
REMARK VINA RESULT:      -6.5      2.123      6.157
REMARK  Name = 
REMARK  11 active torsions:
REMARK  status: ('A' for Active; 'I' for Inactive)
REMARK    1  A    between atoms: N_1  and  C_2
REMARK    2  A    between atoms: C_2  and  C_3
REMARK    3  A    between atoms: C_3  and  N_4
REMARK    4  A    between atoms: N_4  and  C_5
REMARK    5  A    between atoms: C_9  and  C_10
REMARK    6  A    between atoms: C_10  and  N_11
REMARK    7  A    between atoms: N_11  and  C_12
REMARK    8  A    between atoms: C_12  and  C_13
REMARK    9  A    between atoms: C_13  and  C_14
REMARK   10  A    between atoms: C_14  and  O_15
REMARK   11  A    between atoms: C_22  and  O_23
REMARK                            x       y       z     vdW  Elec       q    Type
REMARK                         _______ _______ _______ _____ _____    ______ ____
ROOT
ATOM      1  C   UNL     1       2.990   4.543  20.140  0.00  0.00    +0.000 A 
ATOM      2  C   UNL     1       3.947   3.895  19.303  0.00  0.00    +0.000 A 
ATOM      3  C   UNL     1       4.611   4.492  18.246  0.00  0.00    +0.000 A 
ATOM      4  C   UNL     1       4.174   5.744  17.882  0.00  0.00    +0.000 A 
ATOM      5  C   UNL     1       4.429   6.587  16.788  0.00  0.00    +0.000 A 
ATOM      6  N   UNL     1       3.735   7.729  16.867  0.00  0.00    +0.000 NA
ATOM      7  N   UNL     1       3.028   7.593  18.016  0.00  0.00    +0.000 N 
ATOM      8  C   UNL     1       2.165   8.566  18.519  0.00  0.00    +0.000 A 
ATOM      9  C   UNL     1       1.996   9.749  17.764  0.00  0.00    +0.000 A 
ATOM     10  C   UNL     1       1.210  10.770  18.269  0.00  0.00    +0.000 A 
ATOM     11  C   UNL     1       0.630  10.608  19.529  0.00  0.00    +0.000 A 
ATOM     12  C   UNL     1       0.797   9.411  20.260  0.00  0.00    +0.000 A 
ATOM     13  C   UNL     1       1.542   8.328  19.763  0.00  0.00    +0.000 A 
ATOM     14  C   UNL     1       1.738   6.944  20.490  0.00  0.00    +0.000 A 
ATOM     15  O   UNL     1       1.184   6.704  21.553  0.00  0.00    +0.000 OA
ATOM     16  C   UNL     1       2.633   5.903  19.820  0.00  0.00    +0.000 A 
ATOM     17  C   UNL     1       3.237   6.400  18.652  0.00  0.00    +0.000 A 
ENDROOT
BRANCH   1  18
ATOM     18  N   UNL     1       2.408   3.742  21.183  0.00  0.00    +0.000 N 
ATOM     19  H   UNL     1       1.845   4.332  21.803  0.00  0.00    +0.000 HD
BRANCH  18  20
ATOM     20  C   UNL     1       1.604   2.574  20.710  0.00  0.00    +0.000 C 
BRANCH  20  21
ATOM     21  C   UNL     1       0.635   2.795  19.541  0.00  0.00    +0.000 C 
BRANCH  21  22
ATOM     22  N   UNL     1       0.922   1.949  18.374  0.00  0.00    +0.000 NA
ATOM     23  H   UNL     1       0.831   2.520  17.532  0.00  0.00    +0.000 HD
ATOM     24  H   UNL     1       0.202   1.230  18.286  0.00  0.00    +0.000 HD
ENDBRANCH  21  22
ENDBRANCH  20  21
ENDBRANCH  18  20
ENDBRANCH   1  18
BRANCH  12  25
ATOM     25  O   UNL     1       0.212   9.382  21.508  0.00  0.00    +0.000 OA
ATOM     26  H   UNL     1       0.034   8.475  21.777  0.00  0.00    +0.000 HD
ENDBRANCH  12  25
BRANCH   5  27
ATOM     27  C   UNL     1       5.313   6.254  15.629  0.00  0.00    +0.000 C 
BRANCH  27  28
ATOM     28  N   UNL     1       6.669   5.919  16.060  0.00  0.00    +0.000 NA
ATOM     29  H   UNL     1       6.638   5.846  17.080  0.00  0.00    +0.000 HD
BRANCH  28  30
ATOM     30  C   UNL     1       7.136   4.642  15.518  0.00  0.00    +0.000 C 
BRANCH  30  31
ATOM     31  C   UNL     1       6.067   4.133  14.562  0.00  0.00    +0.000 C 
BRANCH  31  32
ATOM     32  C   UNL     1       6.594   3.996  13.144  0.00  0.00    +0.000 C 
BRANCH  32  33
ATOM     33  O   UNL     1       6.179   2.750  12.599  0.00  0.00    +0.000 OA
ATOM     34  H   UNL     1       6.697   2.597  11.791  0.00  0.00    +0.000 HD
ENDBRANCH  32  33
ENDBRANCH  31  32
ENDBRANCH  30  31
ENDBRANCH  28  30
ENDBRANCH  27  28
ENDBRANCH   5  27
TORSDOF 11
ENDMDL
