MODEL 1
REMARK VINA RESULT:      -8.6      0.000      0.000
REMARK  Name = 
REMARK  2 active torsions:
REMARK  status: ('A' for Active; 'I' for Inactive)
REMARK    1  A    between atoms: C_1  and  C_2
REMARK    2  A    between atoms: C_7  and  N_8
REMARK                            x       y       z     vdW  Elec       q    Type
REMARK                         _______ _______ _______ _____ _____    ______ ____
ROOT
ATOM      1  N   UNL     1       3.126   7.108  19.231  0.00  0.00    +0.000 N 
ATOM      2  C   UNL     1       2.960   5.725  18.892  0.00  0.00    +0.000 A 
ATOM      3  N   UNL     1       1.969   5.071  19.565  0.00  0.00    +0.000 NA
ATOM      4  C   UNL     1       1.717   3.844  19.055  0.00  0.00    +0.000 A 
ATOM      5  N   UNL     1       0.763   3.003  19.452  0.00  0.00    +0.000 NA
ATOM      6  O   UNL     1       0.884   1.911  18.594  0.00  0.00    +0.000 OA
ATOM      7  N   UNL     1       1.927   2.075  17.682  0.00  0.00    +0.000 NA
ATOM      8  C   UNL     1       2.445   3.270  17.972  0.00  0.00    +0.000 A 
ATOM      9  N   UNL     1       3.493   3.874  17.354  0.00  0.00    +0.000 NA
ATOM     10  C   UNL     1       3.763   5.124  17.840  0.00  0.00    +0.000 A 
ATOM     11  N   UNL     1       4.831   5.755  17.230  0.00  0.00    +0.000 N 
ATOM     12  C   UNL     1       5.125   5.506  15.808  0.00  0.00    +0.000 C 
ATOM     13  C   UNL     1       6.617   5.192  15.610  0.00  0.00    +0.000 C 
ATOM     14  O   UNL     1       7.453   6.206  16.193  0.00  0.00    +0.000 OA
ATOM     15  C   UNL     1       7.201   6.296  17.600  0.00  0.00    +0.000 C 
ATOM     16  C   UNL     1       5.743   6.685  17.893  0.00  0.00    +0.000 C 
ATOM     17  H   UNL     1       3.938   7.191  19.828  0.00  0.00    +0.000 HD
ENDROOT
BRANCH   1  24
ATOM     18  C   UNL     1       1.932   9.229  17.508  0.00  0.00    +0.000 C 
ATOM     19  C   UNL     1       1.507   8.964  18.926  0.00  0.00    +0.000 A 
ATOM     20  C   UNL     1       0.514   9.784  19.493  0.00  0.00    +0.000 A 
ATOM     21  C   UNL     1       0.032   9.550  20.780  0.00  0.00    +0.000 A 
ATOM     22  C   UNL     1       0.495   8.461  21.503  0.00  0.00    +0.000 A 
ATOM     23  C   UNL     1       1.478   7.647  20.955  0.00  0.00    +0.000 A 
ATOM     24  C   UNL     1       2.061   7.928  19.705  0.00  0.00    +0.000 A 
ENDBRANCH   1  24
TORSDOF 1
ENDMDL
MODEL 2
REMARK VINA RESULT:      -8.3      2.089      5.655
REMARK  Name = 
REMARK  2 active torsions:
REMARK  status: ('A' for Active; 'I' for Inactive)
REMARK    1  A    between atoms: C_1  and  C_2
REMARK    2  A    between atoms: C_7  and  N_8
REMARK                            x       y       z     vdW  Elec       q    Type
REMARK                         _______ _______ _______ _____ _____    ______ ____
ROOT
ATOM      1  N   UNL     1       3.855   6.161  17.425  0.00  0.00    +0.000 N 
ATOM      2  C   UNL     1       2.974   5.449  18.304  0.00  0.00    +0.000 A 
ATOM      3  N   UNL     1       2.991   4.089  18.176  0.00  0.00    +0.000 NA
ATOM      4  C   UNL     1       2.311   3.466  19.165  0.00  0.00    +0.000 A 
ATOM      5  N   UNL     1       2.211   2.151  19.348  0.00  0.00    +0.000 NA
ATOM      6  O   UNL     1       1.459   2.019  20.514  0.00  0.00    +0.000 OA
ATOM      7  N   UNL     1       1.080   3.257  21.035  0.00  0.00    +0.000 NA
ATOM      8  C   UNL     1       1.605   4.152  20.196  0.00  0.00    +0.000 A 
ATOM      9  N   UNL     1       1.505   5.504  20.281  0.00  0.00    +0.000 NA
ATOM     10  C   UNL     1       2.194   6.162  19.301  0.00  0.00    +0.000 A 
ATOM     11  N   UNL     1       2.101   7.540  19.365  0.00  0.00    +0.000 N 
ATOM     12  C   UNL     1       1.972   8.214  20.668  0.00  0.00    +0.000 C 
ATOM     13  C   UNL     1       0.825   9.238  20.638  0.00  0.00    +0.000 C 
ATOM     14  O   UNL     1       0.961  10.153  19.537  0.00  0.00    +0.000 OA
ATOM     15  C   UNL     1       0.947   9.432  18.299  0.00  0.00    +0.000 C 
ATOM     16  C   UNL     1       2.112   8.433  18.208  0.00  0.00    +0.000 C 
ATOM     17  H   UNL     1       3.301   6.561  16.680  0.00  0.00    +0.000 HD
ENDROOT
BRANCH   1  24
ATOM     18  C   UNL     1       6.106   5.447  19.247  0.00  0.00    +0.000 C 
ATOM     19  C   UNL     1       6.159   5.300  17.752  0.00  0.00    +0.000 A 
ATOM     20  C   UNL     1       7.351   4.832  17.168  0.00  0.00    +0.000 A 
ATOM     21  C   UNL     1       7.443   4.613  15.794  0.00  0.00    +0.000 A 
ATOM     22  C   UNL     1       6.332   4.806  14.987  0.00  0.00    +0.000 A 
ATOM     23  C   UNL     1       5.152   5.270  15.553  0.00  0.00    +0.000 A 
ATOM     24  C   UNL     1       5.066   5.607  16.918  0.00  0.00    +0.000 A 
ENDBRANCH   1  24
TORSDOF 1
ENDMDL
MODEL 3
REMARK VINA RESULT:      -8.3      0.619      1.515
REMARK  Name = 
REMARK  2 active torsions:
REMARK  status: ('A' for Active; 'I' for Inactive)
REMARK    1  A    between atoms: C_1  and  C_2
REMARK    2  A    between atoms: C_7  and  N_8
REMARK                            x       y       z     vdW  Elec       q    Type
REMARK                         _______ _______ _______ _____ _____    ______ ____
ROOT
ATOM      1  N   UNL     1       3.053   7.466  18.531  0.00  0.00    +0.000 N 
ATOM      2  C   UNL     1       2.924   6.045  18.402  0.00  0.00    +0.000 A 
ATOM      3  N   UNL     1       1.892   5.484  19.098  0.00  0.00    +0.000 NA
ATOM      4  C   UNL     1       1.689   4.187  18.770  0.00  0.00    +0.000 A 
ATOM      5  N   UNL     1       0.716   3.400  19.225  0.00  0.00    +0.000 NA
ATOM      6  O   UNL     1       0.907   2.191  18.560  0.00  0.00    +0.000 OA
ATOM      7  N   UNL     1       2.013   2.232  17.709  0.00  0.00    +0.000 NA
ATOM      8  C   UNL     1       2.498   3.467  17.844  0.00  0.00    +0.000 A 
ATOM      9  N   UNL     1       3.583   3.988  17.215  0.00  0.00    +0.000 NA
ATOM     10  C   UNL     1       3.806   5.304  17.516  0.00  0.00    +0.000 A 
ATOM     11  N   UNL     1       4.910   5.853  16.891  0.00  0.00    +0.000 N 
ATOM     12  C   UNL     1       5.309   5.391  15.550  0.00  0.00    +0.000 C 
ATOM     13  C   UNL     1       6.814   5.079  15.509  0.00  0.00    +0.000 C 
ATOM     14  O   UNL     1       7.597   6.188  15.983  0.00  0.00    +0.000 OA
ATOM     15  C   UNL     1       7.242   6.492  17.338  0.00  0.00    +0.000 C 
ATOM     16  C   UNL     1       5.764   6.893  17.463  0.00  0.00    +0.000 C 
ATOM     17  H   UNL     1       3.819   7.657  19.163  0.00  0.00    +0.000 HD
ENDROOT
BRANCH   1  24
ATOM     18  C   UNL     1       2.023   7.848  21.304  0.00  0.00    +0.000 C 
ATOM     19  C   UNL     1       1.418   8.495  20.089  0.00  0.00    +0.000 A 
ATOM     20  C   UNL     1       0.277   9.300  20.257  0.00  0.00    +0.000 A 
ATOM     21  C   UNL     1      -0.294   9.979  19.180  0.00  0.00    +0.000 A 
ATOM     22  C   UNL     1       0.297   9.907  17.928  0.00  0.00    +0.000 A 
ATOM     23  C   UNL     1       1.422   9.112  17.750  0.00  0.00    +0.000 A 
ATOM     24  C   UNL     1       1.950   8.329  18.794  0.00  0.00    +0.000 A 
ENDBRANCH   1  24
TORSDOF 1
ENDMDL
MODEL 4
REMARK VINA RESULT:      -8.1      2.180      5.554
REMARK  Name = 
REMARK  2 active torsions:
REMARK  status: ('A' for Active; 'I' for Inactive)
REMARK    1  A    between atoms: C_1  and  C_2
REMARK    2  A    between atoms: C_7  and  N_8
REMARK                            x       y       z     vdW  Elec       q    Type
REMARK                         _______ _______ _______ _____ _____    ______ ____
ROOT
ATOM      1  N   UNL     1       4.253   6.215  18.035  0.00  0.00    +0.000 N 
ATOM      2  C   UNL     1       3.251   5.522  18.791  0.00  0.00    +0.000 A 
ATOM      3  N   UNL     1       3.346   4.160  18.780  0.00  0.00    +0.000 NA
ATOM      4  C   UNL     1       2.518   3.573  19.674  0.00  0.00    +0.000 A 
ATOM      5  N   UNL     1       2.438   2.272  19.942  0.00  0.00    +0.000 NA
ATOM      6  O   UNL     1       1.485   2.184  20.956  0.00  0.00    +0.000 OA
ATOM      7  N   UNL     1       0.966   3.434  21.295  0.00  0.00    +0.000 NA
ATOM      8  C   UNL     1       1.604   4.293  20.498  0.00  0.00    +0.000 A 
ATOM      9  N   UNL     1       1.435   5.640  20.452  0.00  0.00    +0.000 NA
ATOM     10  C   UNL     1       2.270   6.262  19.565  0.00  0.00    +0.000 A 
ATOM     11  N   UNL     1       2.110   7.634  19.498  0.00  0.00    +0.000 N 
ATOM     12  C   UNL     1       1.711   8.393  20.696  0.00  0.00    +0.000 C 
ATOM     13  C   UNL     1       0.551   9.348  20.371  0.00  0.00    +0.000 C 
ATOM     14  O   UNL     1       0.855  10.186  19.243  0.00  0.00    +0.000 OA
ATOM     15  C   UNL     1       1.103   9.377  18.087  0.00  0.00    +0.000 C 
ATOM     16  C   UNL     1       2.304   8.440  18.294  0.00  0.00    +0.000 C 
ATOM     17  H   UNL     1       3.834   6.529  17.170  0.00  0.00    +0.000 HD
ENDROOT
BRANCH   1  24
ATOM     18  C   UNL     1       5.124   5.381  15.307  0.00  0.00    +0.000 C 
ATOM     19  C   UNL     1       5.981   5.254  16.536  0.00  0.00    +0.000 A 
ATOM     20  C   UNL     1       7.256   4.674  16.405  0.00  0.00    +0.000 A 
ATOM     21  C   UNL     1       8.124   4.585  17.494  0.00  0.00    +0.000 A 
ATOM     22  C   UNL     1       7.753   5.121  18.718  0.00  0.00    +0.000 A 
ATOM     23  C   UNL     1       6.495   5.692  18.859  0.00  0.00    +0.000 A 
ATOM     24  C   UNL     1       5.559   5.693  17.807  0.00  0.00    +0.000 A 
ENDBRANCH   1  24
TORSDOF 1
ENDMDL
MODEL 5
REMARK VINA RESULT:      -7.9      1.479      4.714
REMARK  Name = 
REMARK  2 active torsions:
REMARK  status: ('A' for Active; 'I' for Inactive)
REMARK    1  A    between atoms: C_1  and  C_2
REMARK    2  A    between atoms: C_7  and  N_8
REMARK                            x       y       z     vdW  Elec       q    Type
REMARK                         _______ _______ _______ _____ _____    ______ ____
ROOT
ATOM      1  N   UNL     1       2.348   6.714  18.337  0.00  0.00    +0.000 N 
ATOM      2  C   UNL     1       3.680   6.333  17.970  0.00  0.00    +0.000 A 
ATOM      3  N   UNL     1       4.427   7.309  17.376  0.00  0.00    +0.000 NA
ATOM      4  C   UNL     1       5.729   6.963  17.250  0.00  0.00    +0.000 A 
ATOM      5  N   UNL     1       6.709   7.732  16.778  0.00  0.00    +0.000 NA
ATOM      6  O   UNL     1       7.854   6.947  16.898  0.00  0.00    +0.000 OA
ATOM      7  N   UNL     1       7.572   5.687  17.428  0.00  0.00    +0.000 NA
ATOM      8  C   UNL     1       6.255   5.697  17.641  0.00  0.00    +0.000 A 
ATOM      9  N   UNL     1       5.504   4.685  18.148  0.00  0.00    +0.000 NA
ATOM     10  C   UNL     1       4.184   5.010  18.300  0.00  0.00    +0.000 A 
ATOM     11  N   UNL     1       3.401   3.992  18.809  0.00  0.00    +0.000 N 
ATOM     12  C   UNL     1       3.971   3.024  19.762  0.00  0.00    +0.000 C 
ATOM     13  C   UNL     1       3.633   1.584  19.341  0.00  0.00    +0.000 C 
ATOM     14  O   UNL     1       2.221   1.411  19.133  0.00  0.00    +0.000 OA
ATOM     15  C   UNL     1       1.768   2.295  18.100  0.00  0.00    +0.000 C 
ATOM     16  C   UNL     1       1.996   3.769  18.472  0.00  0.00    +0.000 C 
ATOM     17  H   UNL     1       1.710   6.321  17.660  0.00  0.00    +0.000 HD
ENDROOT
BRANCH   1  24
ATOM     18  C   UNL     1       1.412   7.428  21.077  0.00  0.00    +0.000 C 
ATOM     19  C   UNL     1       1.498   8.408  19.939  0.00  0.00    +0.000 A 
ATOM     20  C   UNL     1       1.080   9.732  20.163  0.00  0.00    +0.000 A 
ATOM     21  C   UNL     1       1.194  10.703  19.169  0.00  0.00    +0.000 A 
ATOM     22  C   UNL     1       1.776  10.380  17.952  0.00  0.00    +0.000 A 
ATOM     23  C   UNL     1       2.190   9.075  17.720  0.00  0.00    +0.000 A 
ATOM     24  C   UNL     1       1.982   8.052  18.665  0.00  0.00    +0.000 A 
ENDBRANCH   1  24
TORSDOF 1
ENDMDL
MODEL 6
REMARK VINA RESULT:      -7.1      5.106      7.777
REMARK  Name = 
REMARK  2 active torsions:
REMARK  status: ('A' for Active; 'I' for Inactive)
REMARK    1  A    between atoms: C_1  and  C_2
REMARK    2  A    between atoms: C_7  and  N_8
REMARK                            x       y       z     vdW  Elec       q    Type
REMARK                         _______ _______ _______ _____ _____    ______ ____
ROOT
ATOM      1  N   UNL     1       1.453  10.239  18.796  0.00  0.00    +0.000 N 
ATOM      2  C   UNL     1       0.129  10.730  18.554  0.00  0.00    +0.000 A 
ATOM      3  N   UNL     1      -0.733   9.838  17.984  0.00  0.00    +0.000 NA
ATOM      4  C   UNL     1      -2.011  10.280  17.979  0.00  0.00    +0.000 A 
ATOM      5  N   UNL     1      -3.080   9.606  17.558  0.00  0.00    +0.000 NA
ATOM      6  O   UNL     1      -4.150  10.463  17.803  0.00  0.00    +0.000 OA
ATOM      7  N   UNL     1      -3.734  11.674  18.358  0.00  0.00    +0.000 NA
ATOM      8  C   UNL     1      -2.409  11.561  18.462  0.00  0.00    +0.000 A 
ATOM      9  N   UNL     1      -1.548  12.493  18.947  0.00  0.00    +0.000 NA
ATOM     10  C   UNL     1      -0.248  12.069  18.977  0.00  0.00    +0.000 A 
ATOM     11  N   UNL     1       0.646  13.005  19.461  0.00  0.00    +0.000 N 
ATOM     12  C   UNL     1       0.226  13.966  20.495  0.00  0.00    +0.000 C 
ATOM     13  C   UNL     1       0.636  15.396  20.106  0.00  0.00    +0.000 C 
ATOM     14  O   UNL     1       2.036  15.478  19.790  0.00  0.00    +0.000 OA
ATOM     15  C   UNL     1       2.339  14.613  18.690  0.00  0.00    +0.000 C 
ATOM     16  C   UNL     1       2.033  13.143  19.019  0.00  0.00    +0.000 C 
ATOM     17  H   UNL     1       2.064  10.617  18.084  0.00  0.00    +0.000 HD
ENDROOT
BRANCH   1  24
ATOM     18  C   UNL     1       0.837   8.975  21.426  0.00  0.00    +0.000 C 
ATOM     19  C   UNL     1       1.500   8.255  20.285  0.00  0.00    +0.000 A 
ATOM     20  C   UNL     1       1.889   6.916  20.474  0.00  0.00    +0.000 A 
ATOM     21  C   UNL     1       2.450   6.173  19.435  0.00  0.00    +0.000 A 
ATOM     22  C   UNL     1       2.584   6.739  18.177  0.00  0.00    +0.000 A 
ATOM     23  C   UNL     1       2.207   8.061  17.979  0.00  0.00    +0.000 A 
ATOM     24  C   UNL     1       1.744   8.865  19.038  0.00  0.00    +0.000 A 
ENDBRANCH   1  24
TORSDOF 1
ENDMDL
MODEL 7
REMARK VINA RESULT:      -7.1      2.422      6.571
REMARK  Name = 
REMARK  2 active torsions:
REMARK  status: ('A' for Active; 'I' for Inactive)
REMARK    1  A    between atoms: C_1  and  C_2
REMARK    2  A    between atoms: C_7  and  N_8
REMARK                            x       y       z     vdW  Elec       q    Type
REMARK                         _______ _______ _______ _____ _____    ______ ____
ROOT
ATOM      1  N   UNL     1       4.804   4.430  17.612  0.00  0.00    +0.000 N 
ATOM      2  C   UNL     1       3.965   5.508  18.044  0.00  0.00    +0.000 A 
ATOM      3  N   UNL     1       4.300   6.742  17.564  0.00  0.00    +0.000 NA
ATOM      4  C   UNL     1       3.358   7.676  17.826  0.00  0.00    +0.000 A 
ATOM      5  N   UNL     1       3.369   8.945  17.424  0.00  0.00    +0.000 NA
ATOM      6  O   UNL     1       2.171   9.472  17.903  0.00  0.00    +0.000 OA
ATOM      7  N   UNL     1       1.432   8.527  18.616  0.00  0.00    +0.000 NA
ATOM      8  C   UNL     1       2.170   7.417  18.571  0.00  0.00    +0.000 A 
ATOM      9  N   UNL     1       1.870   6.216  19.132  0.00  0.00    +0.000 NA
ATOM     10  C   UNL     1       2.800   5.247  18.872  0.00  0.00    +0.000 A 
ATOM     11  N   UNL     1       2.516   4.019  19.439  0.00  0.00    +0.000 N 
ATOM     12  C   UNL     1       1.118   3.585  19.607  0.00  0.00    +0.000 C 
ATOM     13  C   UNL     1       0.881   3.063  21.034  0.00  0.00    +0.000 C 
ATOM     14  O   UNL     1       1.836   2.051  21.394  0.00  0.00    +0.000 OA
ATOM     15  C   UNL     1       3.163   2.589  21.331  0.00  0.00    +0.000 C 
ATOM     16  C   UNL     1       3.518   3.066  19.914  0.00  0.00    +0.000 C 
ATOM     17  H   UNL     1       5.422   4.187  18.373  0.00  0.00    +0.000 HD
ENDROOT
BRANCH   1  24
ATOM     18  C   UNL     1       7.759   4.824  17.512  0.00  0.00    +0.000 C 
ATOM     19  C   UNL     1       6.894   4.661  16.293  0.00  0.00    +0.000 A 
ATOM     20  C   UNL     1       7.501   4.734  15.026  0.00  0.00    +0.000 A 
ATOM     21  C   UNL     1       6.766   4.528  13.860  0.00  0.00    +0.000 A 
ATOM     22  C   UNL     1       5.423   4.193  13.941  0.00  0.00    +0.000 A 
ATOM     23  C   UNL     1       4.812   4.122  15.186  0.00  0.00    +0.000 A 
ATOM     24  C   UNL     1       5.505   4.436  16.371  0.00  0.00    +0.000 A 
ENDBRANCH   1  24
TORSDOF 1
ENDMDL
MODEL 8
REMARK VINA RESULT:      -7.1      5.361      8.329
REMARK  Name = 
REMARK  2 active torsions:
REMARK  status: ('A' for Active; 'I' for Inactive)
REMARK    1  A    between atoms: C_1  and  C_2
REMARK    2  A    between atoms: C_7  and  N_8
REMARK                            x       y       z     vdW  Elec       q    Type
REMARK                         _______ _______ _______ _____ _____    ______ ____
ROOT
ATOM      1  N   UNL     1       1.092  10.581  19.489  0.00  0.00    +0.000 N 
ATOM      2  C   UNL     1      -0.239  10.983  19.142  0.00  0.00    +0.000 A 
ATOM      3  N   UNL     1      -0.769  10.370  18.043  0.00  0.00    +0.000 NA
ATOM      4  C   UNL     1      -2.089  10.624  17.892  0.00  0.00    +0.000 A 
ATOM      5  N   UNL     1      -2.892  10.111  16.961  0.00  0.00    +0.000 NA
ATOM      6  O   UNL     1      -4.148  10.638  17.258  0.00  0.00    +0.000 OA
ATOM      7  N   UNL     1      -4.111  11.490  18.362  0.00  0.00    +0.000 NA
ATOM      8  C   UNL     1      -2.835  11.484  18.751  0.00  0.00    +0.000 A 
ATOM      9  N   UNL     1      -2.298  12.172  19.792  0.00  0.00    +0.000 NA
ATOM     10  C   UNL     1      -0.965  11.924  19.978  0.00  0.00    +0.000 A 
ATOM     11  N   UNL     1      -0.397  12.619  21.029  0.00  0.00    +0.000 N 
ATOM     12  C   UNL     1      -1.197  12.939  22.224  0.00  0.00    +0.000 C 
ATOM     13  C   UNL     1      -1.039  14.421  22.602  0.00  0.00    +0.000 C 
ATOM     14  O   UNL     1       0.345  14.790  22.730  0.00  0.00    +0.000 OA
ATOM     15  C   UNL     1       1.024  14.572  21.487  0.00  0.00    +0.000 C 
ATOM     16  C   UNL     1       0.985  13.093  21.068  0.00  0.00    +0.000 C 
ATOM     17  H   UNL     1       1.728  11.309  19.193  0.00  0.00    +0.000 HD
ENDROOT
BRANCH   1  24
ATOM     18  C   UNL     1       0.886   8.342  21.448  0.00  0.00    +0.000 C 
ATOM     19  C   UNL     1       1.572   8.229  20.115  0.00  0.00    +0.000 A 
ATOM     20  C   UNL     1       2.187   7.008  19.781  0.00  0.00    +0.000 A 
ATOM     21  C   UNL     1       2.785   6.818  18.535  0.00  0.00    +0.000 A 
ATOM     22  C   UNL     1       2.732   7.825  17.583  0.00  0.00    +0.000 A 
ATOM     23  C   UNL     1       2.130   9.035  17.904  0.00  0.00    +0.000 A 
ATOM     24  C   UNL     1       1.620   9.292  19.191  0.00  0.00    +0.000 A 
ENDBRANCH   1  24
TORSDOF 1
ENDMDL
MODEL 9
REMARK VINA RESULT:      -6.9      5.883      9.071
REMARK  Name = 
REMARK  2 active torsions:
REMARK  status: ('A' for Active; 'I' for Inactive)
REMARK    1  A    between atoms: C_1  and  C_2
REMARK    2  A    between atoms: C_7  and  N_8
REMARK                            x       y       z     vdW  Elec       q    Type
REMARK                         _______ _______ _______ _____ _____    ______ ____
ROOT
ATOM      1  N   UNL     1       0.258  11.041  20.033  0.00  0.00    +0.000 N 
ATOM      2  C   UNL     1      -1.021  11.441  19.525  0.00  0.00    +0.000 A 
ATOM      3  N   UNL     1      -1.278  11.079  18.234  0.00  0.00    +0.000 NA
ATOM      4  C   UNL     1      -2.567  11.289  17.882  0.00  0.00    +0.000 A 
ATOM      5  N   UNL     1      -3.132  10.970  16.719  0.00  0.00    +0.000 NA
ATOM      6  O   UNL     1      -4.467  11.341  16.867  0.00  0.00    +0.000 OA
ATOM      7  N   UNL     1      -4.716  11.907  18.118  0.00  0.00    +0.000 NA
ATOM      8  C   UNL     1      -3.538  11.879  18.743  0.00  0.00    +0.000 A 
ATOM      9  N   UNL     1      -3.271  12.327  19.997  0.00  0.00    +0.000 NA
ATOM     10  C   UNL     1      -1.977  12.115  20.386  0.00  0.00    +0.000 A 
ATOM     11  N   UNL     1      -1.682  12.570  21.658  0.00  0.00    +0.000 N 
ATOM     12  C   UNL     1      -2.714  12.554  22.709  0.00  0.00    +0.000 C 
ATOM     13  C   UNL     1      -2.775  13.910  23.431  0.00  0.00    +0.000 C 
ATOM     14  O   UNL     1      -1.482  14.312  23.912  0.00  0.00    +0.000 OA
ATOM     15  C   UNL     1      -0.569  14.433  22.814  0.00  0.00    +0.000 C 
ATOM     16  C   UNL     1      -0.384  13.097  22.077  0.00  0.00    +0.000 C 
ATOM     17  H   UNL     1       0.862  11.852  20.040  0.00  0.00    +0.000 HD
ENDROOT
BRANCH   1  24
ATOM     18  C   UNL     1       0.545   8.616  21.745  0.00  0.00    +0.000 C 
ATOM     19  C   UNL     1       1.142   8.747  20.372  0.00  0.00    +0.000 A 
ATOM     20  C   UNL     1       1.913   7.682  19.873  0.00  0.00    +0.000 A 
ATOM     21  C   UNL     1       2.441   7.715  18.582  0.00  0.00    +0.000 A 
ATOM     22  C   UNL     1       2.164   8.789  17.751  0.00  0.00    +0.000 A 
ATOM     23  C   UNL     1       1.406   9.848  18.234  0.00  0.00    +0.000 A 
ATOM     24  C   UNL     1       0.957   9.890  19.568  0.00  0.00    +0.000 A 
ENDBRANCH   1  24
TORSDOF 1
ENDMDL
