MODEL 1
REMARK VINA RESULT:      -7.2      0.000      0.000
REMARK  Name = 
REMARK  4 active torsions:
REMARK  status: ('A' for Active; 'I' for Inactive)
REMARK    1  A    between atoms: C_1  and  O_2
REMARK    2  A    between atoms: O_2  and  C_3
REMARK    3  A    between atoms: C_6  and  C_7
REMARK    4  A    between atoms: C_8  and  C_9
REMARK                            x       y       z     vdW  Elec       q    Type
REMARK                         _______ _______ _______ _____ _____    ______ ____
ROOT
ATOM      1  C   UNL     1       8.498   8.146  18.571  0.00  0.00    +0.000 C 
ATOM      2  C   UNL     1       8.423   9.454  18.275  0.00  0.00    +0.000 C 
ENDROOT
BRANCH   2   3
ATOM      3  C   UNL     1       9.366  10.482  18.739  0.00  0.00    +0.000 A 
ATOM      4  C   UNL     1       9.533  10.672  20.119  0.00  0.00    +0.000 A 
ATOM      5  C   UNL     1      10.333  11.711  20.606  0.00  0.00    +0.000 A 
ATOM      6  C   UNL     1      10.970  12.576  19.719  0.00  0.00    +0.000 A 
ATOM      7  C   UNL     1      10.810  12.392  18.346  0.00  0.00    +0.000 A 
ATOM      8  I   UNL     1      11.737  13.700  17.019  0.00  0.00    +0.000 I 
ATOM      9  C   UNL     1      10.015  11.354  17.854  0.00  0.00    +0.000 A 
ENDBRANCH   2   3
BRANCH   1  13
ATOM     10  C   UNL     1       5.931   5.081  16.997  0.00  0.00    +0.000 A 
ATOM     11  C   UNL     1       6.886   4.796  17.971  0.00  0.00    +0.000 A 
ATOM     12  C   UNL     1       7.703   5.807  18.486  0.00  0.00    +0.000 A 
ATOM     13  C   UNL     1       7.599   7.121  18.014  0.00  0.00    +0.000 A 
ATOM     14  C   UNL     1       6.633   7.401  17.037  0.00  0.00    +0.000 A 
ATOM     15  C   UNL     1       5.810   6.387  16.525  0.00  0.00    +0.000 A 
BRANCH  10  17
ATOM     16  C   UNL     1       4.293   3.454  17.499  0.00  0.00    +0.000 C 
ATOM     17  O   UNL     1       5.205   4.009  16.558  0.00  0.00    +0.000 OA
ENDBRANCH  10  17
ENDBRANCH   1  13
TORSDOF 3
ENDMDL
MODEL 2
REMARK VINA RESULT:      -7.0      4.141      7.775
REMARK  Name = 
REMARK  4 active torsions:
REMARK  status: ('A' for Active; 'I' for Inactive)
REMARK    1  A    between atoms: C_1  and  O_2
REMARK    2  A    between atoms: O_2  and  C_3
REMARK    3  A    between atoms: C_6  and  C_7
REMARK    4  A    between atoms: C_8  and  C_9
REMARK                            x       y       z     vdW  Elec       q    Type
REMARK                         _______ _______ _______ _____ _____    ______ ____
ROOT
ATOM      1  C   UNL     1       8.969   9.332  18.741  0.00  0.00    +0.000 C 
ATOM      2  C   UNL     1       8.067   8.805  17.897  0.00  0.00    +0.000 C 
ENDROOT
BRANCH   2   3
ATOM      3  C   UNL     1       7.707   7.381  17.824  0.00  0.00    +0.000 A 
ATOM      4  C   UNL     1       8.030   6.546  18.904  0.00  0.00    +0.000 A 
ATOM      5  C   UNL     1       7.808   5.167  18.832  0.00  0.00    +0.000 A 
ATOM      6  C   UNL     1       7.266   4.607  17.678  0.00  0.00    +0.000 A 
ATOM      7  C   UNL     1       6.940   5.431  16.602  0.00  0.00    +0.000 A 
ATOM      8  I   UNL     1       6.158   4.593  14.865  0.00  0.00    +0.000 I 
ATOM      9  C   UNL     1       7.157   6.809  16.668  0.00  0.00    +0.000 A 
ENDBRANCH   2   3
BRANCH   1  13
ATOM     10  C   UNL     1       9.789  13.524  19.200  0.00  0.00    +0.000 A 
ATOM     11  C   UNL     1      10.099  12.611  20.207  0.00  0.00    +0.000 A 
ATOM     12  C   UNL     1       9.842  11.248  20.036  0.00  0.00    +0.000 A 
ATOM     13  C   UNL     1       9.241  10.774  18.864  0.00  0.00    +0.000 A 
ATOM     14  C   UNL     1       8.936  11.698  17.853  0.00  0.00    +0.000 A 
ATOM     15  C   UNL     1       9.200  13.065  18.024  0.00  0.00    +0.000 A 
BRANCH  10  17
ATOM     16  C   UNL     1      11.102  15.043  20.446  0.00  0.00    +0.000 C 
ATOM     17  O   UNL     1      10.070  14.831  19.489  0.00  0.00    +0.000 OA
ENDBRANCH  10  17
ENDBRANCH   1  13
TORSDOF 3
ENDMDL
MODEL 3
REMARK VINA RESULT:      -7.0      4.113      7.858
REMARK  Name = 
REMARK  4 active torsions:
REMARK  status: ('A' for Active; 'I' for Inactive)
REMARK    1  A    between atoms: C_1  and  O_2
REMARK    2  A    between atoms: O_2  and  C_3
REMARK    3  A    between atoms: C_6  and  C_7
REMARK    4  A    between atoms: C_8  and  C_9
REMARK                            x       y       z     vdW  Elec       q    Type
REMARK                         _______ _______ _______ _____ _____    ______ ____
ROOT
ATOM      1  C   UNL     1       8.928   9.294  18.872  0.00  0.00    +0.000 C 
ATOM      2  C   UNL     1       8.223   8.751  17.867  0.00  0.00    +0.000 C 
ENDROOT
BRANCH   2   3
ATOM      3  C   UNL     1       7.756   7.358  17.816  0.00  0.00    +0.000 A 
ATOM      4  C   UNL     1       8.017   6.518  18.909  0.00  0.00    +0.000 A 
ATOM      5  C   UNL     1       7.691   5.159  18.860  0.00  0.00    +0.000 A 
ATOM      6  C   UNL     1       7.107   4.622  17.715  0.00  0.00    +0.000 A 
ATOM      7  C   UNL     1       6.843   5.451  16.625  0.00  0.00    +0.000 A 
ATOM      8  I   UNL     1       5.998   4.647  14.902  0.00  0.00    +0.000 I 
ATOM      9  C   UNL     1       7.163   6.810  16.670  0.00  0.00    +0.000 A 
ENDBRANCH   2   3
BRANCH   1  13
ATOM     10  C   UNL     1       9.975  13.460  18.991  0.00  0.00    +0.000 A 
ATOM     11  C   UNL     1       9.231  12.930  17.937  0.00  0.00    +0.000 A 
ATOM     12  C   UNL     1       8.884  11.575  17.921  0.00  0.00    +0.000 A 
ATOM     13  C   UNL     1       9.299  10.718  18.946  0.00  0.00    +0.000 A 
ATOM     14  C   UNL     1      10.043  11.259  20.005  0.00  0.00    +0.000 A 
ATOM     15  C   UNL     1      10.386  12.619  20.022  0.00  0.00    +0.000 A 
BRANCH  10  17
ATOM     16  C   UNL     1      11.620  15.148  19.152  0.00  0.00    +0.000 C 
ATOM     17  O   UNL     1      10.268  14.791  18.887  0.00  0.00    +0.000 OA
ENDBRANCH  10  17
ENDBRANCH   1  13
TORSDOF 3
ENDMDL
MODEL 4
REMARK VINA RESULT:      -6.9      1.753      2.315
REMARK  Name = 
REMARK  4 active torsions:
REMARK  status: ('A' for Active; 'I' for Inactive)
REMARK    1  A    between atoms: C_1  and  O_2
REMARK    2  A    between atoms: O_2  and  C_3
REMARK    3  A    between atoms: C_6  and  C_7
REMARK    4  A    between atoms: C_8  and  C_9
REMARK                            x       y       z     vdW  Elec       q    Type
REMARK                         _______ _______ _______ _____ _____    ______ ____
ROOT
ATOM      1  C   UNL     1       8.105   9.048  17.545  0.00  0.00    +0.000 C 
ATOM      2  C   UNL     1       8.870   9.804  18.349  0.00  0.00    +0.000 C 
ENDROOT
BRANCH   2   3
ATOM      3  C   UNL     1       9.315  11.173  18.052  0.00  0.00    +0.000 A 
ATOM      4  C   UNL     1      10.674  11.400  17.785  0.00  0.00    +0.000 A 
ATOM      5  C   UNL     1      11.161  12.699  17.608  0.00  0.00    +0.000 A 
ATOM      6  C   UNL     1      10.296  13.787  17.702  0.00  0.00    +0.000 A 
ATOM      7  C   UNL     1       8.944  13.569  17.966  0.00  0.00    +0.000 A 
ATOM      8  I   UNL     1       7.656  15.195  18.137  0.00  0.00    +0.000 I 
ATOM      9  C   UNL     1       8.451  12.274  18.140  0.00  0.00    +0.000 A 
ENDBRANCH   2   3
BRANCH   1  13
ATOM     10  C   UNL     1       6.517   5.183  18.546  0.00  0.00    +0.000 A 
ATOM     11  C   UNL     1       5.882   6.009  17.619  0.00  0.00    +0.000 A 
ATOM     12  C   UNL     1       6.421   7.257  17.291  0.00  0.00    +0.000 A 
ATOM     13  C   UNL     1       7.590   7.716  17.907  0.00  0.00    +0.000 A 
ATOM     14  C   UNL     1       8.225   6.878  18.836  0.00  0.00    +0.000 A 
ATOM     15  C   UNL     1       7.687   5.624  19.159  0.00  0.00    +0.000 A 
BRANCH  10  17
ATOM     16  C   UNL     1       4.466   4.025  18.735  0.00  0.00    +0.000 C 
ATOM     17  O   UNL     1       5.887   3.996  18.798  0.00  0.00    +0.000 OA
ENDBRANCH  10  17
ENDBRANCH   1  13
TORSDOF 3
ENDMDL
MODEL 5
REMARK VINA RESULT:      -6.8      1.544      1.981
REMARK  Name = 
REMARK  4 active torsions:
REMARK  status: ('A' for Active; 'I' for Inactive)
REMARK    1  A    between atoms: C_1  and  O_2
REMARK    2  A    between atoms: O_2  and  C_3
REMARK    3  A    between atoms: C_6  and  C_7
REMARK    4  A    between atoms: C_8  and  C_9
REMARK                            x       y       z     vdW  Elec       q    Type
REMARK                         _______ _______ _______ _____ _____    ______ ____
ROOT
ATOM      1  C   UNL     1       8.328   9.102  17.851  0.00  0.00    +0.000 C 
ATOM      2  C   UNL     1       9.026   9.681  18.841  0.00  0.00    +0.000 C 
ENDROOT
BRANCH   2   3
ATOM      3  C   UNL     1       9.595  11.036  18.794  0.00  0.00    +0.000 A 
ATOM      4  C   UNL     1      10.416  11.387  17.712  0.00  0.00    +0.000 A 
ATOM      5  C   UNL     1      11.068  12.624  17.681  0.00  0.00    +0.000 A 
ATOM      6  C   UNL     1      10.913  13.521  18.736  0.00  0.00    +0.000 A 
ATOM      7  C   UNL     1      10.098  13.179  19.814  0.00  0.00    +0.000 A 
ATOM      8  I   UNL     1       9.888  14.505  21.404  0.00  0.00    +0.000 I 
ATOM      9  C   UNL     1       9.441  11.947  19.848  0.00  0.00    +0.000 A 
ENDBRANCH   2   3
BRANCH   1  13
ATOM     10  C   UNL     1       6.526   5.219  18.224  0.00  0.00    +0.000 A 
ATOM     11  C   UNL     1       7.636   5.579  18.988  0.00  0.00    +0.000 A 
ATOM     12  C   UNL     1       8.201   6.852  18.867  0.00  0.00    +0.000 A 
ATOM     13  C   UNL     1       7.683   7.781  17.958  0.00  0.00    +0.000 A 
ATOM     14  C   UNL     1       6.563   7.414  17.197  0.00  0.00    +0.000 A 
ATOM     15  C   UNL     1       5.994   6.139  17.323  0.00  0.00    +0.000 A 
BRANCH  10  17
ATOM     16  C   UNL     1       4.836   3.824  19.109  0.00  0.00    +0.000 C 
ATOM     17  O   UNL     1       6.074   3.943  18.416  0.00  0.00    +0.000 OA
ENDBRANCH  10  17
ENDBRANCH   1  13
TORSDOF 3
ENDMDL
MODEL 6
REMARK VINA RESULT:      -6.8      0.616      1.306
REMARK  Name = 
REMARK  4 active torsions:
REMARK  status: ('A' for Active; 'I' for Inactive)
REMARK    1  A    between atoms: C_1  and  O_2
REMARK    2  A    between atoms: O_2  and  C_3
REMARK    3  A    between atoms: C_6  and  C_7
REMARK    4  A    between atoms: C_8  and  C_9
REMARK                            x       y       z     vdW  Elec       q    Type
REMARK                         _______ _______ _______ _____ _____    ______ ____
ROOT
ATOM      1  C   UNL     1       8.164   8.859  17.989  0.00  0.00    +0.000 C 
ATOM      2  C   UNL     1       8.970   9.171  19.017  0.00  0.00    +0.000 C 
ENDROOT
BRANCH   2   3
ATOM      3  C   UNL     1       9.549  10.499  19.266  0.00  0.00    +0.000 A 
ATOM      4  C   UNL     1       9.364  11.092  20.523  0.00  0.00    +0.000 A 
ATOM      5  C   UNL     1       9.799  12.398  20.770  0.00  0.00    +0.000 A 
ATOM      6  C   UNL     1      10.419  13.129  19.758  0.00  0.00    +0.000 A 
ATOM      7  C   UNL     1      10.608  12.546  18.506  0.00  0.00    +0.000 A 
ATOM      8  I   UNL     1      11.507  13.645  16.985  0.00  0.00    +0.000 I 
ATOM      9  C   UNL     1      10.179  11.240  18.256  0.00  0.00    +0.000 A 
ENDBRANCH   2   3
BRANCH   1  13
ATOM     10  C   UNL     1       6.205   5.077  17.419  0.00  0.00    +0.000 A 
ATOM     11  C   UNL     1       5.847   6.199  16.672  0.00  0.00    +0.000 A 
ATOM     12  C   UNL     1       6.505   7.418  16.857  0.00  0.00    +0.000 A 
ATOM     13  C   UNL     1       7.516   7.547  17.815  0.00  0.00    +0.000 A 
ATOM     14  C   UNL     1       7.875   6.414  18.560  0.00  0.00    +0.000 A 
ATOM     15  C   UNL     1       7.218   5.190  18.369  0.00  0.00    +0.000 A 
BRANCH  10  17
ATOM     16  C   UNL     1       4.072   4.130  17.052  0.00  0.00    +0.000 C 
ATOM     17  O   UNL     1       5.479   3.947  17.163  0.00  0.00    +0.000 OA
ENDBRANCH  10  17
ENDBRANCH   1  13
TORSDOF 3
ENDMDL
MODEL 7
REMARK VINA RESULT:      -6.7      6.148      7.374
REMARK  Name = 
REMARK  4 active torsions:
REMARK  status: ('A' for Active; 'I' for Inactive)
REMARK    1  A    between atoms: C_1  and  O_2
REMARK    2  A    between atoms: O_2  and  C_3
REMARK    3  A    between atoms: C_6  and  C_7
REMARK    4  A    between atoms: C_8  and  C_9
REMARK                            x       y       z     vdW  Elec       q    Type
REMARK                         _______ _______ _______ _____ _____    ______ ____
ROOT
ATOM      1  C   UNL     1       2.686   6.655  18.256  0.00  0.00    +0.000 C 
ATOM      2  C   UNL     1       2.513   7.984  18.181  0.00  0.00    +0.000 C 
ENDROOT
BRANCH   2   3
ATOM      3  C   UNL     1       1.592   8.766  19.019  0.00  0.00    +0.000 A 
ATOM      4  C   UNL     1       1.455   8.424  20.373  0.00  0.00    +0.000 A 
ATOM      5  C   UNL     1       0.511   9.066  21.180  0.00  0.00    +0.000 A 
ATOM      6  C   UNL     1      -0.312  10.053  20.642  0.00  0.00    +0.000 A 
ATOM      7  C   UNL     1      -0.180  10.400  19.298  0.00  0.00    +0.000 A 
ATOM      8  I   UNL     1      -1.427  11.853  18.485  0.00  0.00    +0.000 I 
ATOM      9  C   UNL     1       0.764   9.765  18.488  0.00  0.00    +0.000 A 
ENDBRANCH   2   3
BRANCH   1  13
ATOM     10  C   UNL     1       5.630   4.563  15.928  0.00  0.00    +0.000 A 
ATOM     11  C   UNL     1       5.563   5.956  15.928  0.00  0.00    +0.000 A 
ATOM     12  C   UNL     1       4.610   6.622  16.704  0.00  0.00    +0.000 A 
ATOM     13  C   UNL     1       3.686   5.907  17.474  0.00  0.00    +0.000 A 
ATOM     14  C   UNL     1       3.763   4.507  17.472  0.00  0.00    +0.000 A 
ATOM     15  C   UNL     1       4.723   3.839  16.698  0.00  0.00    +0.000 A 
BRANCH  10  17
ATOM     16  C   UNL     1       6.246   3.917  13.740  0.00  0.00    +0.000 C 
ATOM     17  O   UNL     1       6.590   4.024  15.117  0.00  0.00    +0.000 OA
ENDBRANCH  10  17
ENDBRANCH   1  13
TORSDOF 3
ENDMDL
MODEL 8
REMARK VINA RESULT:      -6.6      4.274      7.850
REMARK  Name = 
REMARK  4 active torsions:
REMARK  status: ('A' for Active; 'I' for Inactive)
REMARK    1  A    between atoms: C_1  and  O_2
REMARK    2  A    between atoms: O_2  and  C_3
REMARK    3  A    between atoms: C_6  and  C_7
REMARK    4  A    between atoms: C_8  and  C_9
REMARK                            x       y       z     vdW  Elec       q    Type
REMARK                         _______ _______ _______ _____ _____    ______ ____
ROOT
ATOM      1  C   UNL     1       8.910   9.731  18.379  0.00  0.00    +0.000 C 
ATOM      2  C   UNL     1       8.215   8.980  17.509  0.00  0.00    +0.000 C 
ENDROOT
BRANCH   2   3
ATOM      3  C   UNL     1       7.749   7.608  17.759  0.00  0.00    +0.000 A 
ATOM      4  C   UNL     1       8.147   6.964  18.940  0.00  0.00    +0.000 A 
ATOM      5  C   UNL     1       7.821   5.623  19.167  0.00  0.00    +0.000 A 
ATOM      6  C   UNL     1       7.100   4.909  18.213  0.00  0.00    +0.000 A 
ATOM      7  C   UNL     1       6.699   5.543  17.038  0.00  0.00    +0.000 A 
ATOM      8  I   UNL     1       5.647   4.470  15.598  0.00  0.00    +0.000 I 
ATOM      9  C   UNL     1       7.019   6.883  16.807  0.00  0.00    +0.000 A 
ENDBRANCH   2   3
BRANCH   1  13
ATOM     10  C   UNL     1      10.090  13.805  17.694  0.00  0.00    +0.000 A 
ATOM     11  C   UNL     1      11.013  12.762  17.623  0.00  0.00    +0.000 A 
ATOM     12  C   UNL     1      10.610  11.440  17.832  0.00  0.00    +0.000 A 
ATOM     13  C   UNL     1       9.280  11.137  18.144  0.00  0.00    +0.000 A 
ATOM     14  C   UNL     1       8.357  12.191  18.209  0.00  0.00    +0.000 A 
ATOM     15  C   UNL     1       8.761  13.517  17.994  0.00  0.00    +0.000 A 
BRANCH  10  17
ATOM     16  C   UNL     1      11.409  15.572  18.544  0.00  0.00    +0.000 C 
ATOM     17  O   UNL     1      10.605  15.055  17.489  0.00  0.00    +0.000 OA
ENDBRANCH  10  17
ENDBRANCH   1  13
TORSDOF 3
ENDMDL
MODEL 9
REMARK VINA RESULT:      -6.5      6.110      7.540
REMARK  Name = 
REMARK  4 active torsions:
REMARK  status: ('A' for Active; 'I' for Inactive)
REMARK    1  A    between atoms: C_1  and  O_2
REMARK    2  A    between atoms: O_2  and  C_3
REMARK    3  A    between atoms: C_6  and  C_7
REMARK    4  A    between atoms: C_8  and  C_9
REMARK                            x       y       z     vdW  Elec       q    Type
REMARK                         _______ _______ _______ _____ _____    ______ ____
ROOT
ATOM      1  C   UNL     1       2.890   7.042  18.448  0.00  0.00    +0.000 C 
ATOM      2  C   UNL     1       2.483   8.284  18.143  0.00  0.00    +0.000 C 
ENDROOT
BRANCH   2   3
ATOM      3  C   UNL     1       1.357   8.986  18.779  0.00  0.00    +0.000 A 
ATOM      4  C   UNL     1       0.556   9.828  17.993  0.00  0.00    +0.000 A 
ATOM      5  C   UNL     1      -0.454  10.600  18.575  0.00  0.00    +0.000 A 
ATOM      6  C   UNL     1      -0.671  10.544  19.950  0.00  0.00    +0.000 A 
ATOM      7  C   UNL     1       0.120   9.708  20.737  0.00  0.00    +0.000 A 
ATOM      8  I   UNL     1      -0.182   9.644  22.795  0.00  0.00    +0.000 I 
ATOM      9  C   UNL     1       1.129   8.932  20.161  0.00  0.00    +0.000 A 
ENDBRANCH   2   3
BRANCH   1  13
ATOM     10  C   UNL     1       6.338   5.202  16.662  0.00  0.00    +0.000 A 
ATOM     11  C   UNL     1       5.543   6.097  15.947  0.00  0.00    +0.000 A 
ATOM     12  C   UNL     1       4.434   6.700  16.548  0.00  0.00    +0.000 A 
ATOM     13  C   UNL     1       4.081   6.398  17.868  0.00  0.00    +0.000 A 
ATOM     14  C   UNL     1       4.889   5.500  18.582  0.00  0.00    +0.000 A 
ATOM     15  C   UNL     1       6.004   4.900  17.980  0.00  0.00    +0.000 A 
BRANCH  10  17
ATOM     16  C   UNL     1       7.276   4.725  14.546  0.00  0.00    +0.000 C 
ATOM     17  O   UNL     1       7.383   4.662  15.964  0.00  0.00    +0.000 OA
ENDBRANCH  10  17
ENDBRANCH   1  13
TORSDOF 3
ENDMDL
