MODEL 1
REMARK VINA RESULT:      -8.6      0.000      0.000
REMARK  Name = 
REMARK  4 active torsions:
REMARK  status: ('A' for Active; 'I' for Inactive)
REMARK    1  A    between atoms: C_7  and  S_8
REMARK    2  A    between atoms: S_8  and  C_9
REMARK    3  A    between atoms: C_9  and  C_10
REMARK    4  A    between atoms: N_19  and  C_20
REMARK                            x       y       z     vdW  Elec       q    Type
REMARK                         _______ _______ _______ _____ _____    ______ ____
ROOT
ATOM      1  O   UNL     1       4.762   2.232  19.810  0.00  0.00    +0.000 OA
ATOM      2  C   UNL     1       4.014   3.200  19.947  0.00  0.00    +0.000 C 
ATOM      3  N   UNL     1       3.003   3.113  20.850  0.00  0.00    +0.000 N 
ATOM      4  C   UNL     1       2.206   4.215  21.326  0.00  0.00    +0.000 C 
ATOM      5  C   UNL     1       2.356   5.480  20.529  0.00  0.00    +0.000 A 
ATOM      6  N   UNL     1       1.531   6.524  20.882  0.00  0.00    +0.000 NA
ATOM      7  C   UNL     1       1.613   7.651  20.151  0.00  0.00    +0.000 A 
ATOM      8  C   UNL     1       2.466   7.769  19.066  0.00  0.00    +0.000 A 
ATOM      9  C   UNL     1       3.293   6.696  18.731  0.00  0.00    +0.000 A 
ATOM     10  C   UNL     1       3.275   5.518  19.482  0.00  0.00    +0.000 A 
ATOM     11  N   UNL     1       4.119   4.386  19.229  0.00  0.00    +0.000 N 
ATOM     12  H   UNL     1       2.941   2.216  21.315  0.00  0.00    +0.000 HD
ENDROOT
BRANCH  11  13
ATOM     13  C   UNL     1       4.937   4.392  18.048  0.00  0.00    +0.000 A 
ATOM     14  C   UNL     1       6.259   4.885  18.109  0.00  0.00    +0.000 A 
ATOM     15 CL   UNL     1       6.965   5.511  19.565  0.00  0.00    +0.000 Cl
ATOM     16  C   UNL     1       7.107   4.801  16.999  0.00  0.00    +0.000 A 
ATOM     17  C   UNL     1       6.663   4.216  15.816  0.00  0.00    +0.000 A 
ATOM     18  C   UNL     1       5.348   3.766  15.723  0.00  0.00    +0.000 A 
ATOM     19  C   UNL     1       4.479   3.880  16.817  0.00  0.00    +0.000 A 
ATOM     20 CL   UNL     1       2.839   3.382  16.572  0.00  0.00    +0.000 Cl
ENDBRANCH  11  13
BRANCH   7  21
ATOM     21  S   UNL     1       0.513   9.019  20.483  0.00  0.00    +0.000 S 
BRANCH  21  22
ATOM     22  C   UNL     1       0.570   9.928  18.908  0.00  0.00    +0.000 C 
BRANCH  22  23
ATOM     23  C   UNL     1      -0.818  10.373  18.486  0.00  0.00    +0.000 A 
ATOM     24  C   UNL     1      -1.436   9.816  17.354  0.00  0.00    +0.000 A 
ATOM     25  C   UNL     1      -2.711  10.230  16.959  0.00  0.00    +0.000 A 
ATOM     26  C   UNL     1      -3.384  11.212  17.682  0.00  0.00    +0.000 A 
ATOM     27  C   UNL     1      -2.779  11.783  18.801  0.00  0.00    +0.000 A 
ATOM     28  C   UNL     1      -1.503  11.369  19.198  0.00  0.00    +0.000 A 
ENDBRANCH  22  23
ENDBRANCH  21  22
ENDBRANCH   7  21
TORSDOF 4
ENDMDL
MODEL 2
REMARK VINA RESULT:      -8.6      0.361      2.026
REMARK  Name = 
REMARK  4 active torsions:
REMARK  status: ('A' for Active; 'I' for Inactive)
REMARK    1  A    between atoms: C_7  and  S_8
REMARK    2  A    between atoms: S_8  and  C_9
REMARK    3  A    between atoms: C_9  and  C_10
REMARK    4  A    between atoms: N_19  and  C_20
REMARK                            x       y       z     vdW  Elec       q    Type
REMARK                         _______ _______ _______ _____ _____    ______ ____
ROOT
ATOM      1  O   UNL     1       4.797   2.155  19.778  0.00  0.00    +0.000 OA
ATOM      2  C   UNL     1       4.022   3.091  19.974  0.00  0.00    +0.000 C 
ATOM      3  N   UNL     1       3.027   2.926  20.884  0.00  0.00    +0.000 N 
ATOM      4  C   UNL     1       2.205   3.978  21.427  0.00  0.00    +0.000 C 
ATOM      5  C   UNL     1       2.305   5.286  20.695  0.00  0.00    +0.000 A 
ATOM      6  N   UNL     1       1.454   6.285  21.113  0.00  0.00    +0.000 NA
ATOM      7  C   UNL     1       1.492   7.450  20.440  0.00  0.00    +0.000 A 
ATOM      8  C   UNL     1       2.326   7.650  19.352  0.00  0.00    +0.000 A 
ATOM      9  C   UNL     1       3.180   6.622  18.951  0.00  0.00    +0.000 A 
ATOM     10  C   UNL     1       3.208   5.407  19.640  0.00  0.00    +0.000 A 
ATOM     11  N   UNL     1       4.082   4.316  19.318  0.00  0.00    +0.000 N 
ATOM     12  H   UNL     1       2.999   2.006  21.302  0.00  0.00    +0.000 HD
ENDROOT
BRANCH  11  13
ATOM     13  C   UNL     1       4.883   4.407  18.129  0.00  0.00    +0.000 A 
ATOM     14  C   UNL     1       4.369   3.955  16.895  0.00  0.00    +0.000 A 
ATOM     15 CL   UNL     1       2.784   3.267  16.730  0.00  0.00    +0.000 Cl
ATOM     16  C   UNL     1       5.090   4.132  15.709  0.00  0.00    +0.000 A 
ATOM     17  C   UNL     1       6.327   4.771  15.726  0.00  0.00    +0.000 A 
ATOM     18  C   UNL     1       6.871   5.183  16.940  0.00  0.00    +0.000 A 
ATOM     19  C   UNL     1       6.173   4.976  18.139  0.00  0.00    +0.000 A 
ATOM     20 CL   UNL     1       6.975   5.434  19.604  0.00  0.00    +0.000 Cl
ENDBRANCH  11  13
BRANCH   7  21
ATOM     21  S   UNL     1       0.356   8.764  20.857  0.00  0.00    +0.000 S 
BRANCH  21  22
ATOM     22  C   UNL     1       0.717   9.988  19.560  0.00  0.00    +0.000 C 
BRANCH  22  23
ATOM     23  C   UNL     1      -0.553  10.420  18.850  0.00  0.00    +0.000 A 
ATOM     24  C   UNL     1      -1.368  11.428  19.391  0.00  0.00    +0.000 A 
ATOM     25  C   UNL     1      -2.542  11.822  18.743  0.00  0.00    +0.000 A 
ATOM     26  C   UNL     1      -2.924  11.210  17.551  0.00  0.00    +0.000 A 
ATOM     27  C   UNL     1      -2.131  10.199  17.009  0.00  0.00    +0.000 A 
ATOM     28  C   UNL     1      -0.956   9.804  17.655  0.00  0.00    +0.000 A 
ENDBRANCH  22  23
ENDBRANCH  21  22
ENDBRANCH   7  21
TORSDOF 4
ENDMDL
MODEL 3
REMARK VINA RESULT:      -8.4      0.697      2.119
REMARK  Name = 
REMARK  4 active torsions:
REMARK  status: ('A' for Active; 'I' for Inactive)
REMARK    1  A    between atoms: C_7  and  S_8
REMARK    2  A    between atoms: S_8  and  C_9
REMARK    3  A    between atoms: C_9  and  C_10
REMARK    4  A    between atoms: N_19  and  C_20
REMARK                            x       y       z     vdW  Elec       q    Type
REMARK                         _______ _______ _______ _____ _____    ______ ____
ROOT
ATOM      1  O   UNL     1       4.763   2.682  19.841  0.00  0.00    +0.000 OA
ATOM      2  C   UNL     1       4.060   3.692  19.800  0.00  0.00    +0.000 C 
ATOM      3  N   UNL     1       2.998   3.774  20.643  0.00  0.00    +0.000 N 
ATOM      4  C   UNL     1       2.235   4.966  20.916  0.00  0.00    +0.000 C 
ATOM      5  C   UNL     1       2.493   6.101  19.967  0.00  0.00    +0.000 A 
ATOM      6  N   UNL     1       1.706   7.219  20.125  0.00  0.00    +0.000 NA
ATOM      7  C   UNL     1       1.887   8.230  19.255  0.00  0.00    +0.000 A 
ATOM      8  C   UNL     1       2.802   8.160  18.218  0.00  0.00    +0.000 A 
ATOM      9  C   UNL     1       3.589   7.016  18.082  0.00  0.00    +0.000 A 
ATOM     10  C   UNL     1       3.470   5.954  18.982  0.00  0.00    +0.000 A 
ATOM     11  N   UNL     1       4.266   4.762  18.936  0.00  0.00    +0.000 N 
ATOM     12  H   UNL     1       2.865   2.954  21.219  0.00  0.00    +0.000 HD
ENDROOT
BRANCH  11  13
ATOM     13  C   UNL     1       5.146   4.569  17.818  0.00  0.00    +0.000 A 
ATOM     14  C   UNL     1       4.674   3.934  16.649  0.00  0.00    +0.000 A 
ATOM     15 CL   UNL     1       3.048   3.349  16.486  0.00  0.00    +0.000 Cl
ATOM     16  C   UNL     1       5.483   3.831  15.512  0.00  0.00    +0.000 A 
ATOM     17  C   UNL     1       6.767   4.367  15.511  0.00  0.00    +0.000 A 
ATOM     18  C   UNL     1       7.268   4.956  16.669  0.00  0.00    +0.000 A 
ATOM     19  C   UNL     1       6.479   5.030  17.827  0.00  0.00    +0.000 A 
ATOM     20 CL   UNL     1       7.222   5.692  19.243  0.00  0.00    +0.000 Cl
ENDBRANCH  11  13
BRANCH   7  21
ATOM     21  S   UNL     1       0.843   9.678  19.332  0.00  0.00    +0.000 S 
BRANCH  21  22
ATOM     22  C   UNL     1      -0.075   9.553  17.766  0.00  0.00    +0.000 C 
BRANCH  22  23
ATOM     23  C   UNL     1      -1.415  10.260  17.862  0.00  0.00    +0.000 A 
ATOM     24  C   UNL     1      -1.674  11.165  18.905  0.00  0.00    +0.000 A 
ATOM     25  C   UNL     1      -2.910  11.811  19.000  0.00  0.00    +0.000 A 
ATOM     26  C   UNL     1      -3.908  11.557  18.061  0.00  0.00    +0.000 A 
ATOM     27  C   UNL     1      -3.669  10.652  17.027  0.00  0.00    +0.000 A 
ATOM     28  C   UNL     1      -2.432  10.006  16.930  0.00  0.00    +0.000 A 
ENDBRANCH  22  23
ENDBRANCH  21  22
ENDBRANCH   7  21
TORSDOF 4
ENDMDL
MODEL 4
REMARK VINA RESULT:      -8.3      1.046      2.136
REMARK  Name = 
REMARK  4 active torsions:
REMARK  status: ('A' for Active; 'I' for Inactive)
REMARK    1  A    between atoms: C_7  and  S_8
REMARK    2  A    between atoms: S_8  and  C_9
REMARK    3  A    between atoms: C_9  and  C_10
REMARK    4  A    between atoms: N_19  and  C_20
REMARK                            x       y       z     vdW  Elec       q    Type
REMARK                         _______ _______ _______ _____ _____    ______ ____
ROOT
ATOM      1  O   UNL     1       4.059   3.159  20.232  0.00  0.00    +0.000 OA
ATOM      2  C   UNL     1       3.481   4.224  20.017  0.00  0.00    +0.000 C 
ATOM      3  N   UNL     1       2.406   4.543  20.784  0.00  0.00    +0.000 N 
ATOM      4  C   UNL     1       1.779   5.838  20.851  0.00  0.00    +0.000 C 
ATOM      5  C   UNL     1       2.203   6.792  19.770  0.00  0.00    +0.000 A 
ATOM      6  N   UNL     1       1.547   8.002  19.733  0.00  0.00    +0.000 NA
ATOM      7  C   UNL     1       1.877   8.853  18.744  0.00  0.00    +0.000 A 
ATOM      8  C   UNL     1       2.816   8.535  17.776  0.00  0.00    +0.000 A 
ATOM      9  C   UNL     1       3.467   7.303  17.839  0.00  0.00    +0.000 A 
ATOM     10  C   UNL     1       3.191   6.400  18.868  0.00  0.00    +0.000 A 
ATOM     11  N   UNL     1       3.843   5.132  19.027  0.00  0.00    +0.000 N 
ATOM     12  H   UNL     1       2.156   3.832  21.458  0.00  0.00    +0.000 HD
ENDROOT
BRANCH  11  13
ATOM     13  C   UNL     1       4.735   4.686  17.994  0.00  0.00    +0.000 A 
ATOM     14  C   UNL     1       4.229   3.981  16.880  0.00  0.00    +0.000 A 
ATOM     15 CL   UNL     1       2.546   3.604  16.689  0.00  0.00    +0.000 Cl
ATOM     16  C   UNL     1       5.065   3.631  15.813  0.00  0.00    +0.000 A 
ATOM     17  C   UNL     1       6.411   3.985  15.828  0.00  0.00    +0.000 A 
ATOM     18  C   UNL     1       6.938   4.640  16.938  0.00  0.00    +0.000 A 
ATOM     19  C   UNL     1       6.118   4.961  18.029  0.00  0.00    +0.000 A 
ATOM     20 CL   UNL     1       6.885   5.686  19.402  0.00  0.00    +0.000 Cl
ENDBRANCH  11  13
BRANCH   7  21
ATOM     21  S   UNL     1       1.008  10.404  18.568  0.00  0.00    +0.000 S 
BRANCH  21  22
ATOM     22  C   UNL     1      -0.630   9.986  19.242  0.00  0.00    +0.000 C 
BRANCH  22  23
ATOM     23  C   UNL     1      -1.730  10.335  18.256  0.00  0.00    +0.000 A 
ATOM     24  C   UNL     1      -1.739   9.778  16.967  0.00  0.00    +0.000 A 
ATOM     25  C   UNL     1      -2.747  10.104  16.055  0.00  0.00    +0.000 A 
ATOM     26  C   UNL     1      -3.755  10.997  16.413  0.00  0.00    +0.000 A 
ATOM     27  C   UNL     1      -3.751  11.567  17.686  0.00  0.00    +0.000 A 
ATOM     28  C   UNL     1      -2.744  11.241  18.600  0.00  0.00    +0.000 A 
ENDBRANCH  22  23
ENDBRANCH  21  22
ENDBRANCH   7  21
TORSDOF 4
ENDMDL
MODEL 5
REMARK VINA RESULT:      -8.2      2.042      3.012
REMARK  Name = 
REMARK  4 active torsions:
REMARK  status: ('A' for Active; 'I' for Inactive)
REMARK    1  A    between atoms: C_7  and  S_8
REMARK    2  A    between atoms: S_8  and  C_9
REMARK    3  A    between atoms: C_9  and  C_10
REMARK    4  A    between atoms: N_19  and  C_20
REMARK                            x       y       z     vdW  Elec       q    Type
REMARK                         _______ _______ _______ _____ _____    ______ ____
ROOT
ATOM      1  O   UNL     1       4.711   2.888  19.947  0.00  0.00    +0.000 OA
ATOM      2  C   UNL     1       4.014   3.892  19.800  0.00  0.00    +0.000 C 
ATOM      3  N   UNL     1       2.920   4.040  20.592  0.00  0.00    +0.000 N 
ATOM      4  C   UNL     1       2.151   5.250  20.742  0.00  0.00    +0.000 C 
ATOM      5  C   UNL     1       2.451   6.308  19.718  0.00  0.00    +0.000 A 
ATOM      6  N   UNL     1       1.663   7.435  19.758  0.00  0.00    +0.000 NA
ATOM      7  C   UNL     1       1.881   8.375  18.820  0.00  0.00    +0.000 A 
ATOM      8  C   UNL     1       2.837   8.225  17.829  0.00  0.00    +0.000 A 
ATOM      9  C   UNL     1       3.624   7.073  17.813  0.00  0.00    +0.000 A 
ATOM     10  C   UNL     1       3.465   6.084  18.787  0.00  0.00    +0.000 A 
ATOM     11  N   UNL     1       4.258   4.892  18.865  0.00  0.00    +0.000 N 
ATOM     12  H   UNL     1       2.761   3.266  21.224  0.00  0.00    +0.000 HD
ENDROOT
BRANCH  11  13
ATOM     13  C   UNL     1       5.181   4.612  17.801  0.00  0.00    +0.000 A 
ATOM     14  C   UNL     1       4.729   3.984  16.620  0.00  0.00    +0.000 A 
ATOM     15 CL   UNL     1       3.076   3.510  16.380  0.00  0.00    +0.000 Cl
ATOM     16  C   UNL     1       5.588   3.800  15.532  0.00  0.00    +0.000 A 
ATOM     17  C   UNL     1       6.906   4.244  15.592  0.00  0.00    +0.000 A 
ATOM     18  C   UNL     1       7.383   4.825  16.764  0.00  0.00    +0.000 A 
ATOM     19  C   UNL     1       6.541   4.980  17.875  0.00  0.00    +0.000 A 
ATOM     20 CL   UNL     1       7.252   5.621  19.317  0.00  0.00    +0.000 Cl
ENDBRANCH  11  13
BRANCH   7  21
ATOM     21  S   UNL     1       0.840   9.825  18.744  0.00  0.00    +0.000 S 
BRANCH  21  22
ATOM     22  C   UNL     1       1.470  10.805  20.142  0.00  0.00    +0.000 C 
BRANCH  22  23
ATOM     23  C   UNL     1       0.406  10.976  21.210  0.00  0.00    +0.000 A 
ATOM     24  C   UNL     1      -0.305  12.182  21.326  0.00  0.00    +0.000 A 
ATOM     25  C   UNL     1      -1.280  12.345  22.314  0.00  0.00    +0.000 A 
ATOM     26  C   UNL     1      -1.553  11.309  23.207  0.00  0.00    +0.000 A 
ATOM     27  C   UNL     1      -0.847  10.111  23.111  0.00  0.00    +0.000 A 
ATOM     28  C   UNL     1       0.129   9.947  22.122  0.00  0.00    +0.000 A 
ENDBRANCH  22  23
ENDBRANCH  21  22
ENDBRANCH   7  21
TORSDOF 4
ENDMDL
MODEL 6
REMARK VINA RESULT:      -8.0      2.128      2.977
REMARK  Name = 
REMARK  4 active torsions:
REMARK  status: ('A' for Active; 'I' for Inactive)
REMARK    1  A    between atoms: C_7  and  S_8
REMARK    2  A    between atoms: S_8  and  C_9
REMARK    3  A    between atoms: C_9  and  C_10
REMARK    4  A    between atoms: N_19  and  C_20
REMARK                            x       y       z     vdW  Elec       q    Type
REMARK                         _______ _______ _______ _____ _____    ______ ____
ROOT
ATOM      1  O   UNL     1       4.808   2.503  19.760  0.00  0.00    +0.000 OA
ATOM      2  C   UNL     1       4.088   3.501  19.787  0.00  0.00    +0.000 C 
ATOM      3  N   UNL     1       3.056   3.530  20.670  0.00  0.00    +0.000 N 
ATOM      4  C   UNL     1       2.284   4.695  21.020  0.00  0.00    +0.000 C 
ATOM      5  C   UNL     1       2.489   5.873  20.110  0.00  0.00    +0.000 A 
ATOM      6  N   UNL     1       1.690   6.970  20.343  0.00  0.00    +0.000 NA
ATOM      7  C   UNL     1       1.822   8.019  19.510  0.00  0.00    +0.000 A 
ATOM      8  C   UNL     1       2.701   8.008  18.440  0.00  0.00    +0.000 A 
ATOM      9  C   UNL     1       3.501   6.885  18.228  0.00  0.00    +0.000 A 
ATOM     10  C   UNL     1       3.431   5.785  19.086  0.00  0.00    +0.000 A 
ATOM     11  N   UNL     1       4.244   4.610  18.962  0.00  0.00    +0.000 N 
ATOM     12  H   UNL     1       2.957   2.684  21.216  0.00  0.00    +0.000 HD
ENDROOT
BRANCH  11  13
ATOM     13  C   UNL     1       5.087   4.479  17.806  0.00  0.00    +0.000 A 
ATOM     14  C   UNL     1       4.581   3.889  16.627  0.00  0.00    +0.000 A 
ATOM     15 CL   UNL     1       2.959   3.287  16.496  0.00  0.00    +0.000 Cl
ATOM     16  C   UNL     1       5.351   3.848  15.459  0.00  0.00    +0.000 A 
ATOM     17  C   UNL     1       6.627   4.402  15.437  0.00  0.00    +0.000 A 
ATOM     18  C   UNL     1       7.161   4.948  16.602  0.00  0.00    +0.000 A 
ATOM     19  C   UNL     1       6.413   4.959  17.789  0.00  0.00    +0.000 A 
ATOM     20 CL   UNL     1       7.197   5.569  19.206  0.00  0.00    +0.000 Cl
ENDBRANCH  11  13
BRANCH   7  21
ATOM     21  S   UNL     1       0.758   9.443  19.686  0.00  0.00    +0.000 S 
BRANCH  21  22
ATOM     22  C   UNL     1       0.654   9.604  21.495  0.00  0.00    +0.000 C 
BRANCH  22  23
ATOM     23  C   UNL     1      -0.065  10.882  21.888  0.00  0.00    +0.000 A 
ATOM     24  C   UNL     1      -1.083  10.863  22.855  0.00  0.00    +0.000 A 
ATOM     25  C   UNL     1      -1.751  12.037  23.212  0.00  0.00    +0.000 A 
ATOM     26  C   UNL     1      -1.419  13.246  22.603  0.00  0.00    +0.000 A 
ATOM     27  C   UNL     1      -0.418  13.278  21.633  0.00  0.00    +0.000 A 
ATOM     28  C   UNL     1       0.252  12.104  21.275  0.00  0.00    +0.000 A 
ENDBRANCH  22  23
ENDBRANCH  21  22
ENDBRANCH   7  21
TORSDOF 4
ENDMDL
MODEL 7
REMARK VINA RESULT:      -8.0      1.565      2.266
REMARK  Name = 
REMARK  4 active torsions:
REMARK  status: ('A' for Active; 'I' for Inactive)
REMARK    1  A    between atoms: C_7  and  S_8
REMARK    2  A    between atoms: S_8  and  C_9
REMARK    3  A    between atoms: C_9  and  C_10
REMARK    4  A    between atoms: N_19  and  C_20
REMARK                            x       y       z     vdW  Elec       q    Type
REMARK                         _______ _______ _______ _____ _____    ______ ____
ROOT
ATOM      1  O   UNL     1       4.773   2.148  19.806  0.00  0.00    +0.000 OA
ATOM      2  C   UNL     1       4.027   3.116  19.956  0.00  0.00    +0.000 C 
ATOM      3  N   UNL     1       3.013   3.018  20.854  0.00  0.00    +0.000 N 
ATOM      4  C   UNL     1       2.218   4.115  21.345  0.00  0.00    +0.000 C 
ATOM      5  C   UNL     1       2.374   5.392  20.568  0.00  0.00    +0.000 A 
ATOM      6  N   UNL     1       1.552   6.433  20.936  0.00  0.00    +0.000 NA
ATOM      7  C   UNL     1       1.640   7.571  20.222  0.00  0.00    +0.000 A 
ATOM      8  C   UNL     1       2.497   7.703  19.142  0.00  0.00    +0.000 A 
ATOM      9  C   UNL     1       3.321   6.634  18.793  0.00  0.00    +0.000 A 
ATOM     10  C   UNL     1       3.298   5.444  19.525  0.00  0.00    +0.000 A 
ATOM     11  N   UNL     1       4.138   4.313  19.257  0.00  0.00    +0.000 N 
ATOM     12  H   UNL     1       2.947   2.114  21.304  0.00  0.00    +0.000 HD
ENDROOT
BRANCH  11  13
ATOM     13  C   UNL     1       4.961   4.334  18.079  0.00  0.00    +0.000 A 
ATOM     14  C   UNL     1       6.279   4.836  18.149  0.00  0.00    +0.000 A 
ATOM     15 CL   UNL     1       6.976   5.453  19.613  0.00  0.00    +0.000 Cl
ATOM     16  C   UNL     1       7.131   4.767  17.041  0.00  0.00    +0.000 A 
ATOM     17  C   UNL     1       6.695   4.191  15.852  0.00  0.00    +0.000 A 
ATOM     18  C   UNL     1       5.384   3.732  15.750  0.00  0.00    +0.000 A 
ATOM     19  C   UNL     1       4.510   3.831  16.842  0.00  0.00    +0.000 A 
ATOM     20 CL   UNL     1       2.874   3.324  16.587  0.00  0.00    +0.000 Cl
ENDBRANCH  11  13
BRANCH   7  21
ATOM     21  S   UNL     1       0.543   8.937  20.573  0.00  0.00    +0.000 S 
BRANCH  21  22
ATOM     22  C   UNL     1       0.597   9.863  19.007  0.00  0.00    +0.000 C 
BRANCH  22  23
ATOM     23  C   UNL     1       1.246  11.221  19.200  0.00  0.00    +0.000 A 
ATOM     24  C   UNL     1       2.059  11.775  18.198  0.00  0.00    +0.000 A 
ATOM     25  C   UNL     1       2.664  13.022  18.375  0.00  0.00    +0.000 A 
ATOM     26  C   UNL     1       2.473  13.730  19.560  0.00  0.00    +0.000 A 
ATOM     27  C   UNL     1       1.678  13.188  20.569  0.00  0.00    +0.000 A 
ATOM     28  C   UNL     1       1.071  11.941  20.392  0.00  0.00    +0.000 A 
ENDBRANCH  22  23
ENDBRANCH  21  22
ENDBRANCH   7  21
TORSDOF 4
ENDMDL
MODEL 8
REMARK VINA RESULT:      -7.9      1.471      2.820
REMARK  Name = 
REMARK  4 active torsions:
REMARK  status: ('A' for Active; 'I' for Inactive)
REMARK    1  A    between atoms: C_7  and  S_8
REMARK    2  A    between atoms: S_8  and  C_9
REMARK    3  A    between atoms: C_9  and  C_10
REMARK    4  A    between atoms: N_19  and  C_20
REMARK                            x       y       z     vdW  Elec       q    Type
REMARK                         _______ _______ _______ _____ _____    ______ ____
ROOT
ATOM      1  O   UNL     1       4.733   2.293  19.884  0.00  0.00    +0.000 OA
ATOM      2  C   UNL     1       4.002   3.280  19.963  0.00  0.00    +0.000 C 
ATOM      3  N   UNL     1       2.962   3.246  20.836  0.00  0.00    +0.000 N 
ATOM      4  C   UNL     1       2.175   4.380  21.248  0.00  0.00    +0.000 C 
ATOM      5  C   UNL     1       2.376   5.613  20.412  0.00  0.00    +0.000 A 
ATOM      6  N   UNL     1       1.563   6.686  20.703  0.00  0.00    +0.000 NA
ATOM      7  C   UNL     1       1.692   7.784  19.936  0.00  0.00    +0.000 A 
ATOM      8  C   UNL     1       2.581   7.846  18.875  0.00  0.00    +0.000 A 
ATOM      9  C   UNL     1       3.395   6.746  18.604  0.00  0.00    +0.000 A 
ATOM     10  C   UNL     1       3.329   5.595  19.394  0.00  0.00    +0.000 A 
ATOM     11  N   UNL     1       4.155   4.438  19.208  0.00  0.00    +0.000 N 
ATOM     12  H   UNL     1       2.866   2.367  21.329  0.00  0.00    +0.000 HD
ENDROOT
BRANCH  11  13
ATOM     13  C   UNL     1       5.010   4.385  18.055  0.00  0.00    +0.000 A 
ATOM     14  C   UNL     1       4.527   3.846  16.842  0.00  0.00    +0.000 A 
ATOM     15 CL   UNL     1       2.919   3.217  16.666  0.00  0.00    +0.000 Cl
ATOM     16  C   UNL     1       5.306   3.882  15.681  0.00  0.00    +0.000 A 
ATOM     17  C   UNL     1       6.571   4.463  15.699  0.00  0.00    +0.000 A 
ATOM     18  C   UNL     1       7.082   4.960  16.896  0.00  0.00    +0.000 A 
ATOM     19  C   UNL     1       6.325   4.894  18.074  0.00  0.00    +0.000 A 
ATOM     20 CL   UNL     1       7.084   5.446  19.528  0.00  0.00    +0.000 Cl
ENDBRANCH  11  13
BRANCH   7  21
ATOM     21  S   UNL     1       0.612   9.184  20.185  0.00  0.00    +0.000 S 
BRANCH  21  22
ATOM     22  C   UNL     1       0.648   9.973  18.546  0.00  0.00    +0.000 C 
BRANCH  22  23
ATOM     23  C   UNL     1       1.049  11.433  18.653  0.00  0.00    +0.000 A 
ATOM     24  C   UNL     1       0.174  12.378  19.213  0.00  0.00    +0.000 A 
ATOM     25  C   UNL     1       0.538  13.724  19.305  0.00  0.00    +0.000 A 
ATOM     26  C   UNL     1       1.778  14.148  18.832  0.00  0.00    +0.000 A 
ATOM     27  C   UNL     1       2.653  13.224  18.262  0.00  0.00    +0.000 A 
ATOM     28  C   UNL     1       2.290  11.876  18.170  0.00  0.00    +0.000 A 
ENDBRANCH  22  23
ENDBRANCH  21  22
ENDBRANCH   7  21
TORSDOF 4
ENDMDL
MODEL 9
REMARK VINA RESULT:      -7.9      1.003      1.513
REMARK  Name = 
REMARK  4 active torsions:
REMARK  status: ('A' for Active; 'I' for Inactive)
REMARK    1  A    between atoms: C_7  and  S_8
REMARK    2  A    between atoms: S_8  and  C_9
REMARK    3  A    between atoms: C_9  and  C_10
REMARK    4  A    between atoms: N_19  and  C_20
REMARK                            x       y       z     vdW  Elec       q    Type
REMARK                         _______ _______ _______ _____ _____    ______ ____
ROOT
ATOM      1  O   UNL     1       4.901   2.066  19.754  0.00  0.00    +0.000 OA
ATOM      2  C   UNL     1       4.097   2.972  19.977  0.00  0.00    +0.000 C 
ATOM      3  N   UNL     1       3.119   2.755  20.895  0.00  0.00    +0.000 N 
ATOM      4  C   UNL     1       2.268   3.767  21.467  0.00  0.00    +0.000 C 
ATOM      5  C   UNL     1       2.314   5.092  20.760  0.00  0.00    +0.000 A 
ATOM      6  N   UNL     1       1.436   6.053  21.206  0.00  0.00    +0.000 NA
ATOM      7  C   UNL     1       1.426   7.231  20.556  0.00  0.00    +0.000 A 
ATOM      8  C   UNL     1       2.239   7.481  19.463  0.00  0.00    +0.000 A 
ATOM      9  C   UNL     1       3.123   6.490  19.033  0.00  0.00    +0.000 A 
ATOM     10  C   UNL     1       3.201   5.264  19.697  0.00  0.00    +0.000 A 
ATOM     11  N   UNL     1       4.107   4.210  19.344  0.00  0.00    +0.000 N 
ATOM     12  H   UNL     1       3.127   1.826  21.295  0.00  0.00    +0.000 HD
ENDROOT
BRANCH  11  13
ATOM     13  C   UNL     1       4.890   4.351  18.149  0.00  0.00    +0.000 A 
ATOM     14  C   UNL     1       6.185   4.910  18.216  0.00  0.00    +0.000 A 
ATOM     15 CL   UNL     1       6.898   5.459  19.700  0.00  0.00    +0.000 Cl
ATOM     16  C   UNL     1       7.005   4.959  17.083  0.00  0.00    +0.000 A 
ATOM     17  C   UNL     1       6.559   4.444  15.869  0.00  0.00    +0.000 A 
ATOM     18  C   UNL     1       5.268   3.931  15.772  0.00  0.00    +0.000 A 
ATOM     19  C   UNL     1       4.425   3.912  16.892  0.00  0.00    +0.000 A 
ATOM     20 CL   UNL     1       2.807   3.345  16.648  0.00  0.00    +0.000 Cl
ENDBRANCH  11  13
BRANCH   7  21
ATOM     21  S   UNL     1       0.251   8.498  21.012  0.00  0.00    +0.000 S 
BRANCH  21  22
ATOM     22  C   UNL     1       1.240  10.010  20.800  0.00  0.00    +0.000 C 
BRANCH  22  23
ATOM     23  C   UNL     1       0.539  10.996  19.884  0.00  0.00    +0.000 A 
ATOM     24  C   UNL     1       1.194  12.158  19.445  0.00  0.00    +0.000 A 
ATOM     25  C   UNL     1       0.548  13.070  18.607  0.00  0.00    +0.000 A 
ATOM     26  C   UNL     1      -0.766  12.841  18.202  0.00  0.00    +0.000 A 
ATOM     27  C   UNL     1      -1.433  11.698  18.640  0.00  0.00    +0.000 A 
ATOM     28  C   UNL     1      -0.787  10.784  19.477  0.00  0.00    +0.000 A 
ENDBRANCH  22  23
ENDBRANCH  21  22
ENDBRANCH   7  21
TORSDOF 4
ENDMDL
