MODEL 1
REMARK VINA RESULT:      -8.4      0.000      0.000
REMARK  Name = 
REMARK  11 active torsions:
REMARK  status: ('A' for Active; 'I' for Inactive)
REMARK    1  A    between atoms: C_1  and  O_2
REMARK    2  A    between atoms: O_2  and  C_3
REMARK    3  A    between atoms: C_5  and  C_6
REMARK    4  A    between atoms: C_12  and  C_13
REMARK    5  A    between atoms: C_16  and  N_17
REMARK    6  A    between atoms: N_17  and  C_18
REMARK    7  A    between atoms: N_17  and  C_19
REMARK    8  A    between atoms: C_25  and  O_26
REMARK    9  A    between atoms: O_26  and  C_27
REMARK   10  A    between atoms: C_28  and  O_29
REMARK   11  A    between atoms: O_29  and  C_30
REMARK                            x       y       z     vdW  Elec       q    Type
REMARK                         _______ _______ _______ _____ _____    ______ ____
ROOT
ATOM      1  C   UNL     1       4.223   3.481  17.573  0.00  0.00    +0.000 A 
ATOM      2  C   UNL     1       4.072   2.171  17.839  0.00  0.00    +0.000 A 
ATOM      3  C   UNL     1       2.967   1.835  18.779  0.00  0.00    +0.000 A 
ATOM      4  N   UNL     1       2.154   2.672  19.346  0.00  0.00    +0.000 NA
ATOM      5  C   UNL     1       2.352   3.990  19.042  0.00  0.00    +0.000 A 
ATOM      6  C   UNL     1       1.704   5.134  19.449  0.00  0.00    +0.000 A 
ATOM      7  C   UNL     1       2.341   6.207  18.782  0.00  0.00    +0.000 A 
ATOM      8  N   UNL     1       3.346   5.758  18.015  0.00  0.00    +0.000 NA
ATOM      9  N   UNL     1       3.357   4.414  18.173  0.00  0.00    +0.000 N 
ENDROOT
BRANCH   1  12
ATOM     10  C   UNL     1       6.268   3.942  14.441  0.00  0.00    +0.000 A 
ATOM     11  C   UNL     1       5.416   3.368  15.400  0.00  0.00    +0.000 A 
ATOM     12  C   UNL     1       5.280   3.938  16.662  0.00  0.00    +0.000 A 
ATOM     13  C   UNL     1       6.080   5.026  17.002  0.00  0.00    +0.000 A 
ATOM     14  C   UNL     1       7.004   5.560  16.092  0.00  0.00    +0.000 A 
ATOM     15  C   UNL     1       7.113   5.020  14.791  0.00  0.00    +0.000 A 
BRANCH  10  17
ATOM     16  C   UNL     1       5.028   3.483  12.477  0.00  0.00    +0.000 C 
ATOM     17  O   UNL     1       6.283   3.435  13.165  0.00  0.00    +0.000 OA
ENDBRANCH  10  17
BRANCH  14  18
ATOM     18  O   UNL     1       7.682   6.618  16.650  0.00  0.00    +0.000 OA
ATOM     19  C   UNL     1       7.625   6.832  18.049  0.00  0.00    +0.000 C 
ENDBRANCH  14  18
BRANCH  15  20
ATOM     20  O   UNL     1       8.046   5.607  13.981  0.00  0.00    +0.000 OA
ATOM     21  C   UNL     1       7.901   5.613  12.573  0.00  0.00    +0.000 C 
ENDBRANCH  15  20
ENDBRANCH   1  12
BRANCH   7  22
ATOM     22  C   UNL     1       2.022   7.635  18.859  0.00  0.00    +0.000 A 
ATOM     23  C   UNL     1       2.237   8.472  17.765  0.00  0.00    +0.000 A 
ATOM     24  C   UNL     1       1.950   9.847  17.842  0.00  0.00    +0.000 A 
ATOM     25  C   UNL     1       1.415  10.443  18.997  0.00  0.00    +0.000 A 
ATOM     26  C   UNL     1       1.197   9.575  20.080  0.00  0.00    +0.000 A 
ATOM     27  C   UNL     1       1.500   8.201  20.021  0.00  0.00    +0.000 A 
BRANCH  25  28
ATOM     28  N   UNL     1       1.180  11.811  19.066  0.00  0.00    +0.000 N 
ATOM     29  C   UNL     1       0.215  12.359  20.018  0.00  0.00    +0.000 C 
ATOM     30  C   UNL     1       2.140  12.788  18.558  0.00  0.00    +0.000 C 
ENDBRANCH  25  28
ENDBRANCH   7  22
TORSDOF 6
ENDMDL
MODEL 2
REMARK VINA RESULT:      -8.3      0.456      2.577
REMARK  Name = 
REMARK  11 active torsions:
REMARK  status: ('A' for Active; 'I' for Inactive)
REMARK    1  A    between atoms: C_1  and  O_2
REMARK    2  A    between atoms: O_2  and  C_3
REMARK    3  A    between atoms: C_5  and  C_6
REMARK    4  A    between atoms: C_12  and  C_13
REMARK    5  A    between atoms: C_16  and  N_17
REMARK    6  A    between atoms: N_17  and  C_18
REMARK    7  A    between atoms: N_17  and  C_19
REMARK    8  A    between atoms: C_25  and  O_26
REMARK    9  A    between atoms: O_26  and  C_27
REMARK   10  A    between atoms: C_28  and  O_29
REMARK   11  A    between atoms: O_29  and  C_30
REMARK                            x       y       z     vdW  Elec       q    Type
REMARK                         _______ _______ _______ _____ _____    ______ ____
ROOT
ATOM      1  C   UNL     1       4.115   3.779  17.629  0.00  0.00    +0.000 A 
ATOM      2  C   UNL     1       4.034   2.456  17.854  0.00  0.00    +0.000 A 
ATOM      3  C   UNL     1       3.015   2.041  18.857  0.00  0.00    +0.000 A 
ATOM      4  N   UNL     1       2.214   2.823  19.514  0.00  0.00    +0.000 NA
ATOM      5  C   UNL     1       2.339   4.158  19.248  0.00  0.00    +0.000 A 
ATOM      6  C   UNL     1       1.681   5.259  19.746  0.00  0.00    +0.000 A 
ATOM      7  C   UNL     1       2.226   6.381  19.077  0.00  0.00    +0.000 A 
ATOM      8  N   UNL     1       3.188   6.001  18.223  0.00  0.00    +0.000 NA
ATOM      9  N   UNL     1       3.261   4.654  18.326  0.00  0.00    +0.000 N 
ENDROOT
BRANCH   1  12
ATOM     10  C   UNL     1       6.957   5.784  16.177  0.00  0.00    +0.000 A 
ATOM     11  C   UNL     1       5.879   5.406  16.995  0.00  0.00    +0.000 A 
ATOM     12  C   UNL     1       5.084   4.313  16.663  0.00  0.00    +0.000 A 
ATOM     13  C   UNL     1       5.302   3.662  15.452  0.00  0.00    +0.000 A 
ATOM     14  C   UNL     1       6.314   4.079  14.575  0.00  0.00    +0.000 A 
ATOM     15  C   UNL     1       7.160   5.154  14.927  0.00  0.00    +0.000 A 
BRANCH  10  17
ATOM     16  C   UNL     1       7.762   7.063  17.999  0.00  0.00    +0.000 C 
ATOM     17  O   UNL     1       7.802   6.782  16.595  0.00  0.00    +0.000 OA
ENDBRANCH  10  17
BRANCH  14  18
ATOM     18  O   UNL     1       6.336   3.295  13.446  0.00  0.00    +0.000 OA
ATOM     19  C   UNL     1       5.244   3.332  12.543  0.00  0.00    +0.000 C 
ENDBRANCH  14  18
BRANCH  15  20
ATOM     20  O   UNL     1       8.112   5.488  14.003  0.00  0.00    +0.000 OA
ATOM     21  C   UNL     1       7.793   5.621  12.631  0.00  0.00    +0.000 C 
ENDBRANCH  15  20
ENDBRANCH   1  12
BRANCH   7  22
ATOM     22  C   UNL     1       1.859   7.791  19.234  0.00  0.00    +0.000 A 
ATOM     23  C   UNL     1       1.361   8.267  20.447  0.00  0.00    +0.000 A 
ATOM     24  C   UNL     1       0.989   9.615  20.593  0.00  0.00    +0.000 A 
ATOM     25  C   UNL     1       1.120  10.552  19.554  0.00  0.00    +0.000 A 
ATOM     26  C   UNL     1       1.635  10.049  18.348  0.00  0.00    +0.000 A 
ATOM     27  C   UNL     1       1.991   8.697  18.183  0.00  0.00    +0.000 A 
BRANCH  25  28
ATOM     28  N   UNL     1       0.706  11.869  19.708  0.00  0.00    +0.000 N 
ATOM     29  C   UNL     1       0.209  12.355  20.995  0.00  0.00    +0.000 C 
ATOM     30  C   UNL     1       1.133  12.927  18.795  0.00  0.00    +0.000 C 
ENDBRANCH  25  28
ENDBRANCH   7  22
TORSDOF 6
ENDMDL
MODEL 3
REMARK VINA RESULT:      -8.3      0.316      1.108
REMARK  Name = 
REMARK  11 active torsions:
REMARK  status: ('A' for Active; 'I' for Inactive)
REMARK    1  A    between atoms: C_1  and  O_2
REMARK    2  A    between atoms: O_2  and  C_3
REMARK    3  A    between atoms: C_5  and  C_6
REMARK    4  A    between atoms: C_12  and  C_13
REMARK    5  A    between atoms: C_16  and  N_17
REMARK    6  A    between atoms: N_17  and  C_18
REMARK    7  A    between atoms: N_17  and  C_19
REMARK    8  A    between atoms: C_25  and  O_26
REMARK    9  A    between atoms: O_26  and  C_27
REMARK   10  A    between atoms: C_28  and  O_29
REMARK   11  A    between atoms: O_29  and  C_30
REMARK                            x       y       z     vdW  Elec       q    Type
REMARK                         _______ _______ _______ _____ _____    ______ ____
ROOT
ATOM      1  C   UNL     1       4.320   3.622  17.761  0.00  0.00    +0.000 A 
ATOM      2  C   UNL     1       4.199   2.326  18.099  0.00  0.00    +0.000 A 
ATOM      3  C   UNL     1       3.129   2.021  19.088  0.00  0.00    +0.000 A 
ATOM      4  N   UNL     1       2.318   2.873  19.636  0.00  0.00    +0.000 NA
ATOM      5  C   UNL     1       2.484   4.177  19.259  0.00  0.00    +0.000 A 
ATOM      6  C   UNL     1       1.829   5.330  19.626  0.00  0.00    +0.000 A 
ATOM      7  C   UNL     1       2.427   6.377  18.886  0.00  0.00    +0.000 A 
ATOM      8  N   UNL     1       3.417   5.905  18.113  0.00  0.00    +0.000 NA
ATOM      9  N   UNL     1       3.456   4.571  18.338  0.00  0.00    +0.000 N 
ENDROOT
BRANCH   1  12
ATOM     10  C   UNL     1       6.244   3.980  14.540  0.00  0.00    +0.000 A 
ATOM     11  C   UNL     1       5.428   3.439  15.549  0.00  0.00    +0.000 A 
ATOM     12  C   UNL     1       5.341   4.049  16.797  0.00  0.00    +0.000 A 
ATOM     13  C   UNL     1       6.155   5.145  17.072  0.00  0.00    +0.000 A 
ATOM     14  C   UNL     1       7.044   5.648  16.110  0.00  0.00    +0.000 A 
ATOM     15  C   UNL     1       7.102   5.068  14.824  0.00  0.00    +0.000 A 
BRANCH  10  17
ATOM     16  C   UNL     1       4.956   3.556  12.600  0.00  0.00    +0.000 C 
ATOM     17  O   UNL     1       6.210   3.434  13.282  0.00  0.00    +0.000 OA
ENDBRANCH  10  17
BRANCH  14  18
ATOM     18  O   UNL     1       7.744   6.722  16.608  0.00  0.00    +0.000 OA
ATOM     19  C   UNL     1       7.397   7.264  17.871  0.00  0.00    +0.000 C 
ENDBRANCH  14  18
BRANCH  15  20
ATOM     20  O   UNL     1       8.004   5.627  13.960  0.00  0.00    +0.000 OA
ATOM     21  C   UNL     1       7.935   5.390  12.567  0.00  0.00    +0.000 C 
ENDBRANCH  15  20
ENDBRANCH   1  12
BRANCH   7  22
ATOM     22  C   UNL     1       2.085   7.802  18.899  0.00  0.00    +0.000 A 
ATOM     23  C   UNL     1       1.438   8.368  19.997  0.00  0.00    +0.000 A 
ATOM     24  C   UNL     1       1.090   9.731  20.004  0.00  0.00    +0.000 A 
ATOM     25  C   UNL     1       1.393  10.593  18.937  0.00  0.00    +0.000 A 
ATOM     26  C   UNL     1       2.056  10.000  17.850  0.00  0.00    +0.000 A 
ATOM     27  C   UNL     1       2.390   8.633  17.823  0.00  0.00    +0.000 A 
BRANCH  25  28
ATOM     28  N   UNL     1       1.002  11.926  18.947  0.00  0.00    +0.000 N 
ATOM     29  C   UNL     1       1.874  12.969  18.406  0.00  0.00    +0.000 C 
ATOM     30  C   UNL     1      -0.400  12.321  19.063  0.00  0.00    +0.000 C 
ENDBRANCH  25  28
ENDBRANCH   7  22
TORSDOF 6
ENDMDL
MODEL 4
REMARK VINA RESULT:      -8.0      0.852      2.520
REMARK  Name = 
REMARK  11 active torsions:
REMARK  status: ('A' for Active; 'I' for Inactive)
REMARK    1  A    between atoms: C_1  and  O_2
REMARK    2  A    between atoms: O_2  and  C_3
REMARK    3  A    between atoms: C_5  and  C_6
REMARK    4  A    between atoms: C_12  and  C_13
REMARK    5  A    between atoms: C_16  and  N_17
REMARK    6  A    between atoms: N_17  and  C_18
REMARK    7  A    between atoms: N_17  and  C_19
REMARK    8  A    between atoms: C_25  and  O_26
REMARK    9  A    between atoms: O_26  and  C_27
REMARK   10  A    between atoms: C_28  and  O_29
REMARK   11  A    between atoms: O_29  and  C_30
REMARK                            x       y       z     vdW  Elec       q    Type
REMARK                         _______ _______ _______ _____ _____    ______ ____
ROOT
ATOM      1  C   UNL     1       4.302   4.048  18.260  0.00  0.00    +0.000 A 
ATOM      2  C   UNL     1       4.312   2.767  18.670  0.00  0.00    +0.000 A 
ATOM      3  C   UNL     1       3.351   2.439  19.758  0.00  0.00    +0.000 A 
ATOM      4  N   UNL     1       2.522   3.256  20.330  0.00  0.00    +0.000 NA
ATOM      5  C   UNL     1       2.553   4.545  19.877  0.00  0.00    +0.000 A 
ATOM      6  C   UNL     1       1.840   5.664  20.241  0.00  0.00    +0.000 A 
ATOM      7  C   UNL     1       2.292   6.711  19.403  0.00  0.00    +0.000 A 
ATOM      8  N   UNL     1       3.251   6.273  18.574  0.00  0.00    +0.000 NA
ATOM      9  N   UNL     1       3.414   4.960  18.860  0.00  0.00    +0.000 N 
ENDROOT
BRANCH   1  12
ATOM     10  C   UNL     1       7.030   5.929  16.464  0.00  0.00    +0.000 A 
ATOM     11  C   UNL     1       6.006   5.621  17.377  0.00  0.00    +0.000 A 
ATOM     12  C   UNL     1       5.205   4.497  17.193  0.00  0.00    +0.000 A 
ATOM     13  C   UNL     1       5.360   3.739  16.036  0.00  0.00    +0.000 A 
ATOM     14  C   UNL     1       6.314   4.080  15.066  0.00  0.00    +0.000 A 
ATOM     15  C   UNL     1       7.167   5.189  15.268  0.00  0.00    +0.000 A 
BRANCH  10  17
ATOM     16  C   UNL     1       7.898   7.400  18.104  0.00  0.00    +0.000 C 
ATOM     17  O   UNL     1       7.886   6.967  16.739  0.00  0.00    +0.000 OA
ENDBRANCH  10  17
BRANCH  14  18
ATOM     18  O   UNL     1       6.278   3.196  14.014  0.00  0.00    +0.000 OA
ATOM     19  C   UNL     1       5.373   3.411  12.945  0.00  0.00    +0.000 C 
ENDBRANCH  14  18
BRANCH  15  20
ATOM     20  O   UNL     1       8.059   5.442  14.262  0.00  0.00    +0.000 OA
ATOM     21  C   UNL     1       7.625   5.702  12.940  0.00  0.00    +0.000 C 
ENDBRANCH  15  20
ENDBRANCH   1  12
BRANCH   7  22
ATOM     22  C   UNL     1       1.840   8.104  19.375  0.00  0.00    +0.000 A 
ATOM     23  C   UNL     1       2.012   8.886  18.233  0.00  0.00    +0.000 A 
ATOM     24  C   UNL     1       1.598  10.230  18.210  0.00  0.00    +0.000 A 
ATOM     25  C   UNL     1       0.972  10.846  19.307  0.00  0.00    +0.000 A 
ATOM     26  C   UNL     1       0.800  10.033  20.440  0.00  0.00    +0.000 A 
ATOM     27  C   UNL     1       1.230   8.693  20.481  0.00  0.00    +0.000 A 
BRANCH  25  28
ATOM     28  N   UNL     1       0.610  12.187  19.278  0.00  0.00    +0.000 N 
ATOM     29  C   UNL     1      -0.689  12.602  18.748  0.00  0.00    +0.000 C 
ATOM     30  C   UNL     1       1.252  13.181  20.134  0.00  0.00    +0.000 C 
ENDBRANCH  25  28
ENDBRANCH   7  22
TORSDOF 6
ENDMDL
MODEL 5
REMARK VINA RESULT:      -8.0      0.946      1.285
REMARK  Name = 
REMARK  11 active torsions:
REMARK  status: ('A' for Active; 'I' for Inactive)
REMARK    1  A    between atoms: C_1  and  O_2
REMARK    2  A    between atoms: O_2  and  C_3
REMARK    3  A    between atoms: C_5  and  C_6
REMARK    4  A    between atoms: C_12  and  C_13
REMARK    5  A    between atoms: C_16  and  N_17
REMARK    6  A    between atoms: N_17  and  C_18
REMARK    7  A    between atoms: N_17  and  C_19
REMARK    8  A    between atoms: C_25  and  O_26
REMARK    9  A    between atoms: O_26  and  C_27
REMARK   10  A    between atoms: C_28  and  O_29
REMARK   11  A    between atoms: O_29  and  C_30
REMARK                            x       y       z     vdW  Elec       q    Type
REMARK                         _______ _______ _______ _____ _____    ______ ____
ROOT
ATOM      1  C   UNL     1       4.397   3.889  18.380  0.00  0.00    +0.000 A 
ATOM      2  C   UNL     1       4.504   2.642  18.873  0.00  0.00    +0.000 A 
ATOM      3  C   UNL     1       3.666   2.356  20.069  0.00  0.00    +0.000 A 
ATOM      4  N   UNL     1       2.859   3.180  20.663  0.00  0.00    +0.000 NA
ATOM      5  C   UNL     1       2.789   4.434  20.123  0.00  0.00    +0.000 A 
ATOM      6  C   UNL     1       2.064   5.548  20.479  0.00  0.00    +0.000 A 
ATOM      7  C   UNL     1       2.388   6.549  19.532  0.00  0.00    +0.000 A 
ATOM      8  N   UNL     1       3.283   6.089  18.644  0.00  0.00    +0.000 NA
ATOM      9  N   UNL     1       3.530   4.808  19.002  0.00  0.00    +0.000 N 
ENDROOT
BRANCH   1  12
ATOM     10  C   UNL     1       5.400   4.408  14.785  0.00  0.00    +0.000 A 
ATOM     11  C   UNL     1       4.810   3.855  15.933  0.00  0.00    +0.000 A 
ATOM     12  C   UNL     1       5.175   4.294  17.203  0.00  0.00    +0.000 A 
ATOM     13  C   UNL     1       6.212   5.215  17.326  0.00  0.00    +0.000 A 
ATOM     14  C   UNL     1       6.878   5.714  16.197  0.00  0.00    +0.000 A 
ATOM     15  C   UNL     1       6.480   5.313  14.902  0.00  0.00    +0.000 A 
BRANCH  10  17
ATOM     16  C   UNL     1       5.790   3.187  12.794  0.00  0.00    +0.000 C 
ATOM     17  O   UNL     1       4.929   4.049  13.546  0.00  0.00    +0.000 OA
ENDBRANCH  10  17
BRANCH  14  18
ATOM     18  O   UNL     1       7.865   6.599  16.564  0.00  0.00    +0.000 OA
ATOM     19  C   UNL     1       7.582   7.616  17.510  0.00  0.00    +0.000 C 
ENDBRANCH  14  18
BRANCH  15  20
ATOM     20  O   UNL     1       7.196   5.851  13.868  0.00  0.00    +0.000 OA
ATOM     21  C   UNL     1       8.329   5.191  13.334  0.00  0.00    +0.000 C 
ENDBRANCH  15  20
ENDBRANCH   1  12
BRANCH   7  22
ATOM     22  C   UNL     1       1.873   7.918  19.454  0.00  0.00    +0.000 A 
ATOM     23  C   UNL     1       1.273   8.517  20.562  0.00  0.00    +0.000 A 
ATOM     24  C   UNL     1       0.760   9.824  20.484  0.00  0.00    +0.000 A 
ATOM     25  C   UNL     1       0.844  10.601  19.316  0.00  0.00    +0.000 A 
ATOM     26  C   UNL     1       1.464   9.978  18.220  0.00  0.00    +0.000 A 
ATOM     27  C   UNL     1       1.962   8.663  18.280  0.00  0.00    +0.000 A 
BRANCH  25  28
ATOM     28  N   UNL     1       0.292  11.874  19.249  0.00  0.00    +0.000 N 
ATOM     29  C   UNL     1      -0.754  12.288  20.184  0.00  0.00    +0.000 C 
ATOM     30  C   UNL     1       0.980  12.983  18.592  0.00  0.00    +0.000 C 
ENDBRANCH  25  28
ENDBRANCH   7  22
TORSDOF 6
ENDMDL
MODEL 6
REMARK VINA RESULT:      -8.0      0.991      1.165
REMARK  Name = 
REMARK  11 active torsions:
REMARK  status: ('A' for Active; 'I' for Inactive)
REMARK    1  A    between atoms: C_1  and  O_2
REMARK    2  A    between atoms: O_2  and  C_3
REMARK    3  A    between atoms: C_5  and  C_6
REMARK    4  A    between atoms: C_12  and  C_13
REMARK    5  A    between atoms: C_16  and  N_17
REMARK    6  A    between atoms: N_17  and  C_18
REMARK    7  A    between atoms: N_17  and  C_19
REMARK    8  A    between atoms: C_25  and  O_26
REMARK    9  A    between atoms: O_26  and  C_27
REMARK   10  A    between atoms: C_28  and  O_29
REMARK   11  A    between atoms: O_29  and  C_30
REMARK                            x       y       z     vdW  Elec       q    Type
REMARK                         _______ _______ _______ _____ _____    ______ ____
ROOT
ATOM      1  C   UNL     1       4.402   3.932  18.452  0.00  0.00    +0.000 A 
ATOM      2  C   UNL     1       4.514   2.691  18.959  0.00  0.00    +0.000 A 
ATOM      3  C   UNL     1       3.676   2.414  20.157  0.00  0.00    +0.000 A 
ATOM      4  N   UNL     1       2.863   3.241  20.740  0.00  0.00    +0.000 NA
ATOM      5  C   UNL     1       2.788   4.488  20.185  0.00  0.00    +0.000 A 
ATOM      6  C   UNL     1       2.057   5.602  20.527  0.00  0.00    +0.000 A 
ATOM      7  C   UNL     1       2.376   6.593  19.569  0.00  0.00    +0.000 A 
ATOM      8  N   UNL     1       3.275   6.128  18.688  0.00  0.00    +0.000 NA
ATOM      9  N   UNL     1       3.529   4.852  19.061  0.00  0.00    +0.000 N 
ENDROOT
BRANCH   1  12
ATOM     10  C   UNL     1       5.404   4.424  14.852  0.00  0.00    +0.000 A 
ATOM     11  C   UNL     1       4.813   3.879  16.005  0.00  0.00    +0.000 A 
ATOM     12  C   UNL     1       5.180   4.327  17.271  0.00  0.00    +0.000 A 
ATOM     13  C   UNL     1       6.218   5.247  17.388  0.00  0.00    +0.000 A 
ATOM     14  C   UNL     1       6.885   5.736  16.255  0.00  0.00    +0.000 A 
ATOM     15  C   UNL     1       6.485   5.327  14.963  0.00  0.00    +0.000 A 
BRANCH  10  17
ATOM     16  C   UNL     1       5.770   3.156  12.887  0.00  0.00    +0.000 C 
ATOM     17  O   UNL     1       4.930   4.058  13.616  0.00  0.00    +0.000 OA
ENDBRANCH  10  17
BRANCH  14  18
ATOM     18  O   UNL     1       7.873   6.622  16.615  0.00  0.00    +0.000 OA
ATOM     19  C   UNL     1       7.586   7.662  17.534  0.00  0.00    +0.000 C 
ENDBRANCH  14  18
BRANCH  15  20
ATOM     20  O   UNL     1       7.202   5.857  13.924  0.00  0.00    +0.000 OA
ATOM     21  C   UNL     1       8.310   5.173  13.369  0.00  0.00    +0.000 C 
ENDBRANCH  15  20
ENDBRANCH   1  12
BRANCH   7  22
ATOM     22  C   UNL     1       1.855   7.959  19.475  0.00  0.00    +0.000 A 
ATOM     23  C   UNL     1       1.963   8.682  18.286  0.00  0.00    +0.000 A 
ATOM     24  C   UNL     1       1.481  10.000  18.199  0.00  0.00    +0.000 A 
ATOM     25  C   UNL     1       0.850  10.647  19.276  0.00  0.00    +0.000 A 
ATOM     26  C   UNL     1       0.745   9.893  20.456  0.00  0.00    +0.000 A 
ATOM     27  C   UNL     1       1.242   8.580  20.561  0.00  0.00    +0.000 A 
BRANCH  25  28
ATOM     28  N   UNL     1       0.422  11.965  19.180  0.00  0.00    +0.000 N 
ATOM     29  C   UNL     1       1.274  12.990  18.577  0.00  0.00    +0.000 C 
ATOM     30  C   UNL     1      -0.993  12.326  19.245  0.00  0.00    +0.000 C 
ENDBRANCH  25  28
ENDBRANCH   7  22
TORSDOF 6
ENDMDL
MODEL 7
REMARK VINA RESULT:      -7.7      1.233      2.847
REMARK  Name = 
REMARK  11 active torsions:
REMARK  status: ('A' for Active; 'I' for Inactive)
REMARK    1  A    between atoms: C_1  and  O_2
REMARK    2  A    between atoms: O_2  and  C_3
REMARK    3  A    between atoms: C_5  and  C_6
REMARK    4  A    between atoms: C_12  and  C_13
REMARK    5  A    between atoms: C_16  and  N_17
REMARK    6  A    between atoms: N_17  and  C_18
REMARK    7  A    between atoms: N_17  and  C_19
REMARK    8  A    between atoms: C_25  and  O_26
REMARK    9  A    between atoms: O_26  and  C_27
REMARK   10  A    between atoms: C_28  and  O_29
REMARK   11  A    between atoms: O_29  and  C_30
REMARK                            x       y       z     vdW  Elec       q    Type
REMARK                         _______ _______ _______ _____ _____    ______ ____
ROOT
ATOM      1  C   UNL     1       4.221   4.132  18.939  0.00  0.00    +0.000 A 
ATOM      2  C   UNL     1       4.256   2.884  19.439  0.00  0.00    +0.000 A 
ATOM      3  C   UNL     1       3.282   2.608  20.531  0.00  0.00    +0.000 A 
ATOM      4  N   UNL     1       2.421   3.442  21.028  0.00  0.00    +0.000 NA
ATOM      5  C   UNL     1       2.429   4.696  20.485  0.00  0.00    +0.000 A 
ATOM      6  C   UNL     1       1.680   5.818  20.756  0.00  0.00    +0.000 A 
ATOM      7  C   UNL     1       2.122   6.815  19.853  0.00  0.00    +0.000 A 
ATOM      8  N   UNL     1       3.108   6.345  19.075  0.00  0.00    +0.000 NA
ATOM      9  N   UNL     1       3.298   5.061  19.457  0.00  0.00    +0.000 N 
ENDROOT
BRANCH   1  12
ATOM     10  C   UNL     1       7.080   5.786  17.123  0.00  0.00    +0.000 A 
ATOM     11  C   UNL     1       6.059   5.549  18.059  0.00  0.00    +0.000 A 
ATOM     12  C   UNL     1       5.134   4.528  17.859  0.00  0.00    +0.000 A 
ATOM     13  C   UNL     1       5.166   3.811  16.666  0.00  0.00    +0.000 A 
ATOM     14  C   UNL     1       6.121   4.090  15.677  0.00  0.00    +0.000 A 
ATOM     15  C   UNL     1       7.096   5.089  15.893  0.00  0.00    +0.000 A 
BRANCH  10  17
ATOM     16  C   UNL     1       7.588   8.058  17.551  0.00  0.00    +0.000 C 
ATOM     17  O   UNL     1       8.053   6.711  17.409  0.00  0.00    +0.000 OA
ENDBRANCH  10  17
BRANCH  14  18
ATOM     18  O   UNL     1       5.954   3.264  14.591  0.00  0.00    +0.000 OA
ATOM     19  C   UNL     1       5.089   3.651  13.538  0.00  0.00    +0.000 C 
ENDBRANCH  14  18
BRANCH  15  20
ATOM     20  O   UNL     1       7.978   5.290  14.866  0.00  0.00    +0.000 OA
ATOM     21  C   UNL     1       7.531   5.634  13.568  0.00  0.00    +0.000 C 
ENDBRANCH  15  20
ENDBRANCH   1  12
BRANCH   7  22
ATOM     22  C   UNL     1       1.636   8.191  19.718  0.00  0.00    +0.000 A 
ATOM     23  C   UNL     1       1.072   8.856  20.807  0.00  0.00    +0.000 A 
ATOM     24  C   UNL     1       0.585  10.169  20.675  0.00  0.00    +0.000 A 
ATOM     25  C   UNL     1       0.663  10.886  19.468  0.00  0.00    +0.000 A 
ATOM     26  C   UNL     1       1.246  10.196  18.392  0.00  0.00    +0.000 A 
ATOM     27  C   UNL     1       1.717   8.875  18.507  0.00  0.00    +0.000 A 
BRANCH  25  28
ATOM     28  N   UNL     1       0.137  12.166  19.349  0.00  0.00    +0.000 N 
ATOM     29  C   UNL     1       0.875  13.219  18.652  0.00  0.00    +0.000 C 
ATOM     30  C   UNL     1      -1.293  12.433  19.492  0.00  0.00    +0.000 C 
ENDBRANCH  25  28
ENDBRANCH   7  22
TORSDOF 6
ENDMDL
MODEL 8
REMARK VINA RESULT:      -7.6      0.895      2.592
REMARK  Name = 
REMARK  11 active torsions:
REMARK  status: ('A' for Active; 'I' for Inactive)
REMARK    1  A    between atoms: C_1  and  O_2
REMARK    2  A    between atoms: O_2  and  C_3
REMARK    3  A    between atoms: C_5  and  C_6
REMARK    4  A    between atoms: C_12  and  C_13
REMARK    5  A    between atoms: C_16  and  N_17
REMARK    6  A    between atoms: N_17  and  C_18
REMARK    7  A    between atoms: N_17  and  C_19
REMARK    8  A    between atoms: C_25  and  O_26
REMARK    9  A    between atoms: O_26  and  C_27
REMARK   10  A    between atoms: C_28  and  O_29
REMARK   11  A    between atoms: O_29  and  C_30
REMARK                            x       y       z     vdW  Elec       q    Type
REMARK                         _______ _______ _______ _____ _____    ______ ____
ROOT
ATOM      1  C   UNL     1       4.041   3.734  17.788  0.00  0.00    +0.000 A 
ATOM      2  C   UNL     1       4.079   2.402  17.969  0.00  0.00    +0.000 A 
ATOM      3  C   UNL     1       3.237   1.886  19.083  0.00  0.00    +0.000 A 
ATOM      4  N   UNL     1       2.485   2.588  19.874  0.00  0.00    +0.000 NA
ATOM      5  C   UNL     1       2.484   3.936  19.648  0.00  0.00    +0.000 A 
ATOM      6  C   UNL     1       1.829   4.972  20.274  0.00  0.00    +0.000 A 
ATOM      7  C   UNL     1       2.201   6.150  19.583  0.00  0.00    +0.000 A 
ATOM      8  N   UNL     1       3.059   5.866  18.591  0.00  0.00    +0.000 NA
ATOM      9  N   UNL     1       3.235   4.525  18.629  0.00  0.00    +0.000 N 
ENDROOT
BRANCH   1  12
ATOM     10  C   UNL     1       6.752   5.693  16.052  0.00  0.00    +0.000 A 
ATOM     11  C   UNL     1       5.849   5.259  17.037  0.00  0.00    +0.000 A 
ATOM     12  C   UNL     1       4.829   4.365  16.722  0.00  0.00    +0.000 A 
ATOM     13  C   UNL     1       4.647   3.987  15.395  0.00  0.00    +0.000 A 
ATOM     14  C   UNL     1       5.480   4.480  14.379  0.00  0.00    +0.000 A 
ATOM     15  C   UNL     1       6.550   5.347  14.696  0.00  0.00    +0.000 A 
BRANCH  10  17
ATOM     16  C   UNL     1       7.557   7.428  17.447  0.00  0.00    +0.000 C 
ATOM     17  O   UNL     1       7.823   6.470  16.416  0.00  0.00    +0.000 OA
ENDBRANCH  10  17
BRANCH  14  18
ATOM     18  O   UNL     1       5.106   3.977  13.155  0.00  0.00    +0.000 OA
ATOM     19  C   UNL     1       5.898   2.980  12.532  0.00  0.00    +0.000 C 
ENDBRANCH  14  18
BRANCH  15  20
ATOM     20  O   UNL     1       7.299   5.776  13.635  0.00  0.00    +0.000 OA
ATOM     21  C   UNL     1       8.497   5.119  13.265  0.00  0.00    +0.000 C 
ENDBRANCH  15  20
ENDBRANCH   1  12
BRANCH   7  22
ATOM     22  C   UNL     1       1.767   7.524  19.844  0.00  0.00    +0.000 A 
ATOM     23  C   UNL     1       1.756   8.473  18.821  0.00  0.00    +0.000 A 
ATOM     24  C   UNL     1       1.359   9.799  19.073  0.00  0.00    +0.000 A 
ATOM     25  C   UNL     1       0.933  10.232  20.340  0.00  0.00    +0.000 A 
ATOM     26  C   UNL     1       0.943   9.254  21.349  0.00  0.00    +0.000 A 
ATOM     27  C   UNL     1       1.358   7.929  21.113  0.00  0.00    +0.000 A 
BRANCH  25  28
ATOM     28  N   UNL     1       0.586  11.557  20.576  0.00  0.00    +0.000 N 
ATOM     29  C   UNL     1       1.415  12.651  20.070  0.00  0.00    +0.000 C 
ATOM     30  C   UNL     1      -0.777  11.951  20.923  0.00  0.00    +0.000 C 
ENDBRANCH  25  28
ENDBRANCH   7  22
TORSDOF 6
ENDMDL
MODEL 9
REMARK VINA RESULT:      -7.3      4.411      9.719
REMARK  Name = 
REMARK  11 active torsions:
REMARK  status: ('A' for Active; 'I' for Inactive)
REMARK    1  A    between atoms: C_1  and  O_2
REMARK    2  A    between atoms: O_2  and  C_3
REMARK    3  A    between atoms: C_5  and  C_6
REMARK    4  A    between atoms: C_12  and  C_13
REMARK    5  A    between atoms: C_16  and  N_17
REMARK    6  A    between atoms: N_17  and  C_18
REMARK    7  A    between atoms: N_17  and  C_19
REMARK    8  A    between atoms: C_25  and  O_26
REMARK    9  A    between atoms: O_26  and  C_27
REMARK   10  A    between atoms: C_28  and  O_29
REMARK   11  A    between atoms: O_29  and  C_30
REMARK                            x       y       z     vdW  Elec       q    Type
REMARK                         _______ _______ _______ _____ _____    ______ ____
ROOT
ATOM      1  C   UNL     1      -0.051  12.591  21.547  0.00  0.00    +0.000 A 
ATOM      2  C   UNL     1      -0.885  13.038  22.503  0.00  0.00    +0.000 A 
ATOM      3  C   UNL     1      -1.540  11.981  23.322  0.00  0.00    +0.000 A 
ATOM      4  N   UNL     1      -1.380  10.699  23.202  0.00  0.00    +0.000 NA
ATOM      5  C   UNL     1      -0.523  10.300  22.215  0.00  0.00    +0.000 A 
ATOM      6  C   UNL     1      -0.121   9.051  21.799  0.00  0.00    +0.000 A 
ATOM      7  C   UNL     1       0.800   9.264  20.745  0.00  0.00    +0.000 A 
ATOM      8  N   UNL     1       0.947  10.575  20.503  0.00  0.00    +0.000 NA
ATOM      9  N   UNL     1       0.144  11.206  21.391  0.00  0.00    +0.000 N 
ENDROOT
BRANCH   1  12
ATOM     10  C   UNL     1       0.570  15.371  19.079  0.00  0.00    +0.000 A 
ATOM     11  C   UNL     1      -0.055  14.312  19.759  0.00  0.00    +0.000 A 
ATOM     12  C   UNL     1       0.654  13.536  20.672  0.00  0.00    +0.000 A 
ATOM     13  C   UNL     1       2.020  13.753  20.827  0.00  0.00    +0.000 A 
ATOM     14  C   UNL     1       2.685  14.746  20.092  0.00  0.00    +0.000 A 
ATOM     15  C   UNL     1       1.965  15.573  19.200  0.00  0.00    +0.000 A 
BRANCH  10  17
ATOM     16  C   UNL     1      -1.010  17.131  18.991  0.00  0.00    +0.000 C 
ATOM     17  O   UNL     1      -0.183  16.199  18.285  0.00  0.00    +0.000 OA
ENDBRANCH  10  17
BRANCH  14  18
ATOM     18  O   UNL     1       4.024  14.771  20.404  0.00  0.00    +0.000 OA
ATOM     19  C   UNL     1       4.433  14.650  21.756  0.00  0.00    +0.000 C 
ENDBRANCH  14  18
BRANCH  15  20
ATOM     20  O   UNL     1       2.704  16.506  18.527  0.00  0.00    +0.000 OA
ATOM     21  C   UNL     1       3.325  16.203  17.291  0.00  0.00    +0.000 C 
ENDBRANCH  15  20
ENDBRANCH   1  12
BRANCH   7  22
ATOM     22  C   UNL     1       1.531   8.260  19.968  0.00  0.00    +0.000 A 
ATOM     23  C   UNL     1       1.956   8.535  18.668  0.00  0.00    +0.000 A 
ATOM     24  C   UNL     1       2.640   7.566  17.914  0.00  0.00    +0.000 A 
ATOM     25  C   UNL     1       2.956   6.295  18.424  0.00  0.00    +0.000 A 
ATOM     26  C   UNL     1       2.527   6.049  19.739  0.00  0.00    +0.000 A 
ATOM     27  C   UNL     1       1.823   7.004  20.496  0.00  0.00    +0.000 A 
BRANCH  25  28
ATOM     28  N   UNL     1       3.595   5.338  17.645  0.00  0.00    +0.000 N 
ATOM     29  C   UNL     1       5.030   5.426  17.376  0.00  0.00    +0.000 C 
ATOM     30  C   UNL     1       3.026   4.010  17.430  0.00  0.00    +0.000 C 
ENDBRANCH  25  28
ENDBRANCH   7  22
TORSDOF 6
ENDMDL
