MODEL 1
REMARK VINA RESULT:      -7.4      0.000      0.000
REMARK  Name = 
REMARK  11 active torsions:
REMARK  status: ('A' for Active; 'I' for Inactive)
REMARK    1  A    between atoms: C_1  and  C_2
REMARK    2  A    between atoms: N_4  and  C1*_5
REMARK    3  A    between atoms: C4*_7  and  C5*_8
REMARK    4  A    between atoms: C5*_8  and  O5*_9
REMARK    5  A    between atoms: C3*_10  and  O3*_11
REMARK    6  A    between atoms: C2*_12  and  O2*_13
REMARK    7  A    between atoms: N_17  and  C_18
REMARK    8  A    between atoms: C_18  and  C_19
REMARK    9  A    between atoms: C_19  and  C_20
REMARK   10  A    between atoms: C_20  and  C_21
REMARK   11  A    between atoms: C_20  and  C_22
REMARK                            x       y       z     vdW  Elec       q    Type
REMARK                         _______ _______ _______ _____ _____    ______ ____
ROOT
ATOM      1  C   UNL     1       8.103   5.826  19.530  0.00  0.00    +0.000 C 
ATOM      2  C   UNL     1       6.877   5.298  18.888  0.00  0.00    +0.000 A 
ATOM      3  N   UNL     1       5.809   4.924  19.619  0.00  0.00    +0.000 NA
ATOM      4  N   UNL     1       4.923   4.451  18.692  0.00  0.00    +0.000 N 
ATOM      5  C   UNL     1       5.403   4.535  17.416  0.00  0.00    +0.000 A 
ATOM      6  C   UNL     1       4.832   4.139  16.175  0.00  0.00    +0.000 A 
ATOM      7  O   UNL     1       3.754   3.562  16.067  0.00  0.00    +0.000 OA
ATOM      8  N   UNL     1       5.649   4.465  15.096  0.00  0.00    +0.000 N 
ATOM      9  C   UNL     1       6.914   5.008  15.294  0.00  0.00    +0.000 A 
ATOM     10  N   UNL     1       7.466   5.333  16.425  0.00  0.00    +0.000 NA
ATOM     11  C   UNL     1       6.638   5.091  17.521  0.00  0.00    +0.000 A 
ENDROOT
BRANCH   4  12
ATOM     12  C1* UNL     1       3.654   3.873  19.111  0.00  0.00    +0.000 C 
ATOM     13  O4* UNL     1       2.577   4.817  18.894  0.00  0.00    +0.000 OA
ATOM     14  C4* UNL     1       1.694   4.761  20.041  0.00  0.00    +0.000 C 
ATOM     15  C3* UNL     1       2.147   3.572  20.885  0.00  0.00    +0.000 C 
ATOM     16  C2* UNL     1       3.633   3.476  20.583  0.00  0.00    +0.000 C 
BRANCH  15  17
ATOM     17  O3* UNL     1       1.525   2.346  20.452  0.00  0.00    +0.000 OA
ATOM     18  H3* UNL     1       0.557   2.462  20.446  0.00  0.00    +0.000 HD
ENDBRANCH  15  17
BRANCH  16  19
ATOM     19  O2* UNL     1       4.128   2.158  20.820  0.00  0.00    +0.000 OA
ATOM     20  H2* UNL     1       5.073   2.169  20.556  0.00  0.00    +0.000 HD
ENDBRANCH  16  19
BRANCH  14  21
ATOM     21  C5* UNL     1       1.783   6.096  20.782  0.00  0.00    +0.000 C 
BRANCH  21  22
ATOM     22  O5* UNL     1       2.474   7.044  19.971  0.00  0.00    +0.000 OA
ATOM     23  H5* UNL     1       2.810   6.541  19.204  0.00  0.00    +0.000 HD
ENDBRANCH  21  22
ENDBRANCH  14  21
ENDBRANCH   4  12
BRANCH   8  24
ATOM     24  C   UNL     1       5.193   4.131  13.753  0.00  0.00    +0.000 C 
BRANCH  24  25
ATOM     25  C   UNL     1       6.283   3.519  12.858  0.00  0.00    +0.000 C 
BRANCH  25  26
ATOM     26  C   UNL     1       5.788   2.934  11.523  0.00  0.00    +0.000 C 
ATOM     27  C   UNL     1       6.105   1.445  11.395  0.00  0.00    +0.000 C 
ATOM     28  C   UNL     1       4.278   3.156  11.395  0.00  0.00    +0.000 C 
ENDBRANCH  25  26
ENDBRANCH  24  25
ENDBRANCH   8  24
TORSDOF 8
ENDMDL
MODEL 2
REMARK VINA RESULT:      -7.4      1.159      1.610
REMARK  Name = 
REMARK  11 active torsions:
REMARK  status: ('A' for Active; 'I' for Inactive)
REMARK    1  A    between atoms: C_1  and  C_2
REMARK    2  A    between atoms: N_4  and  C1*_5
REMARK    3  A    between atoms: C4*_7  and  C5*_8
REMARK    4  A    between atoms: C5*_8  and  O5*_9
REMARK    5  A    between atoms: C3*_10  and  O3*_11
REMARK    6  A    between atoms: C2*_12  and  O2*_13
REMARK    7  A    between atoms: N_17  and  C_18
REMARK    8  A    between atoms: C_18  and  C_19
REMARK    9  A    between atoms: C_19  and  C_20
REMARK   10  A    between atoms: C_20  and  C_21
REMARK   11  A    between atoms: C_20  and  C_22
REMARK                            x       y       z     vdW  Elec       q    Type
REMARK                         _______ _______ _______ _____ _____    ______ ____
ROOT
ATOM      1  C   UNL     1       7.577   5.375  19.885  0.00  0.00    +0.000 C 
ATOM      2  C   UNL     1       6.444   5.040  18.992  0.00  0.00    +0.000 A 
ATOM      3  N   UNL     1       5.226   4.744  19.485  0.00  0.00    +0.000 NA
ATOM      4  N   UNL     1       4.484   4.444  18.377  0.00  0.00    +0.000 N 
ATOM      5  C   UNL     1       5.199   4.560  17.219  0.00  0.00    +0.000 A 
ATOM      6  C   UNL     1       4.831   4.320  15.866  0.00  0.00    +0.000 A 
ATOM      7  O   UNL     1       3.739   3.883  15.518  0.00  0.00    +0.000 OA
ATOM      8  N   UNL     1       5.864   4.623  14.982  0.00  0.00    +0.000 N 
ATOM      9  C   UNL     1       7.119   4.999  15.449  0.00  0.00    +0.000 A 
ATOM     10  N   UNL     1       7.481   5.178  16.685  0.00  0.00    +0.000 NA
ATOM     11  C   UNL     1       6.444   4.958  17.591  0.00  0.00    +0.000 A 
ENDROOT
BRANCH   4  12
ATOM     12  C1* UNL     1       3.108   3.990  18.511  0.00  0.00    +0.000 C 
ATOM     13  O4* UNL     1       2.455   4.687  19.601  0.00  0.00    +0.000 OA
ATOM     14  C4* UNL     1       1.657   3.725  20.334  0.00  0.00    +0.000 C 
ATOM     15  C3* UNL     1       1.662   2.437  19.515  0.00  0.00    +0.000 C 
ATOM     16  C2* UNL     1       2.992   2.494  18.783  0.00  0.00    +0.000 C 
BRANCH  15  17
ATOM     17  O3* UNL     1       0.612   2.430  18.527  0.00  0.00    +0.000 OA
ATOM     18  H3* UNL     1       0.572   3.304  18.095  0.00  0.00    +0.000 HD
ENDBRANCH  15  17
BRANCH  16  19
ATOM     19  O2* UNL     1       2.967   1.705  17.593  0.00  0.00    +0.000 OA
ATOM     20  H2* UNL     1       3.892   1.669  17.268  0.00  0.00    +0.000 HD
ENDBRANCH  16  19
BRANCH  14  21
ATOM     21  C5* UNL     1       2.265   3.557  21.727  0.00  0.00    +0.000 C 
BRANCH  21  22
ATOM     22  O5* UNL     1       1.593   2.503  22.414  0.00  0.00    +0.000 OA
ATOM     23  H5* UNL     1       1.756   1.697  21.886  0.00  0.00    +0.000 HD
ENDBRANCH  21  22
ENDBRANCH  14  21
ENDBRANCH   4  12
BRANCH   8  24
ATOM     24  C   UNL     1       5.634   4.439  13.555  0.00  0.00    +0.000 C 
BRANCH  24  25
ATOM     25  C   UNL     1       6.329   3.202  12.966  0.00  0.00    +0.000 C 
BRANCH  25  26
ATOM     26  C   UNL     1       5.837   2.771  11.571  0.00  0.00    +0.000 C 
ATOM     27  C   UNL     1       6.047   1.278  11.324  0.00  0.00    +0.000 C 
ATOM     28  C   UNL     1       4.353   3.118  11.422  0.00  0.00    +0.000 C 
ENDBRANCH  25  26
ENDBRANCH  24  25
ENDBRANCH   8  24
TORSDOF 8
ENDMDL
MODEL 3
REMARK VINA RESULT:      -7.3      0.966      1.003
REMARK  Name = 
REMARK  11 active torsions:
REMARK  status: ('A' for Active; 'I' for Inactive)
REMARK    1  A    between atoms: C_1  and  C_2
REMARK    2  A    between atoms: N_4  and  C1*_5
REMARK    3  A    between atoms: C4*_7  and  C5*_8
REMARK    4  A    between atoms: C5*_8  and  O5*_9
REMARK    5  A    between atoms: C3*_10  and  O3*_11
REMARK    6  A    between atoms: C2*_12  and  O2*_13
REMARK    7  A    between atoms: N_17  and  C_18
REMARK    8  A    between atoms: C_18  and  C_19
REMARK    9  A    between atoms: C_19  and  C_20
REMARK   10  A    between atoms: C_20  and  C_21
REMARK   11  A    between atoms: C_20  and  C_22
REMARK                            x       y       z     vdW  Elec       q    Type
REMARK                         _______ _______ _______ _____ _____    ______ ____
ROOT
ATOM      1  C   UNL     1       7.858   5.600  19.539  0.00  0.00    +0.000 C 
ATOM      2  C   UNL     1       6.763   5.087  18.684  0.00  0.00    +0.000 A 
ATOM      3  N   UNL     1       5.648   4.552  19.218  0.00  0.00    +0.000 NA
ATOM      4  N   UNL     1       4.920   4.153  18.132  0.00  0.00    +0.000 N 
ATOM      5  C   UNL     1       5.541   4.438  16.950  0.00  0.00    +0.000 A 
ATOM      6  C   UNL     1       5.155   4.177  15.605  0.00  0.00    +0.000 A 
ATOM      7  O   UNL     1       4.147   3.554  15.288  0.00  0.00    +0.000 OA
ATOM      8  N   UNL     1       6.067   4.697  14.690  0.00  0.00    +0.000 N 
ATOM      9  C   UNL     1       7.252   5.287  15.117  0.00  0.00    +0.000 A 
ATOM     10  N   UNL     1       7.637   5.491  16.341  0.00  0.00    +0.000 NA
ATOM     11  C   UNL     1       6.707   5.051  17.282  0.00  0.00    +0.000 A 
ENDROOT
BRANCH   4  12
ATOM     12  C1* UNL     1       3.660   3.445  18.309  0.00  0.00    +0.000 C 
ATOM     13  O4* UNL     1       2.609   4.375  18.672  0.00  0.00    +0.000 OA
ATOM     14  C4* UNL     1       1.804   3.758  19.707  0.00  0.00    +0.000 C 
ATOM     15  C3* UNL     1       2.264   2.307  19.814  0.00  0.00    +0.000 C 
ATOM     16  C2* UNL     1       3.721   2.371  19.389  0.00  0.00    +0.000 C 
BRANCH  15  17
ATOM     17  O3* UNL     1       1.566   1.458  18.881  0.00  0.00    +0.000 OA
ATOM     18  H3* UNL     1       1.705   1.793  17.976  0.00  0.00    +0.000 HD
ENDBRANCH  15  17
BRANCH  16  19
ATOM     19  O2* UNL     1       4.178   1.108  18.903  0.00  0.00    +0.000 OA
ATOM     20  H2* UNL     1       4.883   1.304  18.250  0.00  0.00    +0.000 HD
ENDBRANCH  16  19
BRANCH  14  21
ATOM     21  C5* UNL     1       1.996   4.550  21.001  0.00  0.00    +0.000 C 
BRANCH  21  22
ATOM     22  O5* UNL     1       2.897   5.630  20.768  0.00  0.00    +0.000 OA
ATOM     23  H5* UNL     1       3.793   5.249  20.848  0.00  0.00    +0.000 HD
ENDBRANCH  21  22
ENDBRANCH  14  21
ENDBRANCH   4  12
BRANCH   8  24
ATOM     24  C   UNL     1       5.803   4.519  13.269  0.00  0.00    +0.000 C 
BRANCH  24  25
ATOM     25  C   UNL     1       6.512   3.303  12.650  0.00  0.00    +0.000 C 
BRANCH  25  26
ATOM     26  C   UNL     1       5.820   2.694  11.416  0.00  0.00    +0.000 C 
ATOM     27  C   UNL     1       5.971   1.175  11.365  0.00  0.00    +0.000 C 
ATOM     28  C   UNL     1       4.335   3.068  11.426  0.00  0.00    +0.000 C 
ENDBRANCH  25  26
ENDBRANCH  24  25
ENDBRANCH   8  24
TORSDOF 8
ENDMDL
MODEL 4
REMARK VINA RESULT:      -7.1      3.458      5.627
REMARK  Name = 
REMARK  11 active torsions:
REMARK  status: ('A' for Active; 'I' for Inactive)
REMARK    1  A    between atoms: C_1  and  C_2
REMARK    2  A    between atoms: N_4  and  C1*_5
REMARK    3  A    between atoms: C4*_7  and  C5*_8
REMARK    4  A    between atoms: C5*_8  and  O5*_9
REMARK    5  A    between atoms: C3*_10  and  O3*_11
REMARK    6  A    between atoms: C2*_12  and  O2*_13
REMARK    7  A    between atoms: N_17  and  C_18
REMARK    8  A    between atoms: C_18  and  C_19
REMARK    9  A    between atoms: C_19  and  C_20
REMARK   10  A    between atoms: C_20  and  C_21
REMARK   11  A    between atoms: C_20  and  C_22
REMARK                            x       y       z     vdW  Elec       q    Type
REMARK                         _______ _______ _______ _____ _____    ______ ____
ROOT
ATOM      1  C   UNL     1       1.153   3.402  20.755  0.00  0.00    +0.000 C 
ATOM      2  C   UNL     1       1.739   4.640  20.192  0.00  0.00    +0.000 A 
ATOM      3  N   UNL     1       1.413   5.855  20.677  0.00  0.00    +0.000 NA
ATOM      4  N   UNL     1       2.100   6.725  19.878  0.00  0.00    +0.000 N 
ATOM      5  C   UNL     1       2.849   6.089  18.929  0.00  0.00    +0.000 A 
ATOM      6  C   UNL     1       3.680   6.603  17.895  0.00  0.00    +0.000 A 
ATOM      7  O   UNL     1       3.811   7.798  17.649  0.00  0.00    +0.000 OA
ATOM      8  N   UNL     1       4.312   5.589  17.181  0.00  0.00    +0.000 N 
ATOM      9  C   UNL     1       4.026   4.251  17.431  0.00  0.00    +0.000 A 
ATOM     10  N   UNL     1       3.235   3.769  18.343  0.00  0.00    +0.000 NA
ATOM     11  C   UNL     1       2.646   4.760  19.128  0.00  0.00    +0.000 A 
ENDROOT
BRANCH   4  12
ATOM     12  C1* UNL     1       1.940   8.163  20.045  0.00  0.00    +0.000 C 
ATOM     13  O4* UNL     1       1.681   8.480  21.435  0.00  0.00    +0.000 OA
ATOM     14  C4* UNL     1       0.649   9.496  21.477  0.00  0.00    +0.000 C 
ATOM     15  C3* UNL     1       0.435   9.964  20.040  0.00  0.00    +0.000 C 
ATOM     16  C2* UNL     1       0.797   8.739  19.217  0.00  0.00    +0.000 C 
BRANCH  15  17
ATOM     17  O3* UNL     1       1.347  11.023  19.684  0.00  0.00    +0.000 OA
ATOM     18  H3* UNL     1       0.869  11.698  19.168  0.00  0.00    +0.000 HD
ENDBRANCH  15  17
BRANCH  16  19
ATOM     19  O2* UNL     1       1.185   9.098  17.891  0.00  0.00    +0.000 OA
ATOM     20  H2* UNL     1       0.749   8.454  17.293  0.00  0.00    +0.000 HD
ENDBRANCH  16  19
BRANCH  14  21
ATOM     21  C5* UNL     1      -0.604   8.885  22.106  0.00  0.00    +0.000 C 
BRANCH  21  22
ATOM     22  O5* UNL     1      -0.769   9.395  23.427  0.00  0.00    +0.000 OA
ATOM     23  H5* UNL     1      -0.089  10.089  23.530  0.00  0.00    +0.000 HD
ENDBRANCH  21  22
ENDBRANCH  14  21
ENDBRANCH   4  12
BRANCH   8  24
ATOM     24  C   UNL     1       5.208   5.959  16.093  0.00  0.00    +0.000 C 
BRANCH  24  25
ATOM     25  C   UNL     1       6.696   5.945  16.478  0.00  0.00    +0.000 C 
BRANCH  25  26
ATOM     26  C   UNL     1       7.035   6.611  17.824  0.00  0.00    +0.000 C 
ATOM     27  C   UNL     1       7.832   5.684  18.740  0.00  0.00    +0.000 C 
ATOM     28  C   UNL     1       7.827   7.898  17.573  0.00  0.00    +0.000 C 
ENDBRANCH  25  26
ENDBRANCH  24  25
ENDBRANCH   8  24
TORSDOF 8
ENDMDL
MODEL 5
REMARK VINA RESULT:      -7.0      1.057      1.345
REMARK  Name = 
REMARK  11 active torsions:
REMARK  status: ('A' for Active; 'I' for Inactive)
REMARK    1  A    between atoms: C_1  and  C_2
REMARK    2  A    between atoms: N_4  and  C1*_5
REMARK    3  A    between atoms: C4*_7  and  C5*_8
REMARK    4  A    between atoms: C5*_8  and  O5*_9
REMARK    5  A    between atoms: C3*_10  and  O3*_11
REMARK    6  A    between atoms: C2*_12  and  O2*_13
REMARK    7  A    between atoms: N_17  and  C_18
REMARK    8  A    between atoms: C_18  and  C_19
REMARK    9  A    between atoms: C_19  and  C_20
REMARK   10  A    between atoms: C_20  and  C_21
REMARK   11  A    between atoms: C_20  and  C_22
REMARK                            x       y       z     vdW  Elec       q    Type
REMARK                         _______ _______ _______ _____ _____    ______ ____
ROOT
ATOM      1  C   UNL     1       7.813   7.118  18.493  0.00  0.00    +0.000 C 
ATOM      2  C   UNL     1       6.853   6.142  17.929  0.00  0.00    +0.000 A 
ATOM      3  N   UNL     1       5.850   5.635  18.672  0.00  0.00    +0.000 NA
ATOM      4  N   UNL     1       5.232   4.750  17.834  0.00  0.00    +0.000 N 
ATOM      5  C   UNL     1       5.810   4.706  16.597  0.00  0.00    +0.000 A 
ATOM      6  C   UNL     1       5.508   3.919  15.451  0.00  0.00    +0.000 A 
ATOM      7  O   UNL     1       4.643   3.049  15.425  0.00  0.00    +0.000 OA
ATOM      8  N   UNL     1       6.322   4.238  14.368  0.00  0.00    +0.000 N 
ATOM      9  C   UNL     1       7.365   5.149  14.500  0.00  0.00    +0.000 A 
ATOM     10  N   UNL     1       7.680   5.842  15.554  0.00  0.00    +0.000 NA
ATOM     11  C   UNL     1       6.832   5.602  16.634  0.00  0.00    +0.000 A 
ENDROOT
BRANCH   4  12
ATOM     12  C1* UNL     1       4.127   3.931  18.310  0.00  0.00    +0.000 C 
ATOM     13  O4* UNL     1       2.901   4.705  18.328  0.00  0.00    +0.000 OA
ATOM     14  C4* UNL     1       2.187   4.384  19.547  0.00  0.00    +0.000 C 
ATOM     15  C3* UNL     1       2.914   3.202  20.183  0.00  0.00    +0.000 C 
ATOM     16  C2* UNL     1       4.348   3.382  19.715  0.00  0.00    +0.000 C 
BRANCH  15  17
ATOM     17  O3* UNL     1       2.434   1.943  19.669  0.00  0.00    +0.000 OA
ATOM     18  H3* UNL     1       2.812   1.794  18.782  0.00  0.00    +0.000 HD
ENDBRANCH  15  17
BRANCH  16  19
ATOM     19  O2* UNL     1       5.061   2.145  19.731  0.00  0.00    +0.000 OA
ATOM     20  H2* UNL     1       5.967   2.347  19.414  0.00  0.00    +0.000 HD
ENDBRANCH  16  19
BRANCH  14  21
ATOM     21  C5* UNL     1       2.166   5.629  20.434  0.00  0.00    +0.000 C 
BRANCH  21  22
ATOM     22  O5* UNL     1       2.999   6.635  19.861  0.00  0.00    +0.000 OA
ATOM     23  H5* UNL     1       2.391   7.262  19.421  0.00  0.00    +0.000 HD
ENDBRANCH  21  22
ENDBRANCH  14  21
ENDBRANCH   4  12
BRANCH   8  24
ATOM     24  C   UNL     1       6.125   3.522  13.115  0.00  0.00    +0.000 C 
BRANCH  24  25
ATOM     25  C   UNL     1       4.978   4.075  12.254  0.00  0.00    +0.000 C 
BRANCH  25  26
ATOM     26  C   UNL     1       4.186   3.023  11.455  0.00  0.00    +0.000 C 
ATOM     27  C   UNL     1       3.493   3.629  10.236  0.00  0.00    +0.000 C 
ATOM     28  C   UNL     1       5.130   1.901  11.011  0.00  0.00    +0.000 C 
ENDBRANCH  25  26
ENDBRANCH  24  25
ENDBRANCH   8  24
TORSDOF 8
ENDMDL
MODEL 6
REMARK VINA RESULT:      -6.8      2.133      3.066
REMARK  Name = 
REMARK  11 active torsions:
REMARK  status: ('A' for Active; 'I' for Inactive)
REMARK    1  A    between atoms: C_1  and  C_2
REMARK    2  A    between atoms: N_4  and  C1*_5
REMARK    3  A    between atoms: C4*_7  and  C5*_8
REMARK    4  A    between atoms: C5*_8  and  O5*_9
REMARK    5  A    between atoms: C3*_10  and  O3*_11
REMARK    6  A    between atoms: C2*_12  and  O2*_13
REMARK    7  A    between atoms: N_17  and  C_18
REMARK    8  A    between atoms: C_18  and  C_19
REMARK    9  A    between atoms: C_19  and  C_20
REMARK   10  A    between atoms: C_20  and  C_21
REMARK   11  A    between atoms: C_20  and  C_22
REMARK                            x       y       z     vdW  Elec       q    Type
REMARK                         _______ _______ _______ _____ _____    ______ ____
ROOT
ATOM      1  C   UNL     1       2.177   8.696  17.981  0.00  0.00    +0.000 C 
ATOM      2  C   UNL     1       2.809   7.362  18.104  0.00  0.00    +0.000 A 
ATOM      3  N   UNL     1       2.404   6.476  19.035  0.00  0.00    +0.000 NA
ATOM      4  N   UNL     1       3.246   5.413  18.870  0.00  0.00    +0.000 N 
ATOM      5  C   UNL     1       4.145   5.606  17.859  0.00  0.00    +0.000 A 
ATOM      6  C   UNL     1       5.198   4.782  17.376  0.00  0.00    +0.000 A 
ATOM      7  O   UNL     1       5.516   3.708  17.877  0.00  0.00    +0.000 OA
ATOM      8  N   UNL     1       5.841   5.347  16.277  0.00  0.00    +0.000 N 
ATOM      9  C   UNL     1       5.512   6.624  15.834  0.00  0.00    +0.000 A 
ATOM     10  N   UNL     1       4.582   7.406  16.295  0.00  0.00    +0.000 NA
ATOM     11  C   UNL     1       3.867   6.834  17.347  0.00  0.00    +0.000 A 
ENDROOT
BRANCH   4  12
ATOM     12  C1* UNL     1       3.170   4.266  19.763  0.00  0.00    +0.000 C 
ATOM     13  O4* UNL     1       2.934   3.054  19.004  0.00  0.00    +0.000 OA
ATOM     14  C4* UNL     1       1.964   2.256  19.725  0.00  0.00    +0.000 C 
ATOM     15  C3* UNL     1       1.774   2.921  21.086  0.00  0.00    +0.000 C 
ATOM     16  C2* UNL     1       2.060   4.386  20.801  0.00  0.00    +0.000 C 
BRANCH  15  17
ATOM     17  O3* UNL     1       2.745   2.457  22.045  0.00  0.00    +0.000 OA
ATOM     18  H3* UNL     1       2.430   2.662  22.945  0.00  0.00    +0.000 HD
ENDBRANCH  15  17
BRANCH  16  19
ATOM     19  O2* UNL     1       2.465   5.077  21.984  0.00  0.00    +0.000 OA
ATOM     20  H2* UNL     1       2.786   5.956  21.691  0.00  0.00    +0.000 HD
ENDBRANCH  16  19
BRANCH  14  21
ATOM     21  C5* UNL     1       0.680   2.196  18.898  0.00  0.00    +0.000 C 
BRANCH  21  22
ATOM     22  O5* UNL     1       0.769   3.120  17.814  0.00  0.00    +0.000 OA
ATOM     23  H5* UNL     1      -0.065   3.629  17.832  0.00  0.00    +0.000 HD
ENDBRANCH  21  22
ENDBRANCH  14  21
ENDBRANCH   4  12
BRANCH   8  24
ATOM     24  C   UNL     1       6.939   4.614  15.661  0.00  0.00    +0.000 C 
BRANCH  24  25
ATOM     25  C   UNL     1       7.078   4.853  14.149  0.00  0.00    +0.000 C 
BRANCH  25  26
ATOM     26  C   UNL     1       6.498   3.746  13.250  0.00  0.00    +0.000 C 
ATOM     27  C   UNL     1       4.975   3.821  13.156  0.00  0.00    +0.000 C 
ATOM     28  C   UNL     1       7.111   3.850  11.850  0.00  0.00    +0.000 C 
ENDBRANCH  25  26
ENDBRANCH  24  25
ENDBRANCH   8  24
TORSDOF 8
ENDMDL
MODEL 7
REMARK VINA RESULT:      -6.8      2.667      7.511
REMARK  Name = 
REMARK  11 active torsions:
REMARK  status: ('A' for Active; 'I' for Inactive)
REMARK    1  A    between atoms: C_1  and  C_2
REMARK    2  A    between atoms: N_4  and  C1*_5
REMARK    3  A    between atoms: C4*_7  and  C5*_8
REMARK    4  A    between atoms: C5*_8  and  O5*_9
REMARK    5  A    between atoms: C3*_10  and  O3*_11
REMARK    6  A    between atoms: C2*_12  and  O2*_13
REMARK    7  A    between atoms: N_17  and  C_18
REMARK    8  A    between atoms: C_18  and  C_19
REMARK    9  A    between atoms: C_19  and  C_20
REMARK   10  A    between atoms: C_20  and  C_21
REMARK   11  A    between atoms: C_20  and  C_22
REMARK                            x       y       z     vdW  Elec       q    Type
REMARK                         _______ _______ _______ _____ _____    ______ ____
ROOT
ATOM      1  C   UNL     1       3.195   1.360  18.913  0.00  0.00    +0.000 C 
ATOM      2  C   UNL     1       3.520   2.731  18.456  0.00  0.00    +0.000 A 
ATOM      3  N   UNL     1       4.425   2.951  17.483  0.00  0.00    +0.000 NA
ATOM      4  N   UNL     1       4.485   4.313  17.388  0.00  0.00    +0.000 N 
ATOM      5  C   UNL     1       3.637   4.938  18.257  0.00  0.00    +0.000 A 
ATOM      6  C   UNL     1       3.404   6.319  18.505  0.00  0.00    +0.000 A 
ATOM      7  O   UNL     1       4.027   7.228  17.966  0.00  0.00    +0.000 OA
ATOM      8  N   UNL     1       2.398   6.519  19.447  0.00  0.00    +0.000 N 
ATOM      9  C   UNL     1       1.816   5.445  20.111  0.00  0.00    +0.000 A 
ATOM     10  N   UNL     1       2.051   4.180  19.927  0.00  0.00    +0.000 NA
ATOM     11  C   UNL     1       2.999   3.945  18.931  0.00  0.00    +0.000 A 
ENDROOT
BRANCH   4  12
ATOM     12  C1* UNL     1       5.430   4.948  16.481  0.00  0.00    +0.000 C 
ATOM     13  O4* UNL     1       4.814   5.162  15.186  0.00  0.00    +0.000 OA
ATOM     14  C4* UNL     1       5.788   4.829  14.167  0.00  0.00    +0.000 C 
ATOM     15  C3* UNL     1       7.118   4.613  14.886  0.00  0.00    +0.000 C 
ATOM     16  C2* UNL     1       6.696   4.129  16.262  0.00  0.00    +0.000 C 
BRANCH  15  17
ATOM     17  O3* UNL     1       7.839   5.851  15.052  0.00  0.00    +0.000 OA
ATOM     18  H3* UNL     1       7.878   6.317  14.196  0.00  0.00    +0.000 HD
ENDBRANCH  15  17
BRANCH  16  19
ATOM     19  O2* UNL     1       7.709   4.383  17.237  0.00  0.00    +0.000 OA
ATOM     20  H2* UNL     1       8.160   5.207  16.955  0.00  0.00    +0.000 HD
ENDBRANCH  16  19
BRANCH  14  21
ATOM     21  C5* UNL     1       5.298   3.589  13.420  0.00  0.00    +0.000 C 
BRANCH  21  22
ATOM     22  O5* UNL     1       6.355   3.071  12.614  0.00  0.00    +0.000 OA
ATOM     23  H5* UNL     1       6.348   2.104  12.758  0.00  0.00    +0.000 HD
ENDBRANCH  21  22
ENDBRANCH  14  21
ENDBRANCH   4  12
BRANCH   8  24
ATOM     24  C   UNL     1       2.037   7.885  19.799  0.00  0.00    +0.000 C 
BRANCH  24  25
ATOM     25  C   UNL     1       1.187   7.997  21.075  0.00  0.00    +0.000 C 
BRANCH  25  26
ATOM     26  C   UNL     1       0.686   9.414  21.412  0.00  0.00    +0.000 C 
ATOM     27  C   UNL     1      -0.186   9.994  20.299  0.00  0.00    +0.000 C 
ATOM     28  C   UNL     1      -0.103   9.379  22.724  0.00  0.00    +0.000 C 
ENDBRANCH  25  26
ENDBRANCH  24  25
ENDBRANCH   8  24
TORSDOF 8
ENDMDL
MODEL 8
REMARK VINA RESULT:      -6.8      3.556      6.845
REMARK  Name = 
REMARK  11 active torsions:
REMARK  status: ('A' for Active; 'I' for Inactive)
REMARK    1  A    between atoms: C_1  and  C_2
REMARK    2  A    between atoms: N_4  and  C1*_5
REMARK    3  A    between atoms: C4*_7  and  C5*_8
REMARK    4  A    between atoms: C5*_8  and  O5*_9
REMARK    5  A    between atoms: C3*_10  and  O3*_11
REMARK    6  A    between atoms: C2*_12  and  O2*_13
REMARK    7  A    between atoms: N_17  and  C_18
REMARK    8  A    between atoms: C_18  and  C_19
REMARK    9  A    between atoms: C_19  and  C_20
REMARK   10  A    between atoms: C_20  and  C_21
REMARK   11  A    between atoms: C_20  and  C_22
REMARK                            x       y       z     vdW  Elec       q    Type
REMARK                         _______ _______ _______ _____ _____    ______ ____
ROOT
ATOM      1  C   UNL     1       4.814   6.605  15.965  0.00  0.00    +0.000 C 
ATOM      2  C   UNL     1       4.094   6.520  17.256  0.00  0.00    +0.000 A 
ATOM      3  N   UNL     1       4.172   5.422  18.032  0.00  0.00    +0.000 NA
ATOM      4  N   UNL     1       3.345   5.700  19.085  0.00  0.00    +0.000 N 
ATOM      5  C   UNL     1       2.774   6.938  18.990  0.00  0.00    +0.000 A 
ATOM      6  C   UNL     1       1.847   7.605  19.838  0.00  0.00    +0.000 A 
ATOM      7  O   UNL     1       1.339   7.100  20.834  0.00  0.00    +0.000 OA
ATOM      8  N   UNL     1       1.567   8.895  19.393  0.00  0.00    +0.000 N 
ATOM      9  C   UNL     1       2.082   9.364  18.190  0.00  0.00    +0.000 A 
ATOM     10  N   UNL     1       2.895   8.748  17.383  0.00  0.00    +0.000 NA
ATOM     11  C   UNL     1       3.255   7.481  17.842  0.00  0.00    +0.000 A 
ENDROOT
BRANCH   4  12
ATOM     12  C1* UNL     1       3.102   4.702  20.116  0.00  0.00    +0.000 C 
ATOM     13  O4* UNL     1       4.208   3.768  20.180  0.00  0.00    +0.000 OA
ATOM     14  C4* UNL     1       3.660   2.437  20.346  0.00  0.00    +0.000 C 
ATOM     15  C3* UNL     1       2.166   2.608  20.612  0.00  0.00    +0.000 C 
ATOM     16  C2* UNL     1       1.828   3.898  19.884  0.00  0.00    +0.000 C 
BRANCH  15  17
ATOM     17  O3* UNL     1       1.895   2.804  22.014  0.00  0.00    +0.000 OA
ATOM     18  H3* UNL     1       1.347   2.066  22.341  0.00  0.00    +0.000 HD
ENDBRANCH  15  17
BRANCH  16  19
ATOM     19  O2* UNL     1       0.662   4.515  20.432  0.00  0.00    +0.000 OA
ATOM     20  H2* UNL     1      -0.055   3.848  20.372  0.00  0.00    +0.000 HD
ENDBRANCH  16  19
BRANCH  14  21
ATOM     21  C5* UNL     1       3.960   1.632  19.082  0.00  0.00    +0.000 C 
BRANCH  21  22
ATOM     22  O5* UNL     1       4.525   2.491  18.094  0.00  0.00    +0.000 OA
ATOM     23  H5* UNL     1       5.232   1.971  17.664  0.00  0.00    +0.000 HD
ENDBRANCH  21  22
ENDBRANCH  14  21
ENDBRANCH   4  12
BRANCH   8  24
ATOM     24  C   UNL     1       0.640   9.711  20.165  0.00  0.00    +0.000 C 
BRANCH  24  25
ATOM     25  C   UNL     1      -0.650  10.072  19.412  0.00  0.00    +0.000 C 
BRANCH  25  26
ATOM     26  C   UNL     1      -0.951  11.578  19.303  0.00  0.00    +0.000 C 
ATOM     27  C   UNL     1       0.309  12.428  19.458  0.00  0.00    +0.000 C 
ATOM     28  C   UNL     1      -1.611  11.871  17.952  0.00  0.00    +0.000 C 
ENDBRANCH  25  26
ENDBRANCH  24  25
ENDBRANCH   8  24
TORSDOF 8
ENDMDL
MODEL 9
REMARK VINA RESULT:      -6.7      3.382      5.599
REMARK  Name = 
REMARK  11 active torsions:
REMARK  status: ('A' for Active; 'I' for Inactive)
REMARK    1  A    between atoms: C_1  and  C_2
REMARK    2  A    between atoms: N_4  and  C1*_5
REMARK    3  A    between atoms: C4*_7  and  C5*_8
REMARK    4  A    between atoms: C5*_8  and  O5*_9
REMARK    5  A    between atoms: C3*_10  and  O3*_11
REMARK    6  A    between atoms: C2*_12  and  O2*_13
REMARK    7  A    between atoms: N_17  and  C_18
REMARK    8  A    between atoms: C_18  and  C_19
REMARK    9  A    between atoms: C_19  and  C_20
REMARK   10  A    between atoms: C_20  and  C_21
REMARK   11  A    between atoms: C_20  and  C_22
REMARK                            x       y       z     vdW  Elec       q    Type
REMARK                         _______ _______ _______ _____ _____    ______ ____
ROOT
ATOM      1  C   UNL     1       1.014   3.627  20.848  0.00  0.00    +0.000 C 
ATOM      2  C   UNL     1       1.705   4.778  20.221  0.00  0.00    +0.000 A 
ATOM      3  N   UNL     1       1.383   6.047  20.538  0.00  0.00    +0.000 NA
ATOM      4  N   UNL     1       2.184   6.804  19.729  0.00  0.00    +0.000 N 
ATOM      5  C   UNL     1       2.998   6.044  18.937  0.00  0.00    +0.000 A 
ATOM      6  C   UNL     1       3.950   6.416  17.948  0.00  0.00    +0.000 A 
ATOM      7  O   UNL     1       4.155   7.572  17.592  0.00  0.00    +0.000 OA
ATOM      8  N   UNL     1       4.609   5.311  17.415  0.00  0.00    +0.000 N 
ATOM      9  C   UNL     1       4.243   4.018  17.774  0.00  0.00    +0.000 A 
ATOM     10  N   UNL     1       3.344   3.663  18.644  0.00  0.00    +0.000 NA
ATOM     11  C   UNL     1       2.721   4.752  19.252  0.00  0.00    +0.000 A 
ENDROOT
BRANCH   4  12
ATOM     12  C1* UNL     1       2.067   8.255  19.724  0.00  0.00    +0.000 C 
ATOM     13  O4* UNL     1       1.625   8.726  21.022  0.00  0.00    +0.000 OA
ATOM     14  C4* UNL     1       0.646   9.772  20.807  0.00  0.00    +0.000 C 
ATOM     15  C3* UNL     1       0.664  10.091  19.314  0.00  0.00    +0.000 C 
ATOM     16  C2* UNL     1       1.084   8.775  18.682  0.00  0.00    +0.000 C 
BRANCH  15  17
ATOM     17  O3* UNL     1       1.666  11.077  18.994  0.00  0.00    +0.000 OA
ATOM     18  H3* UNL     1       1.275  11.968  19.073  0.00  0.00    +0.000 HD
ENDBRANCH  15  17
BRANCH  16  19
ATOM     19  O2* UNL     1       1.677   8.979  17.399  0.00  0.00    +0.000 OA
ATOM     20  H2* UNL     1       1.018   9.477  16.869  0.00  0.00    +0.000 HD
ENDBRANCH  16  19
BRANCH  14  21
ATOM     21  C5* UNL     1      -0.711   9.270  21.301  0.00  0.00    +0.000 C 
BRANCH  21  22
ATOM     22  O5* UNL     1      -0.587   7.918  21.738  0.00  0.00    +0.000 OA
ATOM     23  H5* UNL     1       0.365   7.783  21.914  0.00  0.00    +0.000 HD
ENDBRANCH  21  22
ENDBRANCH  14  21
ENDBRANCH   4  12
BRANCH   8  24
ATOM     24  C   UNL     1       5.625   5.532  16.395  0.00  0.00    +0.000 C 
BRANCH  24  25
ATOM     25  C   UNL     1       7.029   5.056  16.799  0.00  0.00    +0.000 C 
BRANCH  25  26
ATOM     26  C   UNL     1       7.775   5.968  17.790  0.00  0.00    +0.000 C 
ATOM     27  C   UNL     1       7.536   7.449  17.500  0.00  0.00    +0.000 C 
ATOM     28  C   UNL     1       7.333   5.642  19.220  0.00  0.00    +0.000 C 
ENDBRANCH  25  26
ENDBRANCH  24  25
ENDBRANCH   8  24
TORSDOF 8
ENDMDL
