MODEL 1
REMARK VINA RESULT:      -7.2      0.000      0.000
REMARK  Name = 
REMARK  3 active torsions:
REMARK  status: ('A' for Active; 'I' for Inactive)
REMARK    1  A    between atoms: C_1  and  C_2
REMARK    2  A    between atoms: C_9  and  C_11
REMARK    3  A    between atoms: C_11  and  N_12
REMARK                            x       y       z     vdW  Elec       q    Type
REMARK                         _______ _______ _______ _____ _____    ______ ____
ROOT
ATOM      1  C   UNL     1       6.771   4.008  15.063  0.00  0.00    +0.000 C 
ATOM      2  C   UNL     1       6.746   4.760  16.372  0.00  0.00    +0.000 C 
ATOM      3  O   UNL     1       7.802   5.050  16.934  0.00  0.00    +0.000 OA
ATOM      4  N   UNL     1       5.507   5.122  16.885  0.00  0.00    +0.000 N 
ATOM      5  C   UNL     1       4.220   4.702  16.334  0.00  0.00    +0.000 C 
ATOM      6  C   UNL     1       3.697   3.389  16.908  0.00  0.00    +0.000 C 
ATOM      7  C   UNL     1       3.675   3.245  18.433  0.00  0.00    +0.000 C 
ATOM      8  N   UNL     1       3.690   4.493  19.199  0.00  0.00    +0.000 N 
ATOM      9  C   UNL     1       2.498   4.972  19.738  0.00  0.00    +0.000 C 
ATOM     10  O   UNL     1       1.431   4.372  19.560  0.00  0.00    +0.000 OA
ATOM     11  C   UNL     1       5.011   5.123  19.354  0.00  0.00    +0.000 C 
ATOM     12  C   UNL     1       5.453   5.918  18.116  0.00  0.00    +0.000 C 
ENDROOT
BRANCH   9  13
ATOM     13  C   UNL     1       2.498   6.269  20.537  0.00  0.00    +0.000 C 
BRANCH  13  14
ATOM     14  N   UNL     1       2.025   7.450  19.816  0.00  0.00    +0.000 N 
ATOM     15  C   UNL     1       2.272   7.737  18.496  0.00  0.00    +0.000 A 
ATOM     16  C   UNL     1       1.700   8.954  18.203  0.00  0.00    +0.000 A 
ATOM     17  C   UNL     1       1.121   9.459  19.396  0.00  0.00    +0.000 A 
ATOM     18  C   UNL     1       0.438  10.652  19.713  0.00  0.00    +0.000 A 
ATOM     19  C   UNL     1       0.014  10.878  21.023  0.00  0.00    +0.000 A 
ATOM     20  C   UNL     1       0.263   9.933  22.015  0.00  0.00    +0.000 A 
ATOM     21  C   UNL     1       0.931   8.738  21.725  0.00  0.00    +0.000 A 
ATOM     22  C   UNL     1       1.349   8.512  20.401  0.00  0.00    +0.000 A 
ENDBRANCH  13  14
ENDBRANCH   9  13
TORSDOF 2
ENDMDL
MODEL 2
REMARK VINA RESULT:      -6.8      3.427      6.096
REMARK  Name = 
REMARK  3 active torsions:
REMARK  status: ('A' for Active; 'I' for Inactive)
REMARK    1  A    between atoms: C_1  and  C_2
REMARK    2  A    between atoms: C_9  and  C_11
REMARK    3  A    between atoms: C_11  and  N_12
REMARK                            x       y       z     vdW  Elec       q    Type
REMARK                         _______ _______ _______ _____ _____    ______ ____
ROOT
ATOM      1  C   UNL     1       1.724   2.880  21.570  0.00  0.00    +0.000 C 
ATOM      2  C   UNL     1       2.107   4.146  20.841  0.00  0.00    +0.000 C 
ATOM      3  O   UNL     1       1.454   5.175  21.013  0.00  0.00    +0.000 OA
ATOM      4  N   UNL     1       3.217   4.099  20.007  0.00  0.00    +0.000 N 
ATOM      5  C   UNL     1       3.954   2.885  19.665  0.00  0.00    +0.000 C 
ATOM      6  C   UNL     1       3.420   2.161  18.433  0.00  0.00    +0.000 C 
ATOM      7  C   UNL     1       3.188   2.995  17.169  0.00  0.00    +0.000 C 
ATOM      8  N   UNL     1       3.922   4.258  17.087  0.00  0.00    +0.000 N 
ATOM      9  C   UNL     1       5.071   4.325  16.302  0.00  0.00    +0.000 C 
ATOM     10  O   UNL     1       5.489   3.331  15.697  0.00  0.00    +0.000 OA
ATOM     11  C   UNL     1       3.338   5.379  17.842  0.00  0.00    +0.000 C 
ATOM     12  C   UNL     1       3.657   5.332  19.343  0.00  0.00    +0.000 C 
ENDROOT
BRANCH   9  13
ATOM     13  C   UNL     1       5.846   5.634  16.207  0.00  0.00    +0.000 C 
BRANCH  13  14
ATOM     14  N   UNL     1       6.799   5.878  17.288  0.00  0.00    +0.000 N 
ATOM     15  C   UNL     1       7.221   4.954  18.212  0.00  0.00    +0.000 A 
ATOM     16  C   UNL     1       8.078   5.578  19.089  0.00  0.00    +0.000 A 
ATOM     17  C   UNL     1       8.151   6.946  18.724  0.00  0.00    +0.000 A 
ATOM     18  C   UNL     1       8.831   8.060  19.263  0.00  0.00    +0.000 A 
ATOM     19  C   UNL     1       8.665   9.318  18.683  0.00  0.00    +0.000 A 
ATOM     20  C   UNL     1       7.831   9.478  17.578  0.00  0.00    +0.000 A 
ATOM     21  C   UNL     1       7.152   8.389  17.020  0.00  0.00    +0.000 A 
ATOM     22  C   UNL     1       7.330   7.122  17.604  0.00  0.00    +0.000 A 
ENDBRANCH  13  14
ENDBRANCH   9  13
TORSDOF 2
ENDMDL
MODEL 3
REMARK VINA RESULT:      -6.7      2.233      3.679
REMARK  Name = 
REMARK  3 active torsions:
REMARK  status: ('A' for Active; 'I' for Inactive)
REMARK    1  A    between atoms: C_1  and  C_2
REMARK    2  A    between atoms: C_9  and  C_11
REMARK    3  A    between atoms: C_11  and  N_12
REMARK                            x       y       z     vdW  Elec       q    Type
REMARK                         _______ _______ _______ _____ _____    ______ ____
ROOT
ATOM      1  C   UNL     1       2.966   1.721  18.179  0.00  0.00    +0.000 C 
ATOM      2  C   UNL     1       3.415   3.122  17.838  0.00  0.00    +0.000 C 
ATOM      3  O   UNL     1       4.497   3.301  17.279  0.00  0.00    +0.000 OA
ATOM      4  N   UNL     1       2.559   4.169  18.155  0.00  0.00    +0.000 N 
ATOM      5  C   UNL     1       1.325   4.035  18.926  0.00  0.00    +0.000 C 
ATOM      6  C   UNL     1       1.515   4.182  20.432  0.00  0.00    +0.000 C 
ATOM      7  C   UNL     1       2.302   5.398  20.928  0.00  0.00    +0.000 C 
ATOM      8  N   UNL     1       2.384   6.533  20.007  0.00  0.00    +0.000 N 
ATOM      9  C   UNL     1       1.551   7.632  20.207  0.00  0.00    +0.000 C 
ATOM     10  O   UNL     1       0.732   7.651  21.133  0.00  0.00    +0.000 OA
ATOM     11  C   UNL     1       3.394   6.410  18.943  0.00  0.00    +0.000 C 
ATOM     12  C   UNL     1       2.934   5.534  17.768  0.00  0.00    +0.000 C 
ENDROOT
BRANCH   9  13
ATOM     13  C   UNL     1       1.626   8.819  19.256  0.00  0.00    +0.000 C 
BRANCH  13  14
ATOM     14  N   UNL     1       0.769   9.953  19.599  0.00  0.00    +0.000 N 
ATOM     15  C   UNL     1       0.892  10.745  20.714  0.00  0.00    +0.000 A 
ATOM     16  C   UNL     1      -0.126  11.670  20.703  0.00  0.00    +0.000 A 
ATOM     17  C   UNL     1      -0.935  11.411  19.567  0.00  0.00    +0.000 A 
ATOM     18  C   UNL     1      -2.115  11.998  19.062  0.00  0.00    +0.000 A 
ATOM     19  C   UNL     1      -2.709  11.476  17.912  0.00  0.00    +0.000 A 
ATOM     20  C   UNL     1      -2.142  10.380  17.264  0.00  0.00    +0.000 A 
ATOM     21  C   UNL     1      -0.969   9.785  17.741  0.00  0.00    +0.000 A 
ATOM     22  C   UNL     1      -0.371  10.320  18.895  0.00  0.00    +0.000 A 
ENDBRANCH  13  14
ENDBRANCH   9  13
TORSDOF 2
ENDMDL
MODEL 4
REMARK VINA RESULT:      -6.7      1.051      2.121
REMARK  Name = 
REMARK  3 active torsions:
REMARK  status: ('A' for Active; 'I' for Inactive)
REMARK    1  A    between atoms: C_1  and  C_2
REMARK    2  A    between atoms: C_9  and  C_11
REMARK    3  A    between atoms: C_11  and  N_12
REMARK                            x       y       z     vdW  Elec       q    Type
REMARK                         _______ _______ _______ _____ _____    ______ ____
ROOT
ATOM      1  C   UNL     1       7.433   4.569  15.887  0.00  0.00    +0.000 C 
ATOM      2  C   UNL     1       7.150   4.705  17.364  0.00  0.00    +0.000 C 
ATOM      3  O   UNL     1       8.039   4.471  18.184  0.00  0.00    +0.000 OA
ATOM      4  N   UNL     1       5.880   5.119  17.742  0.00  0.00    +0.000 N 
ATOM      5  C   UNL     1       4.751   5.290  16.830  0.00  0.00    +0.000 C 
ATOM      6  C   UNL     1       3.914   4.030  16.635  0.00  0.00    +0.000 C 
ATOM      7  C   UNL     1       3.450   3.289  17.893  0.00  0.00    +0.000 C 
ATOM      8  N   UNL     1       3.424   4.072  19.130  0.00  0.00    +0.000 N 
ATOM      9  C   UNL     1       2.207   4.567  19.594  0.00  0.00    +0.000 C 
ATOM     10  O   UNL     1       1.160   4.374  18.966  0.00  0.00    +0.000 OA
ATOM     11  C   UNL     1       4.725   4.239  19.799  0.00  0.00    +0.000 C 
ATOM     12  C   UNL     1       5.598   5.332  19.167  0.00  0.00    +0.000 C 
ENDROOT
BRANCH   9  13
ATOM     13  C   UNL     1       2.165   5.384  20.879  0.00  0.00    +0.000 C 
BRANCH  13  14
ATOM     14  N   UNL     1       1.643   6.742  20.742  0.00  0.00    +0.000 N 
ATOM     15  C   UNL     1       0.748   7.348  21.588  0.00  0.00    +0.000 A 
ATOM     16  C   UNL     1       0.469   8.604  21.098  0.00  0.00    +0.000 A 
ATOM     17  C   UNL     1       1.180   8.761  19.881  0.00  0.00    +0.000 A 
ATOM     18  C   UNL     1       1.260   9.802  18.931  0.00  0.00    +0.000 A 
ATOM     19  C   UNL     1       2.038   9.633  17.785  0.00  0.00    +0.000 A 
ATOM     20  C   UNL     1       2.733   8.444  17.576  0.00  0.00    +0.000 A 
ATOM     21  C   UNL     1       2.676   7.400  18.506  0.00  0.00    +0.000 A 
ATOM     22  C   UNL     1       1.897   7.579  19.663  0.00  0.00    +0.000 A 
ENDBRANCH  13  14
ENDBRANCH   9  13
TORSDOF 2
ENDMDL
MODEL 5
REMARK VINA RESULT:      -6.6      2.043      6.428
REMARK  Name = 
REMARK  3 active torsions:
REMARK  status: ('A' for Active; 'I' for Inactive)
REMARK    1  A    between atoms: C_1  and  C_2
REMARK    2  A    between atoms: C_9  and  C_11
REMARK    3  A    between atoms: C_11  and  N_12
REMARK                            x       y       z     vdW  Elec       q    Type
REMARK                         _______ _______ _______ _____ _____    ______ ____
ROOT
ATOM      1  C   UNL     1       1.094   9.518  19.586  0.00  0.00    +0.000 C 
ATOM      2  C   UNL     1       1.611   8.551  18.548  0.00  0.00    +0.000 C 
ATOM      3  O   UNL     1       1.417   8.772  17.352  0.00  0.00    +0.000 OA
ATOM      4  N   UNL     1       2.320   7.443  18.994  0.00  0.00    +0.000 N 
ATOM      5  C   UNL     1       2.476   7.061  20.396  0.00  0.00    +0.000 C 
ATOM      6  C   UNL     1       1.374   6.143  20.915  0.00  0.00    +0.000 C 
ATOM      7  C   UNL     1       1.034   4.905  20.079  0.00  0.00    +0.000 C 
ATOM      8  N   UNL     1       2.070   4.449  19.151  0.00  0.00    +0.000 N 
ATOM      9  C   UNL     1       2.866   3.361  19.504  0.00  0.00    +0.000 C 
ATOM     10  O   UNL     1       2.724   2.795  20.594  0.00  0.00    +0.000 OA
ATOM     11  C   UNL     1       2.152   5.190  17.882  0.00  0.00    +0.000 C 
ATOM     12  C   UNL     1       2.899   6.526  18.006  0.00  0.00    +0.000 C 
ENDROOT
BRANCH   9  13
ATOM     13  C   UNL     1       3.949   2.876  18.549  0.00  0.00    +0.000 C 
BRANCH  13  14
ATOM     14  N   UNL     1       5.050   3.810  18.323  0.00  0.00    +0.000 N 
ATOM     15  C   UNL     1       5.627   4.617  19.272  0.00  0.00    +0.000 A 
ATOM     16  C   UNL     1       6.595   5.381  18.661  0.00  0.00    +0.000 A 
ATOM     17  C   UNL     1       6.584   5.069  17.278  0.00  0.00    +0.000 A 
ATOM     18  C   UNL     1       7.315   5.548  16.170  0.00  0.00    +0.000 A 
ATOM     19  C   UNL     1       7.037   5.056  14.893  0.00  0.00    +0.000 A 
ATOM     20  C   UNL     1       6.041   4.099  14.711  0.00  0.00    +0.000 A 
ATOM     21  C   UNL     1       5.307   3.603  15.795  0.00  0.00    +0.000 A 
ATOM     22  C   UNL     1       5.598   4.096  17.079  0.00  0.00    +0.000 A 
ENDBRANCH  13  14
ENDBRANCH   9  13
TORSDOF 2
ENDMDL
MODEL 6
REMARK VINA RESULT:      -6.6      2.218      6.705
REMARK  Name = 
REMARK  3 active torsions:
REMARK  status: ('A' for Active; 'I' for Inactive)
REMARK    1  A    between atoms: C_1  and  C_2
REMARK    2  A    between atoms: C_9  and  C_11
REMARK    3  A    between atoms: C_11  and  N_12
REMARK                            x       y       z     vdW  Elec       q    Type
REMARK                         _______ _______ _______ _____ _____    ______ ____
ROOT
ATOM      1  C   UNL     1       1.389   8.289  21.387  0.00  0.00    +0.000 C 
ATOM      2  C   UNL     1       1.692   7.868  19.969  0.00  0.00    +0.000 C 
ATOM      3  O   UNL     1       1.398   8.612  19.032  0.00  0.00    +0.000 OA
ATOM      4  N   UNL     1       2.323   6.646  19.779  0.00  0.00    +0.000 N 
ATOM      5  C   UNL     1       2.582   5.668  20.833  0.00  0.00    +0.000 C 
ATOM      6  C   UNL     1       1.450   4.667  21.044  0.00  0.00    +0.000 C 
ATOM      7  C   UNL     1       0.898   3.955  19.806  0.00  0.00    +0.000 C 
ATOM      8  N   UNL     1       1.779   3.916  18.637  0.00  0.00    +0.000 N 
ATOM      9  C   UNL     1       2.489   2.750  18.361  0.00  0.00    +0.000 C 
ATOM     10  O   UNL     1       2.402   1.761  19.099  0.00  0.00    +0.000 OA
ATOM     11  C   UNL     1       1.805   5.144  17.825  0.00  0.00    +0.000 C 
ATOM     12  C   UNL     1       2.697   6.245  18.418  0.00  0.00    +0.000 C 
ENDROOT
BRANCH   9  13
ATOM     13  C   UNL     1       3.410   2.695  17.149  0.00  0.00    +0.000 C 
BRANCH  13  14
ATOM     14  N   UNL     1       4.658   3.444  17.275  0.00  0.00    +0.000 N 
ATOM     15  C   UNL     1       5.209   3.895  18.449  0.00  0.00    +0.000 A 
ATOM     16  C   UNL     1       6.356   4.594  18.149  0.00  0.00    +0.000 A 
ATOM     17  C   UNL     1       6.493   4.616  16.738  0.00  0.00    +0.000 A 
ATOM     18  C   UNL     1       7.435   5.199  15.864  0.00  0.00    +0.000 A 
ATOM     19  C   UNL     1       7.269   5.073  14.484  0.00  0.00    +0.000 A 
ATOM     20  C   UNL     1       6.178   4.376  13.969  0.00  0.00    +0.000 A 
ATOM     21  C   UNL     1       5.233   3.782  14.815  0.00  0.00    +0.000 A 
ATOM     22  C   UNL     1       5.411   3.906  16.204  0.00  0.00    +0.000 A 
ENDBRANCH  13  14
ENDBRANCH   9  13
TORSDOF 2
ENDMDL
MODEL 7
REMARK VINA RESULT:      -6.4      2.437      7.600
REMARK  Name = 
REMARK  3 active torsions:
REMARK  status: ('A' for Active; 'I' for Inactive)
REMARK    1  A    between atoms: C_1  and  C_2
REMARK    2  A    between atoms: C_9  and  C_11
REMARK    3  A    between atoms: C_11  and  N_12
REMARK                            x       y       z     vdW  Elec       q    Type
REMARK                         _______ _______ _______ _____ _____    ______ ____
ROOT
ATOM      1  C   UNL     1      -1.875  12.268  21.480  0.00  0.00    +0.000 C 
ATOM      2  C   UNL     1      -0.937  11.189  21.964  0.00  0.00    +0.000 C 
ATOM      3  O   UNL     1      -0.505  11.222  23.116  0.00  0.00    +0.000 OA
ATOM      4  N   UNL     1      -0.613  10.170  21.077  0.00  0.00    +0.000 N 
ATOM      5  C   UNL     1      -0.990  10.140  19.666  0.00  0.00    +0.000 C 
ATOM      6  C   UNL     1       0.020  10.809  18.739  0.00  0.00    +0.000 C 
ATOM      7  C   UNL     1       1.490  10.403  18.887  0.00  0.00    +0.000 C 
ATOM      8  N   UNL     1       1.741   9.113  19.531  0.00  0.00    +0.000 N 
ATOM      9  C   UNL     1       2.047   8.008  18.739  0.00  0.00    +0.000 C 
ATOM     10  O   UNL     1       2.086   8.098  17.507  0.00  0.00    +0.000 OA
ATOM     11  C   UNL     1       1.673   9.116  21.001  0.00  0.00    +0.000 C 
ATOM     12  C   UNL     1       0.236   9.068  21.543  0.00  0.00    +0.000 C 
ENDROOT
BRANCH   9  13
ATOM     13  C   UNL     1       2.311   6.658  19.395  0.00  0.00    +0.000 C 
BRANCH  13  14
ATOM     14  N   UNL     1       2.643   5.569  18.478  0.00  0.00    +0.000 N 
ATOM     15  C   UNL     1       1.828   4.512  18.157  0.00  0.00    +0.000 A 
ATOM     16  C   UNL     1       2.514   3.679  17.302  0.00  0.00    +0.000 A 
ATOM     17  C   UNL     1       3.816   4.215  17.128  0.00  0.00    +0.000 A 
ATOM     18  C   UNL     1       4.951   3.790  16.406  0.00  0.00    +0.000 A 
ATOM     19  C   UNL     1       6.129   4.536  16.468  0.00  0.00    +0.000 A 
ATOM     20  C   UNL     1       6.187   5.694  17.239  0.00  0.00    +0.000 A 
ATOM     21  C   UNL     1       5.072   6.141  17.959  0.00  0.00    +0.000 A 
ATOM     22  C   UNL     1       3.886   5.390  17.886  0.00  0.00    +0.000 A 
ENDBRANCH  13  14
ENDBRANCH   9  13
TORSDOF 2
ENDMDL
MODEL 8
REMARK VINA RESULT:      -6.4      3.046      7.391
REMARK  Name = 
REMARK  3 active torsions:
REMARK  status: ('A' for Active; 'I' for Inactive)
REMARK    1  A    between atoms: C_1  and  C_2
REMARK    2  A    between atoms: C_9  and  C_11
REMARK    3  A    between atoms: C_11  and  N_12
REMARK                            x       y       z     vdW  Elec       q    Type
REMARK                         _______ _______ _______ _____ _____    ______ ____
ROOT
ATOM      1  C   UNL     1       1.300   2.952  21.193  0.00  0.00    +0.000 C 
ATOM      2  C   UNL     1       2.761   2.884  20.819  0.00  0.00    +0.000 C 
ATOM      3  O   UNL     1       3.553   2.283  21.545  0.00  0.00    +0.000 OA
ATOM      4  N   UNL     1       3.154   3.497  19.636  0.00  0.00    +0.000 N 
ATOM      5  C   UNL     1       2.291   4.328  18.800  0.00  0.00    +0.000 C 
ATOM      6  C   UNL     1       2.303   5.807  19.173  0.00  0.00    +0.000 C 
ATOM      7  C   UNL     1       3.668   6.483  19.336  0.00  0.00    +0.000 C 
ATOM      8  N   UNL     1       4.796   5.826  18.673  0.00  0.00    +0.000 N 
ATOM      9  C   UNL     1       5.261   6.334  17.462  0.00  0.00    +0.000 C 
ATOM     10  O   UNL     1       4.721   7.312  16.932  0.00  0.00    +0.000 OA
ATOM     11  C   UNL     1       5.366   4.674  19.390  0.00  0.00    +0.000 C 
ATOM     12  C   UNL     1       4.554   3.383  19.210  0.00  0.00    +0.000 C 
ENDROOT
BRANCH   9  13
ATOM     13  C   UNL     1       6.434   5.661  16.760  0.00  0.00    +0.000 C 
BRANCH  13  14
ATOM     14  N   UNL     1       6.078   4.782  15.648  0.00  0.00    +0.000 N 
ATOM     15  C   UNL     1       5.204   3.725  15.706  0.00  0.00    +0.000 A 
ATOM     16  C   UNL     1       5.172   3.119  14.471  0.00  0.00    +0.000 A 
ATOM     17  C   UNL     1       6.096   3.796  13.633  0.00  0.00    +0.000 A 
ATOM     18  C   UNL     1       6.511   3.608  12.298  0.00  0.00    +0.000 A 
ATOM     19  C   UNL     1       7.494   4.439  11.757  0.00  0.00    +0.000 A 
ATOM     20  C   UNL     1       8.065   5.448  12.530  0.00  0.00    +0.000 A 
ATOM     21  C   UNL     1       7.664   5.658  13.855  0.00  0.00    +0.000 A 
ATOM     22  C   UNL     1       6.668   4.824  14.391  0.00  0.00    +0.000 A 
ENDBRANCH  13  14
ENDBRANCH   9  13
TORSDOF 2
ENDMDL
MODEL 9
REMARK VINA RESULT:      -6.3      2.708      7.728
REMARK  Name = 
REMARK  3 active torsions:
REMARK  status: ('A' for Active; 'I' for Inactive)
REMARK    1  A    between atoms: C_1  and  C_2
REMARK    2  A    between atoms: C_9  and  C_11
REMARK    3  A    between atoms: C_11  and  N_12
REMARK                            x       y       z     vdW  Elec       q    Type
REMARK                         _______ _______ _______ _____ _____    ______ ____
ROOT
ATOM      1  C   UNL     1      -2.040  12.799  21.506  0.00  0.00    +0.000 C 
ATOM      2  C   UNL     1      -1.116  11.692  21.955  0.00  0.00    +0.000 C 
ATOM      3  O   UNL     1      -0.696  11.674  23.112  0.00  0.00    +0.000 OA
ATOM      4  N   UNL     1      -0.792  10.708  21.030  0.00  0.00    +0.000 N 
ATOM      5  C   UNL     1      -1.155  10.739  19.615  0.00  0.00    +0.000 C 
ATOM      6  C   UNL     1      -0.129  11.436  18.726  0.00  0.00    +0.000 C 
ATOM      7  C   UNL     1       1.335  11.011  18.872  0.00  0.00    +0.000 C 
ATOM      8  N   UNL     1       1.568   9.693  19.465  0.00  0.00    +0.000 N 
ATOM      9  C   UNL     1       1.873   8.619  18.632  0.00  0.00    +0.000 C 
ATOM     10  O   UNL     1       1.926   8.759  17.404  0.00  0.00    +0.000 OA
ATOM     11  C   UNL     1       1.485   9.637  20.934  0.00  0.00    +0.000 C 
ATOM     12  C   UNL     1       0.043   9.579  21.458  0.00  0.00    +0.000 C 
ENDROOT
BRANCH   9  13
ATOM     13  C   UNL     1       2.118   7.241  19.234  0.00  0.00    +0.000 C 
BRANCH  13  14
ATOM     14  N   UNL     1       2.945   6.343  18.430  0.00  0.00    +0.000 N 
ATOM     15  C   UNL     1       4.015   6.716  17.655  0.00  0.00    +0.000 A 
ATOM     16  C   UNL     1       4.501   5.595  17.019  0.00  0.00    +0.000 A 
ATOM     17  C   UNL     1       3.673   4.501  17.378  0.00  0.00    +0.000 A 
ATOM     18  C   UNL     1       3.660   3.136  17.019  0.00  0.00    +0.000 A 
ATOM     19  C   UNL     1       2.664   2.299  17.524  0.00  0.00    +0.000 A 
ATOM     20  C   UNL     1       1.686   2.805  18.377  0.00  0.00    +0.000 A 
ATOM     21  C   UNL     1       1.681   4.153  18.754  0.00  0.00    +0.000 A 
ATOM     22  C   UNL     1       2.692   4.990  18.248  0.00  0.00    +0.000 A 
ENDBRANCH  13  14
ENDBRANCH   9  13
TORSDOF 2
ENDMDL
