MODEL 1
REMARK VINA RESULT:      -7.0      0.000      0.000
REMARK  Name = 
REMARK  6 active torsions:
REMARK  status: ('A' for Active; 'I' for Inactive)
REMARK    1  A    between atoms: C_1  and  C_2
REMARK    2  A    between atoms: C_4  and  C_5
REMARK    3  A    between atoms: C_5  and  N_6
REMARK    4  A    between atoms: C_10  and  C_12
REMARK    5  A    between atoms: C_12  and  C_13
REMARK    6  A    between atoms: C_13  and  C_14
REMARK                            x       y       z     vdW  Elec       q    Type
REMARK                         _______ _______ _______ _____ _____    ______ ____
ROOT
ATOM      1  N   UNL     1       4.703   5.417  18.238  0.00  0.00    +0.000 NA
ATOM      2  C   UNL     1       4.675   6.812  17.743  0.00  0.00    +0.000 C 
ATOM      3  C   UNL     1       3.228   7.317  17.734  0.00  0.00    +0.000 C 
ATOM      4  N   UNL     1       2.634   7.232  19.071  0.00  0.00    +0.000 N 
ATOM      5  C   UNL     1       1.764   8.240  19.454  0.00  0.00    +0.000 C 
ATOM      6  O   UNL     1       1.601   9.253  18.771  0.00  0.00    +0.000 OA
ATOM      7  C   UNL     1       2.794   5.929  19.732  0.00  0.00    +0.000 C 
ATOM      8  C   UNL     1       4.244   5.403  19.636  0.00  0.00    +0.000 C 
ENDROOT
BRANCH   1   9
ATOM      9  C   UNL     1       6.024   4.800  18.061  0.00  0.00    +0.000 C 
BRANCH   9  13
ATOM     10  C   UNL     1       6.162   3.837  13.051  0.00  0.00    +0.000 C 
ATOM     11  C   UNL     1       6.393   4.295  14.438  0.00  0.00    +0.000 A 
ATOM     12  C   UNL     1       5.777   3.842  15.623  0.00  0.00    +0.000 A 
ATOM     13  C   UNL     1       6.311   4.636  16.610  0.00  0.00    +0.000 A 
ATOM     14  O   UNL     1       7.214   5.489  16.058  0.00  0.00    +0.000 OA
ATOM     15  N   UNL     1       7.269   5.277  14.690  0.00  0.00    +0.000 NA
ENDBRANCH   9  13
ENDBRANCH   1   9
BRANCH   5  16
ATOM     16  C   UNL     1       1.066   8.091  20.788  0.00  0.00    +0.000 C 
BRANCH  16  17
ATOM     17  C   UNL     1       1.516   9.190  21.749  0.00  0.00    +0.000 C 
BRANCH  17  18
ATOM     18  C   UNL     1       0.393  10.125  22.065  0.00  0.00    +0.000 A 
ATOM     19  C   UNL     1      -0.523  10.038  23.096  0.00  0.00    +0.000 A 
ATOM     20  C   UNL     1      -1.449  11.120  23.090  0.00  0.00    +0.000 A 
ATOM     21  C   UNL     1      -1.208  11.997  22.056  0.00  0.00    +0.000 A 
ATOM     22  S   UNL     1       0.124  11.518  21.104  0.00  0.00    +0.000 S 
ENDBRANCH  17  18
ENDBRANCH  16  17
ENDBRANCH   5  16
TORSDOF 5
ENDMDL
MODEL 2
REMARK VINA RESULT:      -6.9      3.444      4.644
REMARK  Name = 
REMARK  6 active torsions:
REMARK  status: ('A' for Active; 'I' for Inactive)
REMARK    1  A    between atoms: C_1  and  C_2
REMARK    2  A    between atoms: C_4  and  C_5
REMARK    3  A    between atoms: C_5  and  N_6
REMARK    4  A    between atoms: C_10  and  C_12
REMARK    5  A    between atoms: C_12  and  C_13
REMARK    6  A    between atoms: C_13  and  C_14
REMARK                            x       y       z     vdW  Elec       q    Type
REMARK                         _______ _______ _______ _____ _____    ______ ____
ROOT
ATOM      1  N   UNL     1       5.753   5.527  16.964  0.00  0.00    +0.000 NA
ATOM      2  C   UNL     1       5.280   6.930  16.981  0.00  0.00    +0.000 C 
ATOM      3  C   UNL     1       3.796   6.959  17.360  0.00  0.00    +0.000 C 
ATOM      4  N   UNL     1       3.574   6.324  18.662  0.00  0.00    +0.000 N 
ATOM      5  C   UNL     1       2.608   6.873  19.489  0.00  0.00    +0.000 C 
ATOM      6  O   UNL     1       2.053   7.941  19.222  0.00  0.00    +0.000 OA
ATOM      7  C   UNL     1       4.188   4.998  18.811  0.00  0.00    +0.000 C 
ATOM      8  C   UNL     1       5.657   4.980  18.326  0.00  0.00    +0.000 C 
ENDROOT
BRANCH   1   9
ATOM      9  C   UNL     1       7.101   5.411  16.393  0.00  0.00    +0.000 C 
BRANCH   9  13
ATOM     10  C   UNL     1       5.974   3.143  11.963  0.00  0.00    +0.000 C 
ATOM     11  C   UNL     1       6.554   3.926  13.074  0.00  0.00    +0.000 A 
ATOM     12  C   UNL     1       6.229   3.871  14.446  0.00  0.00    +0.000 A 
ATOM     13  C   UNL     1       7.018   4.838  15.022  0.00  0.00    +0.000 A 
ATOM     14  O   UNL     1       7.791   5.414  14.063  0.00  0.00    +0.000 OA
ATOM     15  N   UNL     1       7.502   4.842  12.836  0.00  0.00    +0.000 NA
ENDBRANCH   9  13
ENDBRANCH   1   9
BRANCH   5  16
ATOM     16  C   UNL     1       2.302   6.149  20.782  0.00  0.00    +0.000 C 
BRANCH  16  17
ATOM     17  C   UNL     1       1.000   5.360  20.655  0.00  0.00    +0.000 C 
BRANCH  17  18
ATOM     18  C   UNL     1       1.241   4.014  20.050  0.00  0.00    +0.000 A 
ATOM     19  C   UNL     1       0.967   3.597  18.762  0.00  0.00    +0.000 A 
ATOM     20  C   UNL     1       1.341   2.241  18.541  0.00  0.00    +0.000 A 
ATOM     21  C   UNL     1       1.891   1.669  19.667  0.00  0.00    +0.000 A 
ATOM     22  S   UNL     1       1.954   2.760  20.977  0.00  0.00    +0.000 S 
ENDBRANCH  17  18
ENDBRANCH  16  17
ENDBRANCH   5  16
TORSDOF 5
ENDMDL
MODEL 3
REMARK VINA RESULT:      -6.5      2.776      3.934
REMARK  Name = 
REMARK  6 active torsions:
REMARK  status: ('A' for Active; 'I' for Inactive)
REMARK    1  A    between atoms: C_1  and  C_2
REMARK    2  A    between atoms: C_4  and  C_5
REMARK    3  A    between atoms: C_5  and  N_6
REMARK    4  A    between atoms: C_10  and  C_12
REMARK    5  A    between atoms: C_12  and  C_13
REMARK    6  A    between atoms: C_13  and  C_14
REMARK                            x       y       z     vdW  Elec       q    Type
REMARK                         _______ _______ _______ _____ _____    ______ ____
ROOT
ATOM      1  N   UNL     1       6.066   4.132  17.833  0.00  0.00    +0.000 NA
ATOM      2  C   UNL     1       5.103   4.411  16.743  0.00  0.00    +0.000 C 
ATOM      3  C   UNL     1       3.762   3.745  17.070  0.00  0.00    +0.000 C 
ATOM      4  N   UNL     1       3.240   4.219  18.354  0.00  0.00    +0.000 N 
ATOM      5  C   UNL     1       1.869   4.386  18.469  0.00  0.00    +0.000 C 
ATOM      6  O   UNL     1       1.118   4.289  17.496  0.00  0.00    +0.000 OA
ATOM      7  C   UNL     1       4.201   4.170  19.464  0.00  0.00    +0.000 C 
ATOM      8  C   UNL     1       5.575   4.760  19.069  0.00  0.00    +0.000 C 
ENDROOT
BRANCH   1   9
ATOM      9  C   UNL     1       7.429   4.549  17.479  0.00  0.00    +0.000 C 
BRANCH   9  13
ATOM     10  C   UNL     1       8.603   9.370  18.674  0.00  0.00    +0.000 C 
ATOM     11  C   UNL     1       8.072   8.116  18.098  0.00  0.00    +0.000 A 
ATOM     12  C   UNL     1       8.180   6.806  18.607  0.00  0.00    +0.000 A 
ATOM     13  C   UNL     1       7.566   6.021  17.660  0.00  0.00    +0.000 A 
ATOM     14  O   UNL     1       7.091   6.813  16.662  0.00  0.00    +0.000 OA
ATOM     15  N   UNL     1       7.406   8.134  16.936  0.00  0.00    +0.000 NA
ENDBRANCH   9  13
ENDBRANCH   1   9
BRANCH   5  16
ATOM     16  C   UNL     1       1.323   4.766  19.828  0.00  0.00    +0.000 C 
BRANCH  16  17
ATOM     17  C   UNL     1       2.226   5.805  20.491  0.00  0.00    +0.000 C 
BRANCH  17  18
ATOM     18  C   UNL     1       1.772   7.195  20.178  0.00  0.00    +0.000 A 
ATOM     19  C   UNL     1       1.027   8.046  20.971  0.00  0.00    +0.000 A 
ATOM     20  C   UNL     1       0.791   9.303  20.342  0.00  0.00    +0.000 A 
ATOM     21  C   UNL     1       1.366   9.368  19.093  0.00  0.00    +0.000 A 
ATOM     22  S   UNL     1       2.183   7.928  18.684  0.00  0.00    +0.000 S 
ENDBRANCH  17  18
ENDBRANCH  16  17
ENDBRANCH   5  16
TORSDOF 5
ENDMDL
MODEL 4
REMARK VINA RESULT:      -6.5      2.346      2.782
REMARK  Name = 
REMARK  6 active torsions:
REMARK  status: ('A' for Active; 'I' for Inactive)
REMARK    1  A    between atoms: C_1  and  C_2
REMARK    2  A    between atoms: C_4  and  C_5
REMARK    3  A    between atoms: C_5  and  N_6
REMARK    4  A    between atoms: C_10  and  C_12
REMARK    5  A    between atoms: C_12  and  C_13
REMARK    6  A    between atoms: C_13  and  C_14
REMARK                            x       y       z     vdW  Elec       q    Type
REMARK                         _______ _______ _______ _____ _____    ______ ____
ROOT
ATOM      1  N   UNL     1       6.295   5.466  17.855  0.00  0.00    +0.000 NA
ATOM      2  C   UNL     1       5.231   4.651  18.485  0.00  0.00    +0.000 C 
ATOM      3  C   UNL     1       4.309   5.564  19.300  0.00  0.00    +0.000 C 
ATOM      4  N   UNL     1       3.726   6.609  18.456  0.00  0.00    +0.000 N 
ATOM      5  C   UNL     1       2.419   6.991  18.715  0.00  0.00    +0.000 C 
ATOM      6  O   UNL     1       1.711   6.382  19.520  0.00  0.00    +0.000 OA
ATOM      7  C   UNL     1       4.694   7.344  17.631  0.00  0.00    +0.000 C 
ATOM      8  C   UNL     1       5.673   6.396  16.900  0.00  0.00    +0.000 C 
ENDROOT
BRANCH   1   9
ATOM      9  C   UNL     1       7.337   4.630  17.246  0.00  0.00    +0.000 C 
BRANCH   9  13
ATOM     10  C   UNL     1       5.572   3.650  12.559  0.00  0.00    +0.000 C 
ATOM     11  C   UNL     1       6.314   4.107  13.753  0.00  0.00    +0.000 A 
ATOM     12  C   UNL     1       6.177   3.670  15.087  0.00  0.00    +0.000 A 
ATOM     13  C   UNL     1       7.057   4.455  15.794  0.00  0.00    +0.000 A 
ATOM     14  O   UNL     1       7.703   5.287  14.936  0.00  0.00    +0.000 OA
ATOM     15  N   UNL     1       7.239   5.070  13.649  0.00  0.00    +0.000 NA
ENDBRANCH   9  13
ENDBRANCH   1   9
BRANCH   5  16
ATOM     16  C   UNL     1       1.858   8.147  17.917  0.00  0.00    +0.000 C 
BRANCH  16  17
ATOM     17  C   UNL     1       1.554   9.329  18.836  0.00  0.00    +0.000 C 
BRANCH  17  18
ATOM     18  C   UNL     1       0.304  10.034  18.415  0.00  0.00    +0.000 A 
ATOM     19  C   UNL     1      -0.741   9.538  17.661  0.00  0.00    +0.000 A 
ATOM     20  C   UNL     1      -1.772  10.501  17.466  0.00  0.00    +0.000 A 
ATOM     21  C   UNL     1      -1.481  11.698  18.080  0.00  0.00    +0.000 A 
ATOM     22  S   UNL     1       0.023  11.659  18.884  0.00  0.00    +0.000 S 
ENDBRANCH  17  18
ENDBRANCH  16  17
ENDBRANCH   5  16
TORSDOF 5
ENDMDL
MODEL 5
REMARK VINA RESULT:      -6.5      1.700      2.479
REMARK  Name = 
REMARK  6 active torsions:
REMARK  status: ('A' for Active; 'I' for Inactive)
REMARK    1  A    between atoms: C_1  and  C_2
REMARK    2  A    between atoms: C_4  and  C_5
REMARK    3  A    between atoms: C_5  and  N_6
REMARK    4  A    between atoms: C_10  and  C_12
REMARK    5  A    between atoms: C_12  and  C_13
REMARK    6  A    between atoms: C_13  and  C_14
REMARK                            x       y       z     vdW  Elec       q    Type
REMARK                         _______ _______ _______ _____ _____    ______ ____
ROOT
ATOM      1  N   UNL     1       6.365   5.447  17.705  0.00  0.00    +0.000 NA
ATOM      2  C   UNL     1       5.463   4.630  18.549  0.00  0.00    +0.000 C 
ATOM      3  C   UNL     1       4.534   5.556  19.340  0.00  0.00    +0.000 C 
ATOM      4  N   UNL     1       3.761   6.416  18.441  0.00  0.00    +0.000 N 
ATOM      5  C   UNL     1       2.452   6.706  18.795  0.00  0.00    +0.000 C 
ATOM      6  O   UNL     1       1.897   6.150  19.745  0.00  0.00    +0.000 OA
ATOM      7  C   UNL     1       4.557   7.118  17.426  0.00  0.00    +0.000 C 
ATOM      8  C   UNL     1       5.555   6.174  16.716  0.00  0.00    +0.000 C 
ENDROOT
BRANCH   1   9
ATOM      9  C   UNL     1       7.426   4.636  17.094  0.00  0.00    +0.000 C 
BRANCH   9  13
ATOM     10  C   UNL     1       5.646   3.554  12.435  0.00  0.00    +0.000 C 
ATOM     11  C   UNL     1       6.385   4.046  13.617  0.00  0.00    +0.000 A 
ATOM     12  C   UNL     1       6.276   3.618  14.956  0.00  0.00    +0.000 A 
ATOM     13  C   UNL     1       7.137   4.438  15.647  0.00  0.00    +0.000 A 
ATOM     14  O   UNL     1       7.748   5.282  14.774  0.00  0.00    +0.000 OA
ATOM     15  N   UNL     1       7.277   5.037  13.494  0.00  0.00    +0.000 NA
ENDBRANCH   9  13
ENDBRANCH   1   9
BRANCH   5  16
ATOM     16  C   UNL     1       1.694   7.684  17.925  0.00  0.00    +0.000 C 
BRANCH  16  17
ATOM     17  C   UNL     1       2.033   9.120  18.319  0.00  0.00    +0.000 C 
BRANCH  17  18
ATOM     18  C   UNL     1       0.909   9.754  19.074  0.00  0.00    +0.000 A 
ATOM     19  C   UNL     1      -0.155  10.477  18.570  0.00  0.00    +0.000 A 
ATOM     20  C   UNL     1      -1.040  10.922  19.593  0.00  0.00    +0.000 A 
ATOM     21  C   UNL     1      -0.624  10.522  20.843  0.00  0.00    +0.000 A 
ATOM     22  S   UNL     1       0.821   9.618  20.781  0.00  0.00    +0.000 S 
ENDBRANCH  17  18
ENDBRANCH  16  17
ENDBRANCH   5  16
TORSDOF 5
ENDMDL
MODEL 6
REMARK VINA RESULT:      -6.4      3.003      3.740
REMARK  Name = 
REMARK  6 active torsions:
REMARK  status: ('A' for Active; 'I' for Inactive)
REMARK    1  A    between atoms: C_1  and  C_2
REMARK    2  A    between atoms: C_4  and  C_5
REMARK    3  A    between atoms: C_5  and  N_6
REMARK    4  A    between atoms: C_10  and  C_12
REMARK    5  A    between atoms: C_12  and  C_13
REMARK    6  A    between atoms: C_13  and  C_14
REMARK                            x       y       z     vdW  Elec       q    Type
REMARK                         _______ _______ _______ _____ _____    ______ ____
ROOT
ATOM      1  N   UNL     1       2.893   5.941  19.421  0.00  0.00    +0.000 NA
ATOM      2  C   UNL     1       1.892   6.154  20.492  0.00  0.00    +0.000 C 
ATOM      3  C   UNL     1       1.835   7.644  20.843  0.00  0.00    +0.000 C 
ATOM      4  N   UNL     1       1.507   8.448  19.664  0.00  0.00    +0.000 N 
ATOM      5  C   UNL     1       0.697   9.558  19.847  0.00  0.00    +0.000 C 
ATOM      6  O   UNL     1       0.143   9.788  20.924  0.00  0.00    +0.000 OA
ATOM      7  C   UNL     1       2.323   8.160  18.476  0.00  0.00    +0.000 C 
ATOM      8  C   UNL     1       2.442   6.642  18.209  0.00  0.00    +0.000 C 
ENDROOT
BRANCH   1   9
ATOM      9  C   UNL     1       3.158   4.514  19.195  0.00  0.00    +0.000 C 
BRANCH   9  13
ATOM     10  C   UNL     1       6.122   3.913  15.084  0.00  0.00    +0.000 C 
ATOM     11  C   UNL     1       5.549   4.161  16.425  0.00  0.00    +0.000 A 
ATOM     12  C   UNL     1       4.247   3.879  16.885  0.00  0.00    +0.000 A 
ATOM     13  C   UNL     1       4.229   4.358  18.173  0.00  0.00    +0.000 A 
ATOM     14  O   UNL     1       5.453   4.866  18.478  0.00  0.00    +0.000 OA
ATOM     15  N   UNL     1       6.287   4.742  17.380  0.00  0.00    +0.000 NA
ENDBRANCH   9  13
ENDBRANCH   1   9
BRANCH   5  16
ATOM     16  C   UNL     1       0.453  10.450  18.649  0.00  0.00    +0.000 C 
BRANCH  16  17
ATOM     17  C   UNL     1      -0.788  11.312  18.873  0.00  0.00    +0.000 C 
BRANCH  17  18
ATOM     18  C   UNL     1      -1.896  10.915  17.951  0.00  0.00    +0.000 A 
ATOM     19  C   UNL     1      -1.856  10.003  16.914  0.00  0.00    +0.000 A 
ATOM     20  C   UNL     1      -3.113   9.877  16.256  0.00  0.00    +0.000 A 
ATOM     21  C   UNL     1      -4.070  10.695  16.814  0.00  0.00    +0.000 A 
ATOM     22  S   UNL     1      -3.456  11.606  18.119  0.00  0.00    +0.000 S 
ENDBRANCH  17  18
ENDBRANCH  16  17
ENDBRANCH   5  16
TORSDOF 5
ENDMDL
MODEL 7
REMARK VINA RESULT:      -6.3      3.790      8.376
REMARK  Name = 
REMARK  6 active torsions:
REMARK  status: ('A' for Active; 'I' for Inactive)
REMARK    1  A    between atoms: C_1  and  C_2
REMARK    2  A    between atoms: C_4  and  C_5
REMARK    3  A    between atoms: C_5  and  N_6
REMARK    4  A    between atoms: C_10  and  C_12
REMARK    5  A    between atoms: C_12  and  C_13
REMARK    6  A    between atoms: C_13  and  C_14
REMARK                            x       y       z     vdW  Elec       q    Type
REMARK                         _______ _______ _______ _____ _____    ______ ____
ROOT
ATOM      1  N   UNL     1       1.488   8.588  18.956  0.00  0.00    +0.000 NA
ATOM      2  C   UNL     1       1.710   8.216  20.373  0.00  0.00    +0.000 C 
ATOM      3  C   UNL     1       1.463   6.715  20.547  0.00  0.00    +0.000 C 
ATOM      4  N   UNL     1       2.336   5.934  19.667  0.00  0.00    +0.000 N 
ATOM      5  C   UNL     1       2.832   4.734  20.151  0.00  0.00    +0.000 C 
ATOM      6  O   UNL     1       2.679   4.394  21.326  0.00  0.00    +0.000 OA
ATOM      7  C   UNL     1       2.337   6.366  18.262  0.00  0.00    +0.000 C 
ATOM      8  C   UNL     1       2.488   7.899  18.126  0.00  0.00    +0.000 C 
ENDROOT
BRANCH   1   9
ATOM      9  C   UNL     1       1.489  10.044  18.766  0.00  0.00    +0.000 C 
BRANCH   9  13
ATOM     10  C   UNL     1      -3.459  10.788  17.762  0.00  0.00    +0.000 C 
ATOM     11  C   UNL     1      -2.042  10.881  18.173  0.00  0.00    +0.000 A 
ATOM     12  C   UNL     1      -0.982  10.004  17.861  0.00  0.00    +0.000 A 
ATOM     13  C   UNL     1       0.097  10.521  18.537  0.00  0.00    +0.000 A 
ATOM     14  O   UNL     1      -0.282  11.654  19.187  0.00  0.00    +0.000 OA
ATOM     15  N   UNL     1      -1.629  11.884  18.958  0.00  0.00    +0.000 NA
ENDBRANCH   9  13
ENDBRANCH   1   9
BRANCH   5  16
ATOM     16  C   UNL     1       3.640   3.878  19.201  0.00  0.00    +0.000 C 
BRANCH  16  17
ATOM     17  C   UNL     1       5.086   4.365  19.146  0.00  0.00    +0.000 C 
BRANCH  17  18
ATOM     18  C   UNL     1       5.590   4.406  17.738  0.00  0.00    +0.000 A 
ATOM     19  C   UNL     1       4.883   4.178  16.574  0.00  0.00    +0.000 A 
ATOM     20  C   UNL     1       5.696   4.314  15.412  0.00  0.00    +0.000 A 
ATOM     21  C   UNL     1       6.995   4.645  15.729  0.00  0.00    +0.000 A 
ATOM     22  S   UNL     1       7.229   4.789  17.412  0.00  0.00    +0.000 S 
ENDBRANCH  17  18
ENDBRANCH  16  17
ENDBRANCH   5  16
TORSDOF 5
ENDMDL
MODEL 8
REMARK VINA RESULT:      -6.3      1.514      1.733
REMARK  Name = 
REMARK  6 active torsions:
REMARK  status: ('A' for Active; 'I' for Inactive)
REMARK    1  A    between atoms: C_1  and  C_2
REMARK    2  A    between atoms: C_4  and  C_5
REMARK    3  A    between atoms: C_5  and  N_6
REMARK    4  A    between atoms: C_10  and  C_12
REMARK    5  A    between atoms: C_12  and  C_13
REMARK    6  A    between atoms: C_13  and  C_14
REMARK                            x       y       z     vdW  Elec       q    Type
REMARK                         _______ _______ _______ _____ _____    ______ ____
ROOT
ATOM      1  N   UNL     1       4.581   5.601  17.924  0.00  0.00    +0.000 NA
ATOM      2  C   UNL     1       4.714   6.883  17.194  0.00  0.00    +0.000 C 
ATOM      3  C   UNL     1       3.329   7.516  17.026  0.00  0.00    +0.000 C 
ATOM      4  N   UNL     1       2.688   7.728  18.326  0.00  0.00    +0.000 N 
ATOM      5  C   UNL     1       1.916   8.868  18.485  0.00  0.00    +0.000 C 
ATOM      6  O   UNL     1       1.882   9.755  17.629  0.00  0.00    +0.000 OA
ATOM      7  C   UNL     1       2.689   6.554  19.210  0.00  0.00    +0.000 C 
ATOM      8  C   UNL     1       4.079   5.880  19.278  0.00  0.00    +0.000 C 
ENDROOT
BRANCH   1   9
ATOM      9  C   UNL     1       5.835   4.837  17.922  0.00  0.00    +0.000 C 
BRANCH   9  13
ATOM     10  C   UNL     1       6.508   3.787  12.973  0.00  0.00    +0.000 C 
ATOM     11  C   UNL     1       6.610   4.236  14.378  0.00  0.00    +0.000 A 
ATOM     12  C   UNL     1       5.795   3.877  15.472  0.00  0.00    +0.000 A 
ATOM     13  C   UNL     1       6.287   4.618  16.520  0.00  0.00    +0.000 A 
ATOM     14  O   UNL     1       7.349   5.350  16.092  0.00  0.00    +0.000 OA
ATOM     15  N   UNL     1       7.556   5.111  14.743  0.00  0.00    +0.000 NA
ENDBRANCH   9  13
ENDBRANCH   1   9
BRANCH   5  16
ATOM     16  C   UNL     1       1.165   9.027  19.789  0.00  0.00    +0.000 C 
BRANCH  16  17
ATOM     17  C   UNL     1      -0.076   9.894  19.584  0.00  0.00    +0.000 C 
BRANCH  17  18
ATOM     18  C   UNL     1       0.218  11.333  19.859  0.00  0.00    +0.000 A 
ATOM     19  C   UNL     1       0.938  11.871  20.909  0.00  0.00    +0.000 A 
ATOM     20  C   UNL     1       1.020  13.291  20.838  0.00  0.00    +0.000 A 
ATOM     21  C   UNL     1       0.361  13.790  19.736  0.00  0.00    +0.000 A 
ATOM     22  S   UNL     1      -0.347  12.555  18.797  0.00  0.00    +0.000 S 
ENDBRANCH  17  18
ENDBRANCH  16  17
ENDBRANCH   5  16
TORSDOF 5
ENDMDL
MODEL 9
REMARK VINA RESULT:      -6.2      3.666      5.524
REMARK  Name = 
REMARK  6 active torsions:
REMARK  status: ('A' for Active; 'I' for Inactive)
REMARK    1  A    between atoms: C_1  and  C_2
REMARK    2  A    between atoms: C_4  and  C_5
REMARK    3  A    between atoms: C_5  and  N_6
REMARK    4  A    between atoms: C_10  and  C_12
REMARK    5  A    between atoms: C_12  and  C_13
REMARK    6  A    between atoms: C_13  and  C_14
REMARK                            x       y       z     vdW  Elec       q    Type
REMARK                         _______ _______ _______ _____ _____    ______ ____
ROOT
ATOM      1  N   UNL     1       2.701   7.433  18.821  0.00  0.00    +0.000 NA
ATOM      2  C   UNL     1       1.775   7.227  19.959  0.00  0.00    +0.000 C 
ATOM      3  C   UNL     1       1.463   8.579  20.608  0.00  0.00    +0.000 C 
ATOM      4  N   UNL     1       0.884   9.508  19.634  0.00  0.00    +0.000 N 
ATOM      5  C   UNL     1      -0.106  10.371  20.077  0.00  0.00    +0.000 C 
ATOM      6  O   UNL     1      -0.598  10.274  21.203  0.00  0.00    +0.000 OA
ATOM      7  C   UNL     1       1.633   9.625  18.376  0.00  0.00    +0.000 C 
ATOM      8  C   UNL     1       2.019   8.243  17.799  0.00  0.00    +0.000 C 
ENDROOT
BRANCH   1   9
ATOM      9  C   UNL     1       3.215   6.162  18.297  0.00  0.00    +0.000 C 
BRANCH   9  13
ATOM     10  C   UNL     1       1.561   2.667  21.628  0.00  0.00    +0.000 C 
ATOM     11  C   UNL     1       1.828   3.529  20.457  0.00  0.00    +0.000 A 
ATOM     12  C   UNL     1       2.863   4.471  20.284  0.00  0.00    +0.000 A 
ATOM     13  C   UNL     1       2.614   5.027  19.051  0.00  0.00    +0.000 A 
ATOM     14  O   UNL     1       1.519   4.434  18.506  0.00  0.00    +0.000 OA
ATOM     15  N   UNL     1       1.022   3.489  19.389  0.00  0.00    +0.000 NA
ENDBRANCH   9  13
ENDBRANCH   1   9
BRANCH   5  16
ATOM     16  C   UNL     1      -0.621  11.404  19.099  0.00  0.00    +0.000 C 
BRANCH  16  17
ATOM     17  C   UNL     1      -2.146  11.359  19.033  0.00  0.00    +0.000 C 
BRANCH  17  18
ATOM     18  C   UNL     1      -2.617  10.904  17.688  0.00  0.00    +0.000 A 
ATOM     19  C   UNL     1      -1.999  10.022  16.823  0.00  0.00    +0.000 A 
ATOM     20  C   UNL     1      -2.750   9.820  15.630  0.00  0.00    +0.000 A 
ATOM     21  C   UNL     1      -3.916  10.552  15.625  0.00  0.00    +0.000 A 
ATOM     22  S   UNL     1      -4.102  11.474  17.048  0.00  0.00    +0.000 S 
ENDBRANCH  17  18
ENDBRANCH  16  17
ENDBRANCH   5  16
TORSDOF 5
ENDMDL
