MODEL 1
REMARK VINA RESULT:      -9.0      0.000      0.000
REMARK  Name = 
REMARK  6 active torsions:
REMARK  status: ('A' for Active; 'I' for Inactive)
REMARK    1  A    between atoms: C_1  and  O_2
REMARK    2  A    between atoms: O_2  and  C_3
REMARK    3  A    between atoms: C_10  and  N_11
REMARK    4  A    between atoms: C_17  and  N_18
REMARK    5  A    between atoms: N_18  and  C_19
REMARK    6  A    between atoms: C_19  and  C_20
REMARK                            x       y       z     vdW  Elec       q    Type
REMARK                         _______ _______ _______ _____ _____    ______ ____
ROOT
ATOM      1  N   UNL     1       2.534   6.933  18.686  0.00  0.00    +0.000 N 
ATOM      2  C   UNL     1       1.965   7.151  19.921  0.00  0.00    +0.000 C 
ATOM      3  O   UNL     1       1.632   6.252  20.696  0.00  0.00    +0.000 OA
ATOM      4  N   UNL     1       1.797   8.483  20.290  0.00  0.00    +0.000 N 
ATOM      5  C   UNL     1       1.333   8.737  21.661  0.00  0.00    +0.000 C 
ATOM      6  C   UNL     1      -0.178   8.975  21.680  0.00  0.00    +0.000 C 
ATOM      7  C   UNL     1      -0.567  10.140  20.748  0.00  0.00    +0.000 C 
ATOM      8  C   UNL     1      -0.027   9.823  19.337  0.00  0.00    +0.000 C 
ATOM      9  C   UNL     1       1.481   9.549  19.339  0.00  0.00    +0.000 C 
ATOM     10  H   UNL     1       2.920   7.722  18.182  0.00  0.00    +0.000 HD
ENDROOT
BRANCH   1  18
ATOM     11  C   UNL     1       6.114   6.271  16.723  0.00  0.00    +0.000 A 
ATOM     12  C   UNL     1       6.440   5.070  16.118  0.00  0.00    +0.000 A 
ATOM     13  C   UNL     1       5.509   4.046  16.199  0.00  0.00    +0.000 A 
ATOM     14  C   UNL     1       4.299   4.230  16.848  0.00  0.00    +0.000 A 
ATOM     15  N   UNL     1       3.448   3.192  16.917  0.00  0.00    +0.000 NA
ATOM     16  C   UNL     1       2.287   3.396  17.564  0.00  0.00    +0.000 A 
ATOM     17  C   UNL     1       1.934   4.595  18.147  0.00  0.00    +0.000 A 
ATOM     18  C   UNL     1       2.818   5.666  18.082  0.00  0.00    +0.000 A 
ATOM     19  C   UNL     1       4.043   5.498  17.416  0.00  0.00    +0.000 A 
ATOM     20  N   UNL     1       4.935   6.511  17.342  0.00  0.00    +0.000 NA
BRANCH  11  22
ATOM     21  C   UNL     1       7.768   7.278  17.968  0.00  0.00    +0.000 C 
ATOM     22  O   UNL     1       7.076   7.257  16.723  0.00  0.00    +0.000 OA
ENDBRANCH  11  22
ENDBRANCH   1  18
BRANCH   7  23
ATOM     23  N   UNL     1      -0.087  11.415  21.311  0.00  0.00    +0.000 NA
ATOM     24  H   UNL     1       0.875  11.594  21.028  0.00  0.00    +0.000 HD
BRANCH  23  25
ATOM     25  C   UNL     1      -0.892  12.561  20.904  0.00  0.00    +0.000 C 
BRANCH  25  26
ATOM     26  C   UNL     1      -2.139  12.590  21.711  0.00  0.00    +0.000 A 
ATOM     27  C   UNL     1      -2.332  12.421  23.067  0.00  0.00    +0.000 A 
ATOM     28  C   UNL     1      -3.721  12.544  23.330  0.00  0.00    +0.000 A 
ATOM     29  C   UNL     1      -4.501  12.467  24.499  0.00  0.00    +0.000 A 
ATOM     30  C   UNL     1      -5.886  12.640  24.408  0.00  0.00    +0.000 A 
ATOM     31  C   UNL     1      -6.491  12.885  23.177  0.00  0.00    +0.000 A 
ATOM     32  C   UNL     1      -5.735  12.963  22.002  0.00  0.00    +0.000 A 
ATOM     33  C   UNL     1      -4.351  12.789  22.111  0.00  0.00    +0.000 A 
ATOM     34  N   UNL     1      -3.371  12.809  21.145  0.00  0.00    +0.000 N 
ATOM     35  H   UNL     1      -3.530  12.938  20.156  0.00  0.00    +0.000 HD
ENDBRANCH  25  26
ENDBRANCH  23  25
ENDBRANCH   7  23
TORSDOF 5
ENDMDL
MODEL 2
REMARK VINA RESULT:      -8.9      1.689      2.122
REMARK  Name = 
REMARK  6 active torsions:
REMARK  status: ('A' for Active; 'I' for Inactive)
REMARK    1  A    between atoms: C_1  and  O_2
REMARK    2  A    between atoms: O_2  and  C_3
REMARK    3  A    between atoms: C_10  and  N_11
REMARK    4  A    between atoms: C_17  and  N_18
REMARK    5  A    between atoms: N_18  and  C_19
REMARK    6  A    between atoms: C_19  and  C_20
REMARK                            x       y       z     vdW  Elec       q    Type
REMARK                         _______ _______ _______ _____ _____    ______ ____
ROOT
ATOM      1  N   UNL     1       2.587   7.168  18.348  0.00  0.00    +0.000 N 
ATOM      2  C   UNL     1       1.993   7.509  19.543  0.00  0.00    +0.000 C 
ATOM      3  O   UNL     1       1.737   6.704  20.441  0.00  0.00    +0.000 OA
ATOM      4  N   UNL     1       1.705   8.860  19.718  0.00  0.00    +0.000 N 
ATOM      5  C   UNL     1       1.212   9.265  21.042  0.00  0.00    +0.000 C 
ATOM      6  C   UNL     1      -0.314   9.368  21.036  0.00  0.00    +0.000 C 
ATOM      7  C   UNL     1      -0.800  10.348  19.949  0.00  0.00    +0.000 C 
ATOM      8  C   UNL     1      -0.225   9.882  18.595  0.00  0.00    +0.000 C 
ATOM      9  C   UNL     1       1.301   9.746  18.626  0.00  0.00    +0.000 C 
ATOM     10  H   UNL     1       2.904   7.907  17.734  0.00  0.00    +0.000 HD
ENDROOT
BRANCH   1  18
ATOM     11  C   UNL     1       6.366   6.489  16.811  0.00  0.00    +0.000 A 
ATOM     12  C   UNL     1       6.805   5.247  16.388  0.00  0.00    +0.000 A 
ATOM     13  C   UNL     1       5.919   4.187  16.509  0.00  0.00    +0.000 A 
ATOM     14  C   UNL     1       4.645   4.375  17.018  0.00  0.00    +0.000 A 
ATOM     15  N   UNL     1       3.841   3.305  17.136  0.00  0.00    +0.000 NA
ATOM     16  C   UNL     1       2.614   3.516  17.645  0.00  0.00    +0.000 A 
ATOM     17  C   UNL     1       2.151   4.752  18.045  0.00  0.00    +0.000 A 
ATOM     18  C   UNL     1       2.987   5.857  17.930  0.00  0.00    +0.000 A 
ATOM     19  C   UNL     1       4.277   5.684  17.403  0.00  0.00    +0.000 A 
ATOM     20  N   UNL     1       5.124   6.731  17.287  0.00  0.00    +0.000 NA
BRANCH  11  22
ATOM     21  C   UNL     1       7.897   7.680  18.051  0.00  0.00    +0.000 C 
ATOM     22  O   UNL     1       7.278   7.522  16.778  0.00  0.00    +0.000 OA
ENDBRANCH  11  22
ENDBRANCH   1  18
BRANCH   7  23
ATOM     23  N   UNL     1      -0.439  11.728  20.320  0.00  0.00    +0.000 NA
ATOM     24  H   UNL     1       0.569  11.866  20.260  0.00  0.00    +0.000 HD
BRANCH  23  25
ATOM     25  C   UNL     1      -1.078  12.735  19.479  0.00  0.00    +0.000 C 
BRANCH  25  26
ATOM     26  C   UNL     1      -2.545  12.506  19.478  0.00  0.00    +0.000 A 
ATOM     27  C   UNL     1      -3.485  12.723  20.466  0.00  0.00    +0.000 A 
ATOM     28  C   UNL     1      -4.753  12.340  19.954  0.00  0.00    +0.000 A 
ATOM     29  C   UNL     1      -6.056  12.331  20.487  0.00  0.00    +0.000 A 
ATOM     30  C   UNL     1      -7.114  11.879  19.693  0.00  0.00    +0.000 A 
ATOM     31  C   UNL     1      -6.887  11.440  18.390  0.00  0.00    +0.000 A 
ATOM     32  C   UNL     1      -5.600  11.437  17.841  0.00  0.00    +0.000 A 
ATOM     33  C   UNL     1      -4.553  11.894  18.648  0.00  0.00    +0.000 A 
ATOM     34  N   UNL     1      -3.205  12.003  18.386  0.00  0.00    +0.000 N 
ATOM     35  H   UNL     1      -2.756  11.727  17.524  0.00  0.00    +0.000 HD
ENDBRANCH  25  26
ENDBRANCH  23  25
ENDBRANCH   7  23
TORSDOF 5
ENDMDL
MODEL 3
REMARK VINA RESULT:      -8.9      0.865      1.300
REMARK  Name = 
REMARK  6 active torsions:
REMARK  status: ('A' for Active; 'I' for Inactive)
REMARK    1  A    between atoms: C_1  and  O_2
REMARK    2  A    between atoms: O_2  and  C_3
REMARK    3  A    between atoms: C_10  and  N_11
REMARK    4  A    between atoms: C_17  and  N_18
REMARK    5  A    between atoms: N_18  and  C_19
REMARK    6  A    between atoms: C_19  and  C_20
REMARK                            x       y       z     vdW  Elec       q    Type
REMARK                         _______ _______ _______ _____ _____    ______ ____
ROOT
ATOM      1  N   UNL     1       2.518   7.308  18.146  0.00  0.00    +0.000 N 
ATOM      2  C   UNL     1       1.958   7.702  19.341  0.00  0.00    +0.000 C 
ATOM      3  O   UNL     1       1.768   6.947  20.297  0.00  0.00    +0.000 OA
ATOM      4  N   UNL     1       1.625   9.050  19.444  0.00  0.00    +0.000 N 
ATOM      5  C   UNL     1       1.168   9.520  20.760  0.00  0.00    +0.000 C 
ATOM      6  C   UNL     1      -0.360   9.567  20.811  0.00  0.00    +0.000 C 
ATOM      7  C   UNL     1      -0.925  10.459  19.687  0.00  0.00    +0.000 C 
ATOM      8  C   UNL     1      -0.385   9.929  18.341  0.00  0.00    +0.000 C 
ATOM      9  C   UNL     1       1.145   9.851  18.318  0.00  0.00    +0.000 C 
ATOM     10  H   UNL     1       2.783   8.019  17.475  0.00  0.00    +0.000 HD
ENDROOT
BRANCH   1  18
ATOM     11  C   UNL     1       6.401   6.610  16.904  0.00  0.00    +0.000 A 
ATOM     12  C   UNL     1       6.874   5.360  16.547  0.00  0.00    +0.000 A 
ATOM     13  C   UNL     1       5.985   4.298  16.632  0.00  0.00    +0.000 A 
ATOM     14  C   UNL     1       4.677   4.494  17.042  0.00  0.00    +0.000 A 
ATOM     15  N   UNL     1       3.870   3.422  17.131  0.00  0.00    +0.000 NA
ATOM     16  C   UNL     1       2.609   3.639  17.545  0.00  0.00    +0.000 A 
ATOM     17  C   UNL     1       2.114   4.883  17.877  0.00  0.00    +0.000 A 
ATOM     18  C   UNL     1       2.951   5.989  17.793  0.00  0.00    +0.000 A 
ATOM     19  C   UNL     1       4.277   5.810  17.365  0.00  0.00    +0.000 A 
ATOM     20  N   UNL     1       5.126   6.858  17.283  0.00  0.00    +0.000 NA
BRANCH  11  22
ATOM     21  C   UNL     1       8.051   7.652  18.125  0.00  0.00    +0.000 C 
ATOM     22  O   UNL     1       7.308   7.647  16.909  0.00  0.00    +0.000 OA
ENDBRANCH  11  22
ENDBRANCH   1  18
BRANCH   7  23
ATOM     23  N   UNL     1      -0.603  11.871  19.958  0.00  0.00    +0.000 NA
ATOM     24  H   UNL     1       0.238  12.152  19.457  0.00  0.00    +0.000 HD
BRANCH  23  25
ATOM     25  C   UNL     1      -1.674  12.787  19.579  0.00  0.00    +0.000 C 
BRANCH  25  26
ATOM     26  C   UNL     1      -2.715  12.781  20.637  0.00  0.00    +0.000 A 
ATOM     27  C   UNL     1      -4.081  12.964  20.551  0.00  0.00    +0.000 A 
ATOM     28  C   UNL     1      -4.619  12.862  21.860  0.00  0.00    +0.000 A 
ATOM     29  C   UNL     1      -5.920  12.960  22.389  0.00  0.00    +0.000 A 
ATOM     30  C   UNL     1      -6.111  12.803  23.765  0.00  0.00    +0.000 A 
ATOM     31  C   UNL     1      -5.029  12.555  24.608  0.00  0.00    +0.000 A 
ATOM     32  C   UNL     1      -3.728  12.458  24.106  0.00  0.00    +0.000 A 
ATOM     33  C   UNL     1      -3.554  12.614  22.726  0.00  0.00    +0.000 A 
ATOM     34  N   UNL     1      -2.411  12.573  21.960  0.00  0.00    +0.000 N 
ATOM     35  H   UNL     1      -1.476  12.437  22.317  0.00  0.00    +0.000 HD
ENDBRANCH  25  26
ENDBRANCH  23  25
ENDBRANCH   7  23
TORSDOF 5
ENDMDL
MODEL 4
REMARK VINA RESULT:      -8.8      0.959      1.117
REMARK  Name = 
REMARK  6 active torsions:
REMARK  status: ('A' for Active; 'I' for Inactive)
REMARK    1  A    between atoms: C_1  and  O_2
REMARK    2  A    between atoms: O_2  and  C_3
REMARK    3  A    between atoms: C_10  and  N_11
REMARK    4  A    between atoms: C_17  and  N_18
REMARK    5  A    between atoms: N_18  and  C_19
REMARK    6  A    between atoms: C_19  and  C_20
REMARK                            x       y       z     vdW  Elec       q    Type
REMARK                         _______ _______ _______ _____ _____    ______ ____
ROOT
ATOM      1  N   UNL     1       2.535   7.179  18.154  0.00  0.00    +0.000 N 
ATOM      2  C   UNL     1       1.993   7.617  19.341  0.00  0.00    +0.000 C 
ATOM      3  O   UNL     1       1.784   6.890  20.315  0.00  0.00    +0.000 OA
ATOM      4  N   UNL     1       1.703   8.977  19.415  0.00  0.00    +0.000 N 
ATOM      5  C   UNL     1       1.267   9.490  20.722  0.00  0.00    +0.000 C 
ATOM      6  C   UNL     1      -0.259   9.587  20.777  0.00  0.00    +0.000 C 
ATOM      7  C   UNL     1      -0.801  10.470  19.635  0.00  0.00    +0.000 C 
ATOM      8  C   UNL     1      -0.283   9.893  18.300  0.00  0.00    +0.000 C 
ATOM      9  C   UNL     1       1.243   9.767  18.273  0.00  0.00    +0.000 C 
ATOM     10  H   UNL     1       2.819   7.865  17.466  0.00  0.00    +0.000 HD
ENDROOT
BRANCH   1  18
ATOM     11  C   UNL     1       6.350   6.350  16.788  0.00  0.00    +0.000 A 
ATOM     12  C   UNL     1       6.781   5.078  16.456  0.00  0.00    +0.000 A 
ATOM     13  C   UNL     1       5.873   4.041  16.611  0.00  0.00    +0.000 A 
ATOM     14  C   UNL     1       4.586   4.279  17.064  0.00  0.00    +0.000 A 
ATOM     15  N   UNL     1       3.760   3.230  17.220  0.00  0.00    +0.000 NA
ATOM     16  C   UNL     1       2.522   3.490  17.674  0.00  0.00    +0.000 A 
ATOM     17  C   UNL     1       2.068   4.756  17.983  0.00  0.00    +0.000 A 
ATOM     18  C   UNL     1       2.925   5.839  17.830  0.00  0.00    +0.000 A 
ATOM     19  C   UNL     1       4.229   5.615  17.357  0.00  0.00    +0.000 A 
ATOM     20  N   UNL     1       5.097   6.640  17.207  0.00  0.00    +0.000 NA
BRANCH  11  22
ATOM     21  C   UNL     1       7.865   7.586  18.003  0.00  0.00    +0.000 C 
ATOM     22  O   UNL     1       7.280   7.365  16.723  0.00  0.00    +0.000 OA
ENDBRANCH  11  22
ENDBRANCH   1  18
BRANCH   7  23
ATOM     23  N   UNL     1      -0.433  11.878  19.872  0.00  0.00    +0.000 NA
ATOM     24  H   UNL     1       0.481  12.084  19.473  0.00  0.00    +0.000 HD
BRANCH  23  25
ATOM     25  C   UNL     1      -1.390  12.823  19.308  0.00  0.00    +0.000 C 
BRANCH  25  26
ATOM     26  C   UNL     1      -2.622  12.821  20.136  0.00  0.00    +0.000 A 
ATOM     27  C   UNL     1      -2.786  12.983  21.497  0.00  0.00    +0.000 A 
ATOM     28  C   UNL     1      -4.173  12.898  21.784  0.00  0.00    +0.000 A 
ATOM     29  C   UNL     1      -4.930  12.982  22.968  0.00  0.00    +0.000 A 
ATOM     30  C   UNL     1      -6.321  12.853  22.900  0.00  0.00    +0.000 A 
ATOM     31  C   UNL     1      -6.954  12.641  21.677  0.00  0.00    +0.000 A 
ATOM     32  C   UNL     1      -6.222  12.550  20.488  0.00  0.00    +0.000 A 
ATOM     33  C   UNL     1      -4.832  12.684  20.574  0.00  0.00    +0.000 A 
ATOM     34  N   UNL     1      -3.869  12.638  19.592  0.00  0.00    +0.000 N 
ATOM     35  H   UNL     1      -4.045  12.468  18.611  0.00  0.00    +0.000 HD
ENDBRANCH  25  26
ENDBRANCH  23  25
ENDBRANCH   7  23
TORSDOF 5
ENDMDL
MODEL 5
REMARK VINA RESULT:      -8.7      0.740      1.185
REMARK  Name = 
REMARK  6 active torsions:
REMARK  status: ('A' for Active; 'I' for Inactive)
REMARK    1  A    between atoms: C_1  and  O_2
REMARK    2  A    between atoms: O_2  and  C_3
REMARK    3  A    between atoms: C_10  and  N_11
REMARK    4  A    between atoms: C_17  and  N_18
REMARK    5  A    between atoms: N_18  and  C_19
REMARK    6  A    between atoms: C_19  and  C_20
REMARK                            x       y       z     vdW  Elec       q    Type
REMARK                         _______ _______ _______ _____ _____    ______ ____
ROOT
ATOM      1  N   UNL     1       2.478   6.964  18.733  0.00  0.00    +0.000 N 
ATOM      2  C   UNL     1       1.901   7.127  19.973  0.00  0.00    +0.000 C 
ATOM      3  O   UNL     1       1.610   6.197  20.727  0.00  0.00    +0.000 OA
ATOM      4  N   UNL     1       1.674   8.442  20.372  0.00  0.00    +0.000 N 
ATOM      5  C   UNL     1       1.201   8.643  21.750  0.00  0.00    +0.000 C 
ATOM      6  C   UNL     1      -0.319   8.812  21.774  0.00  0.00    +0.000 C 
ATOM      7  C   UNL     1      -0.761   9.980  20.869  0.00  0.00    +0.000 C 
ATOM      8  C   UNL     1      -0.209   9.721  19.451  0.00  0.00    +0.000 C 
ATOM      9  C   UNL     1       1.309   9.515  19.447  0.00  0.00    +0.000 C 
ATOM     10  H   UNL     1       2.828   7.781  18.247  0.00  0.00    +0.000 HD
ENDROOT
BRANCH   1  18
ATOM     11  C   UNL     1       6.110   6.487  16.814  0.00  0.00    +0.000 A 
ATOM     12  C   UNL     1       6.490   5.316  16.182  0.00  0.00    +0.000 A 
ATOM     13  C   UNL     1       5.596   4.256  16.220  0.00  0.00    +0.000 A 
ATOM     14  C   UNL     1       4.370   4.379  16.852  0.00  0.00    +0.000 A 
ATOM     15  N   UNL     1       3.557   3.309  16.880  0.00  0.00    +0.000 NA
ATOM     16  C   UNL     1       2.379   3.453  17.512  0.00  0.00    +0.000 A 
ATOM     17  C   UNL     1       1.973   4.622  18.121  0.00  0.00    +0.000 A 
ATOM     18  C   UNL     1       2.818   5.725  18.100  0.00  0.00    +0.000 A 
ATOM     19  C   UNL     1       4.059   5.621  17.450  0.00  0.00    +0.000 A 
ATOM     20  N   UNL     1       4.914   6.667  17.419  0.00  0.00    +0.000 NA
BRANCH  11  22
ATOM     21  C   UNL     1       7.832   7.407  18.033  0.00  0.00    +0.000 C 
ATOM     22  O   UNL     1       7.036   7.506  16.856  0.00  0.00    +0.000 OA
ENDBRANCH  11  22
ENDBRANCH   1  18
BRANCH   7  23
ATOM     23  N   UNL     1      -0.338  11.262  21.461  0.00  0.00    +0.000 NA
ATOM     24  H   UNL     1      -0.613  12.042  20.867  0.00  0.00    +0.000 HD
BRANCH  23  25
ATOM     25  C   UNL     1      -0.898  11.494  22.788  0.00  0.00    +0.000 C 
BRANCH  25  26
ATOM     26  C   UNL     1      -2.237  12.120  22.648  0.00  0.00    +0.000 A 
ATOM     27  C   UNL     1      -2.790  12.826  21.598  0.00  0.00    +0.000 A 
ATOM     28  C   UNL     1      -4.105  13.208  21.972  0.00  0.00    +0.000 A 
ATOM     29  C   UNL     1      -5.128  13.930  21.330  0.00  0.00    +0.000 A 
ATOM     30  C   UNL     1      -6.340  14.134  21.997  0.00  0.00    +0.000 A 
ATOM     31  C   UNL     1      -6.536  13.632  23.282  0.00  0.00    +0.000 A 
ATOM     32  C   UNL     1      -5.532  12.915  23.941  0.00  0.00    +0.000 A 
ATOM     33  C   UNL     1      -4.327  12.718  23.258  0.00  0.00    +0.000 A 
ATOM     34  N   UNL     1      -3.178  12.065  23.646  0.00  0.00    +0.000 N 
ATOM     35  H   UNL     1      -3.031  11.629  24.546  0.00  0.00    +0.000 HD
ENDBRANCH  25  26
ENDBRANCH  23  25
ENDBRANCH   7  23
TORSDOF 5
ENDMDL
MODEL 6
REMARK VINA RESULT:      -8.7      2.459      4.115
REMARK  Name = 
REMARK  6 active torsions:
REMARK  status: ('A' for Active; 'I' for Inactive)
REMARK    1  A    between atoms: C_1  and  O_2
REMARK    2  A    between atoms: O_2  and  C_3
REMARK    3  A    between atoms: C_10  and  N_11
REMARK    4  A    between atoms: C_17  and  N_18
REMARK    5  A    between atoms: N_18  and  C_19
REMARK    6  A    between atoms: C_19  and  C_20
REMARK                            x       y       z     vdW  Elec       q    Type
REMARK                         _______ _______ _______ _____ _____    ______ ____
ROOT
ATOM      1  N   UNL     1       2.461   7.212  18.497  0.00  0.00    +0.000 N 
ATOM      2  C   UNL     1       1.940   7.498  19.740  0.00  0.00    +0.000 C 
ATOM      3  O   UNL     1       1.726   6.652  20.610  0.00  0.00    +0.000 OA
ATOM      4  N   UNL     1       1.676   8.841  19.997  0.00  0.00    +0.000 N 
ATOM      5  C   UNL     1       1.263   9.183  21.365  0.00  0.00    +0.000 C 
ATOM      6  C   UNL     1      -0.261   9.298  21.452  0.00  0.00    +0.000 C 
ATOM      7  C   UNL     1      -0.797  10.335  20.444  0.00  0.00    +0.000 C 
ATOM      8  C   UNL     1      -0.303   9.932  19.037  0.00  0.00    +0.000 C 
ATOM      9  C   UNL     1       1.220   9.784  18.975  0.00  0.00    +0.000 C 
ATOM     10  H   UNL     1       2.751   7.979  17.903  0.00  0.00    +0.000 HD
ENDROOT
BRANCH   1  18
ATOM     11  C   UNL     1       6.183   6.555  16.818  0.00  0.00    +0.000 A 
ATOM     12  C   UNL     1       6.585   5.331  16.311  0.00  0.00    +0.000 A 
ATOM     13  C   UNL     1       5.682   4.283  16.395  0.00  0.00    +0.000 A 
ATOM     14  C   UNL     1       4.426   4.465  16.950  0.00  0.00    +0.000 A 
ATOM     15  N   UNL     1       3.604   3.404  17.029  0.00  0.00    +0.000 NA
ATOM     16  C   UNL     1       2.396   3.607  17.584  0.00  0.00    +0.000 A 
ATOM     17  C   UNL     1       1.969   4.827  18.068  0.00  0.00    +0.000 A 
ATOM     18  C   UNL     1       2.823   5.921  17.994  0.00  0.00    +0.000 A 
ATOM     19  C   UNL     1       4.095   5.756  17.420  0.00  0.00    +0.000 A 
ATOM     20  N   UNL     1       4.959   6.792  17.342  0.00  0.00    +0.000 NA
BRANCH  11  22
ATOM     21  C   UNL     1       7.859   7.561  18.032  0.00  0.00    +0.000 C 
ATOM     22  O   UNL     1       7.114   7.570  16.819  0.00  0.00    +0.000 OA
ENDBRANCH  11  22
ENDBRANCH   1  18
BRANCH   7  23
ATOM     23  N   UNL     1      -0.400  11.692  20.861  0.00  0.00    +0.000 NA
ATOM     24  H   UNL     1       0.552  11.897  20.564  0.00  0.00    +0.000 HD
BRANCH  23  25
ATOM     25  C   UNL     1      -1.270  12.734  20.325  0.00  0.00    +0.000 C 
BRANCH  25  26
ATOM     26  C   UNL     1      -0.433  13.794  19.708  0.00  0.00    +0.000 A 
ATOM     27  C   UNL     1       0.919  13.820  19.431  0.00  0.00    +0.000 A 
ATOM     28  C   UNL     1       1.220  15.072  18.835  0.00  0.00    +0.000 A 
ATOM     29  C   UNL     1       2.403  15.662  18.352  0.00  0.00    +0.000 A 
ATOM     30  C   UNL     1       2.351  16.950  17.809  0.00  0.00    +0.000 A 
ATOM     31  C   UNL     1       1.145  17.645  17.745  0.00  0.00    +0.000 A 
ATOM     32  C   UNL     1      -0.043  17.080  18.222  0.00  0.00    +0.000 A 
ATOM     33  C   UNL     1       0.027  15.790  18.760  0.00  0.00    +0.000 A 
ATOM     34  N   UNL     1      -0.959  14.994  19.299  0.00  0.00    +0.000 N 
ATOM     35  H   UNL     1      -1.928  15.259  19.406  0.00  0.00    +0.000 HD
ENDBRANCH  25  26
ENDBRANCH  23  25
ENDBRANCH   7  23
TORSDOF 5
ENDMDL
MODEL 7
REMARK VINA RESULT:      -8.6      2.811      4.713
REMARK  Name = 
REMARK  6 active torsions:
REMARK  status: ('A' for Active; 'I' for Inactive)
REMARK    1  A    between atoms: C_1  and  O_2
REMARK    2  A    between atoms: O_2  and  C_3
REMARK    3  A    between atoms: C_10  and  N_11
REMARK    4  A    between atoms: C_17  and  N_18
REMARK    5  A    between atoms: N_18  and  C_19
REMARK    6  A    between atoms: C_19  and  C_20
REMARK                            x       y       z     vdW  Elec       q    Type
REMARK                         _______ _______ _______ _____ _____    ______ ____
ROOT
ATOM      1  N   UNL     1       2.526   7.234  18.308  0.00  0.00    +0.000 N 
ATOM      2  C   UNL     1       1.975   7.590  19.519  0.00  0.00    +0.000 C 
ATOM      3  O   UNL     1       1.758   6.798  20.438  0.00  0.00    +0.000 OA
ATOM      4  N   UNL     1       1.684   8.942  19.684  0.00  0.00    +0.000 N 
ATOM      5  C   UNL     1       1.238   9.365  21.020  0.00  0.00    +0.000 C 
ATOM      6  C   UNL     1      -0.288   9.458  21.069  0.00  0.00    +0.000 C 
ATOM      7  C   UNL     1      -0.821  10.418  19.986  0.00  0.00    +0.000 C 
ATOM      8  C   UNL     1      -0.292   9.935  18.619  0.00  0.00    +0.000 C 
ATOM      9  C   UNL     1       1.234   9.809  18.596  0.00  0.00    +0.000 C 
ATOM     10  H   UNL     1       2.816   7.966  17.672  0.00  0.00    +0.000 HD
ENDROOT
BRANCH   1  18
ATOM     11  C   UNL     1       6.336   6.510  16.868  0.00  0.00    +0.000 A 
ATOM     12  C   UNL     1       6.769   5.264  16.452  0.00  0.00    +0.000 A 
ATOM     13  C   UNL     1       5.865   4.216  16.545  0.00  0.00    +0.000 A 
ATOM     14  C   UNL     1       4.581   4.420  17.021  0.00  0.00    +0.000 A 
ATOM     15  N   UNL     1       3.759   3.360  17.113  0.00  0.00    +0.000 NA
ATOM     16  C   UNL     1       2.523   3.585  17.591  0.00  0.00    +0.000 A 
ATOM     17  C   UNL     1       2.066   4.827  17.984  0.00  0.00    +0.000 A 
ATOM     18  C   UNL     1       2.919   5.920  17.896  0.00  0.00    +0.000 A 
ATOM     19  C   UNL     1       4.220   5.732  17.401  0.00  0.00    +0.000 A 
ATOM     20  N   UNL     1       5.084   6.768  17.313  0.00  0.00    +0.000 NA
BRANCH  11  22
ATOM     21  C   UNL     1       7.963   7.572  18.103  0.00  0.00    +0.000 C 
ATOM     22  O   UNL     1       7.261   7.531  16.864  0.00  0.00    +0.000 OA
ENDBRANCH  11  22
ENDBRANCH   1  18
BRANCH   7  23
ATOM     23  N   UNL     1      -0.455  11.806  20.323  0.00  0.00    +0.000 NA
ATOM     24  H   UNL     1       0.554  11.898  20.427  0.00  0.00    +0.000 HD
BRANCH  23  25
ATOM     25  C   UNL     1      -0.890  12.773  19.321  0.00  0.00    +0.000 C 
BRANCH  25  26
ATOM     26  C   UNL     1       0.239  13.681  19.000  0.00  0.00    +0.000 A 
ATOM     27  C   UNL     1       0.283  15.058  18.909  0.00  0.00    +0.000 A 
ATOM     28  C   UNL     1       1.610  15.433  18.574  0.00  0.00    +0.000 A 
ATOM     29  C   UNL     1       2.246  16.668  18.348  0.00  0.00    +0.000 A 
ATOM     30  C   UNL     1       3.608  16.686  18.028  0.00  0.00    +0.000 A 
ATOM     31  C   UNL     1       4.329  15.498  17.930  0.00  0.00    +0.000 A 
ATOM     32  C   UNL     1       3.717  14.259  18.146  0.00  0.00    +0.000 A 
ATOM     33  C   UNL     1       2.356  14.259  18.468  0.00  0.00    +0.000 A 
ATOM     34  N   UNL     1       1.500  13.212  18.728  0.00  0.00    +0.000 N 
ATOM     35  H   UNL     1       1.751  12.233  18.698  0.00  0.00    +0.000 HD
ENDBRANCH  25  26
ENDBRANCH  23  25
ENDBRANCH   7  23
TORSDOF 5
ENDMDL
MODEL 8
REMARK VINA RESULT:      -8.6      1.817      2.330
REMARK  Name = 
REMARK  6 active torsions:
REMARK  status: ('A' for Active; 'I' for Inactive)
REMARK    1  A    between atoms: C_1  and  O_2
REMARK    2  A    between atoms: O_2  and  C_3
REMARK    3  A    between atoms: C_10  and  N_11
REMARK    4  A    between atoms: C_17  and  N_18
REMARK    5  A    between atoms: N_18  and  C_19
REMARK    6  A    between atoms: C_19  and  C_20
REMARK                            x       y       z     vdW  Elec       q    Type
REMARK                         _______ _______ _______ _____ _____    ______ ____
ROOT
ATOM      1  N   UNL     1       2.534   7.212  18.012  0.00  0.00    +0.000 N 
ATOM      2  C   UNL     1       2.074   7.678  19.224  0.00  0.00    +0.000 C 
ATOM      3  O   UNL     1       2.035   7.002  20.254  0.00  0.00    +0.000 OA
ATOM      4  N   UNL     1       1.662   9.008  19.250  0.00  0.00    +0.000 N 
ATOM      5  C   UNL     1       1.313   9.567  20.564  0.00  0.00    +0.000 C 
ATOM      6  C   UNL     1      -0.202   9.528  20.776  0.00  0.00    +0.000 C 
ATOM      7  C   UNL     1      -0.938  10.281  19.649  0.00  0.00    +0.000 C 
ATOM      8  C   UNL     1      -0.504   9.666  18.301  0.00  0.00    +0.000 C 
ATOM      9  C   UNL     1       1.017   9.676  18.120  0.00  0.00    +0.000 C 
ATOM     10  H   UNL     1       2.679   7.874  17.260  0.00  0.00    +0.000 HD
ENDROOT
BRANCH   1  18
ATOM     11  C   UNL     1       6.471   6.588  16.909  0.00  0.00    +0.000 A 
ATOM     12  C   UNL     1       6.991   5.340  16.617  0.00  0.00    +0.000 A 
ATOM     13  C   UNL     1       6.133   4.255  16.719  0.00  0.00    +0.000 A 
ATOM     14  C   UNL     1       4.808   4.425  17.085  0.00  0.00    +0.000 A 
ATOM     15  N   UNL     1       4.031   3.333  17.194  0.00  0.00    +0.000 NA
ATOM     16  C   UNL     1       2.753   3.527  17.563  0.00  0.00    +0.000 A 
ATOM     17  C   UNL     1       2.211   4.767  17.830  0.00  0.00    +0.000 A 
ATOM     18  C   UNL     1       3.017   5.894  17.725  0.00  0.00    +0.000 A 
ATOM     19  C   UNL     1       4.359   5.740  17.342  0.00  0.00    +0.000 A 
ATOM     20  N   UNL     1       5.179   6.810  17.242  0.00  0.00    +0.000 NA
BRANCH  11  22
ATOM     21  C   UNL     1       8.070   7.713  18.123  0.00  0.00    +0.000 C 
ATOM     22  O   UNL     1       7.346   7.651  16.898  0.00  0.00    +0.000 OA
ENDBRANCH  11  22
ENDBRANCH   1  18
BRANCH   7  23
ATOM     23  N   UNL     1      -0.687  11.729  19.765  0.00  0.00    +0.000 NA
ATOM     24  H   UNL     1       0.310  11.928  19.701  0.00  0.00    +0.000 HD
BRANCH  23  25
ATOM     25  C   UNL     1      -1.366  12.513  18.739  0.00  0.00    +0.000 C 
BRANCH  25  26
ATOM     26  C   UNL     1      -2.833  12.339  18.886  0.00  0.00    +0.000 A 
ATOM     27  C   UNL     1      -3.735  11.647  18.103  0.00  0.00    +0.000 A 
ATOM     28  C   UNL     1      -5.021  11.794  18.683  0.00  0.00    +0.000 A 
ATOM     29  C   UNL     1      -6.304  11.328  18.339  0.00  0.00    +0.000 A 
ATOM     30  C   UNL     1      -7.393  11.664  19.150  0.00  0.00    +0.000 A 
ATOM     31  C   UNL     1      -7.215  12.454  20.285  0.00  0.00    +0.000 A 
ATOM     32  C   UNL     1      -5.950  12.931  20.644  0.00  0.00    +0.000 A 
ATOM     33  C   UNL     1      -4.872  12.583  19.823  0.00  0.00    +0.000 A 
ATOM     34  N   UNL     1      -3.536  12.902  19.921  0.00  0.00    +0.000 N 
ATOM     35  H   UNL     1      -3.129  13.490  20.635  0.00  0.00    +0.000 HD
ENDBRANCH  25  26
ENDBRANCH  23  25
ENDBRANCH   7  23
TORSDOF 5
ENDMDL
MODEL 9
REMARK VINA RESULT:      -8.5      2.261      3.779
REMARK  Name = 
REMARK  6 active torsions:
REMARK  status: ('A' for Active; 'I' for Inactive)
REMARK    1  A    between atoms: C_1  and  O_2
REMARK    2  A    between atoms: O_2  and  C_3
REMARK    3  A    between atoms: C_10  and  N_11
REMARK    4  A    between atoms: C_17  and  N_18
REMARK    5  A    between atoms: N_18  and  C_19
REMARK    6  A    between atoms: C_19  and  C_20
REMARK                            x       y       z     vdW  Elec       q    Type
REMARK                         _______ _______ _______ _____ _____    ______ ____
ROOT
ATOM      1  N   UNL     1       2.139   7.523  18.804  0.00  0.00    +0.000 N 
ATOM      2  C   UNL     1       1.655   8.729  18.347  0.00  0.00    +0.000 C 
ATOM      3  O   UNL     1       2.038   9.279  17.312  0.00  0.00    +0.000 OA
ATOM      4  N   UNL     1       0.655   9.317  19.117  0.00  0.00    +0.000 N 
ATOM      5  C   UNL     1       0.021  10.524  18.567  0.00  0.00    +0.000 C 
ATOM      6  C   UNL     1       0.648  11.781  19.174  0.00  0.00    +0.000 C 
ATOM      7  C   UNL     1       0.548  11.763  20.713  0.00  0.00    +0.000 C 
ATOM      8  C   UNL     1       1.204  10.461  21.219  0.00  0.00    +0.000 C 
ATOM      9  C   UNL     1       0.592   9.213  20.574  0.00  0.00    +0.000 C 
ATOM     10  H   UNL     1       1.663   7.068  19.573  0.00  0.00    +0.000 HD
ENDROOT
BRANCH   1  18
ATOM     11  C   UNL     1       2.121   3.408  19.218  0.00  0.00    +0.000 A 
ATOM     12  C   UNL     1       3.079   2.582  18.657  0.00  0.00    +0.000 A 
ATOM     13  C   UNL     1       4.079   3.186  17.909  0.00  0.00    +0.000 A 
ATOM     14  C   UNL     1       4.118   4.562  17.750  0.00  0.00    +0.000 A 
ATOM     15  N   UNL     1       5.096   5.088  16.992  0.00  0.00    +0.000 NA
ATOM     16  C   UNL     1       5.102   6.424  16.843  0.00  0.00    +0.000 A 
ATOM     17  C   UNL     1       4.171   7.264  17.419  0.00  0.00    +0.000 A 
ATOM     18  C   UNL     1       3.156   6.719  18.196  0.00  0.00    +0.000 A 
ATOM     19  C   UNL     1       3.111   5.327  18.379  0.00  0.00    +0.000 A 
ATOM     20  N   UNL     1       2.131   4.757  19.116  0.00  0.00    +0.000 NA
BRANCH  11  22
ATOM     21  C   UNL     1       1.323   2.779  21.283  0.00  0.00    +0.000 C 
ATOM     22  O   UNL     1       1.078   2.800  19.880  0.00  0.00    +0.000 OA
ENDBRANCH  11  22
ENDBRANCH   1  18
BRANCH   7  23
ATOM     23  N   UNL     1      -0.856  11.937  21.126  0.00  0.00    +0.000 NA
ATOM     24  H   UNL     1      -0.923  12.062  22.135  0.00  0.00    +0.000 HD
BRANCH  23  25
ATOM     25  C   UNL     1      -1.504  13.081  20.491  0.00  0.00    +0.000 C 
BRANCH  25  26
ATOM     26  C   UNL     1      -2.916  12.734  20.191  0.00  0.00    +0.000 A 
ATOM     27  C   UNL     1      -4.044  12.808  20.984  0.00  0.00    +0.000 A 
ATOM     28  C   UNL     1      -5.149  12.358  20.216  0.00  0.00    +0.000 A 
ATOM     29  C   UNL     1      -6.523  12.208  20.481  0.00  0.00    +0.000 A 
ATOM     30  C   UNL     1      -7.364  11.725  19.474  0.00  0.00    +0.000 A 
ATOM     31  C   UNL     1      -6.852  11.392  18.221  0.00  0.00    +0.000 A 
ATOM     32  C   UNL     1      -5.489  11.530  17.936  0.00  0.00    +0.000 A 
ATOM     33  C   UNL     1      -4.663  12.017  18.954  0.00  0.00    +0.000 A 
ATOM     34  N   UNL     1      -3.306  12.251  18.967  0.00  0.00    +0.000 N 
ATOM     35  H   UNL     1      -2.676  12.070  18.198  0.00  0.00    +0.000 HD
ENDBRANCH  25  26
ENDBRANCH  23  25
ENDBRANCH   7  23
TORSDOF 5
ENDMDL
