MODEL 1
REMARK VINA RESULT:      -9.4      0.000      0.000
REMARK  Name = 
REMARK  7 active torsions:
REMARK  status: ('A' for Active; 'I' for Inactive)
REMARK    1  A    between atoms: C_4  and  C_5
REMARK    2  A    between atoms: C_10  and  O_11
REMARK    3  A    between atoms: O_11  and  C_12
REMARK    4  A    between atoms: C_12  and  C_13
REMARK    5  A    between atoms: C_16  and  C_17
REMARK    6  A    between atoms: N_27  and  C_28
REMARK    7  A    between atoms: C_33  and  O_34
REMARK                            x       y       z     vdW  Elec       q    Type
REMARK                         _______ _______ _______ _____ _____    ______ ____
ROOT
ATOM      1  C   UNL     1       2.664   4.527  18.792  0.00  0.00    +0.000 A 
ATOM      2  C   UNL     1       1.590   3.671  18.486  0.00  0.00    +0.000 A 
ATOM      3  C   UNL     1       1.808   2.316  18.227  0.00  0.00    +0.000 A 
ATOM      4  C   UNL     1       3.091   1.790  18.293  0.00  0.00    +0.000 A 
ATOM      5  C   UNL     1       4.165   2.624  18.593  0.00  0.00    +0.000 A 
ATOM      6  C   UNL     1       3.973   3.997  18.806  0.00  0.00    +0.000 A 
ENDROOT
BRANCH   1  10
ATOM      7  O   UNL     1       2.304   9.063  17.447  0.00  0.00    +0.000 OA
ATOM      8  C   UNL     1       2.127   8.267  18.365  0.00  0.00    +0.000 A 
ATOM      9  C   UNL     1       2.532   6.852  18.165  0.00  0.00    +0.000 A 
ATOM     10  C   UNL     1       2.364   5.935  19.134  0.00  0.00    +0.000 A 
ATOM     11  C   UNL     1       1.906   6.377  20.435  0.00  0.00    +0.000 A 
ATOM     12  C   UNL     1       1.498   7.639  20.622  0.00  0.00    +0.000 A 
ATOM     13  N   UNL     1       1.550   8.577  19.600  0.00  0.00    +0.000 N 
BRANCH  13  14
ATOM     14  C   UNL     1       0.975   9.926  19.825  0.00  0.00    +0.000 C 
ATOM     15  C   UNL     1      -0.145  10.252  18.821  0.00  0.00    +0.000 C 
ATOM     16  C   UNL     1      -0.728  11.644  19.047  0.00  0.00    +0.000 C 
ATOM     17  C   UNL     1      -1.201  11.830  20.486  0.00  0.00    +0.000 C 
ATOM     18  C   UNL     1      -0.082  11.546  21.479  0.00  0.00    +0.000 C 
ATOM     19  C   UNL     1       0.506  10.144  21.292  0.00  0.00    +0.000 C 
BRANCH  19  20
ATOM     20  O   UNL     1       1.595   9.998  22.215  0.00  0.00    +0.000 OA
ATOM     21  H   UNL     1       1.636  10.799  22.763  0.00  0.00    +0.000 HD
ENDBRANCH  19  20
ENDBRANCH  13  14
ENDBRANCH   1  10
BRANCH   6  22
ATOM     22  O   UNL     1       5.027   4.856  19.032  0.00  0.00    +0.000 OA
BRANCH  22  23
ATOM     23  C   UNL     1       5.914   5.014  17.911  0.00  0.00    +0.000 C 
BRANCH  23  24
ATOM     24  C   UNL     1       6.813   6.218  18.024  0.00  0.00    +0.000 A 
ATOM     25  C   UNL     1       7.866   6.274  18.930  0.00  0.00    +0.000 A 
ATOM     26  C   UNL     1       8.576   7.464  19.100  0.00  0.00    +0.000 A 
ATOM     27  C   UNL     1       8.277   8.616  18.354  0.00  0.00    +0.000 A 
ATOM     28  C   UNL     1       7.278   8.519  17.374  0.00  0.00    +0.000 A 
ATOM     29  C   UNL     1       6.554   7.331  17.210  0.00  0.00    +0.000 A 
BRANCH  27  30
ATOM     30  C   UNL     1       8.950   9.889  18.652  0.00  0.00    +0.000 A 
ATOM     31  C   UNL     1       9.342  10.792  17.678  0.00  0.00    +0.000 A 
ATOM     32  N   UNL     1      10.035  11.930  17.901  0.00  0.00    +0.000 NA
ATOM     33  C   UNL     1      10.327  12.180  19.183  0.00  0.00    +0.000 A 
ATOM     34  N   UNL     1       9.988  11.417  20.228  0.00  0.00    +0.000 NA
ATOM     35  C   UNL     1       9.305  10.290  19.936  0.00  0.00    +0.000 A 
ENDBRANCH  27  30
ENDBRANCH  23  24
ENDBRANCH  22  23
ENDBRANCH   6  22
TORSDOF 7
ENDMDL
MODEL 2
REMARK VINA RESULT:      -9.1      4.216      8.297
REMARK  Name = 
REMARK  7 active torsions:
REMARK  status: ('A' for Active; 'I' for Inactive)
REMARK    1  A    between atoms: C_4  and  C_5
REMARK    2  A    between atoms: C_10  and  O_11
REMARK    3  A    between atoms: O_11  and  C_12
REMARK    4  A    between atoms: C_12  and  C_13
REMARK    5  A    between atoms: C_16  and  C_17
REMARK    6  A    between atoms: N_27  and  C_28
REMARK    7  A    between atoms: C_33  and  O_34
REMARK                            x       y       z     vdW  Elec       q    Type
REMARK                         _______ _______ _______ _____ _____    ______ ____
ROOT
ATOM      1  C   UNL     1       3.354   3.839  19.296  0.00  0.00    +0.000 A 
ATOM      2  C   UNL     1       3.698   2.767  20.137  0.00  0.00    +0.000 A 
ATOM      3  C   UNL     1       2.939   2.477  21.273  0.00  0.00    +0.000 A 
ATOM      4  C   UNL     1       1.814   3.233  21.573  0.00  0.00    +0.000 A 
ATOM      5  C   UNL     1       1.461   4.300  20.751  0.00  0.00    +0.000 A 
ATOM      6  C   UNL     1       2.240   4.638  19.634  0.00  0.00    +0.000 A 
ENDROOT
BRANCH   1  10
ATOM      7  O   UNL     1       7.586   4.376  17.215  0.00  0.00    +0.000 OA
ATOM      8  C   UNL     1       6.378   4.256  17.028  0.00  0.00    +0.000 A 
ATOM      9  C   UNL     1       5.480   4.181  18.209  0.00  0.00    +0.000 A 
ATOM     10  C   UNL     1       4.149   4.051  18.066  0.00  0.00    +0.000 A 
ATOM     11  C   UNL     1       3.584   4.124  16.734  0.00  0.00    +0.000 A 
ATOM     12  C   UNL     1       4.380   4.151  15.657  0.00  0.00    +0.000 A 
ATOM     13  N   UNL     1       5.762   4.165  15.776  0.00  0.00    +0.000 N 
BRANCH  13  14
ATOM     14  C   UNL     1       6.595   4.074  14.552  0.00  0.00    +0.000 C 
ATOM     15  C   UNL     1       5.850   3.384  13.396  0.00  0.00    +0.000 C 
ATOM     16  C   UNL     1       6.712   3.281  12.140  0.00  0.00    +0.000 C 
ATOM     17  C   UNL     1       7.255   4.642  11.716  0.00  0.00    +0.000 C 
ATOM     18  C   UNL     1       8.028   5.308  12.847  0.00  0.00    +0.000 C 
ATOM     19  C   UNL     1       7.178   5.449  14.115  0.00  0.00    +0.000 C 
BRANCH  19  20
ATOM     20  O   UNL     1       8.008   6.012  15.140  0.00  0.00    +0.000 OA
ATOM     21  H   UNL     1       7.449   6.205  15.910  0.00  0.00    +0.000 HD
ENDBRANCH  19  20
ENDBRANCH  13  14
ENDBRANCH   1  10
BRANCH   6  22
ATOM     22  O   UNL     1       1.954   5.734  18.848  0.00  0.00    +0.000 OA
BRANCH  22  23
ATOM     23  C   UNL     1       2.689   6.920  19.192  0.00  0.00    +0.000 C 
BRANCH  23  24
ATOM     24  C   UNL     1       1.829   8.006  19.788  0.00  0.00    +0.000 A 
ATOM     25  C   UNL     1       1.388   9.094  19.041  0.00  0.00    +0.000 A 
ATOM     26  C   UNL     1       0.719  10.145  19.671  0.00  0.00    +0.000 A 
ATOM     27  C   UNL     1       0.449  10.128  21.049  0.00  0.00    +0.000 A 
ATOM     28  C   UNL     1       0.811   8.982  21.773  0.00  0.00    +0.000 A 
ATOM     29  C   UNL     1       1.494   7.932  21.148  0.00  0.00    +0.000 A 
BRANCH  27  30
ATOM     30  C   UNL     1      -0.133  11.309  21.705  0.00  0.00    +0.000 A 
ATOM     31  C   UNL     1       0.157  12.611  21.331  0.00  0.00    +0.000 A 
ATOM     32  N   UNL     1      -0.288  13.721  21.958  0.00  0.00    +0.000 NA
ATOM     33  C   UNL     1      -1.089  13.503  23.009  0.00  0.00    +0.000 A 
ATOM     34  N   UNL     1      -1.477  12.307  23.464  0.00  0.00    +0.000 NA
ATOM     35  C   UNL     1      -0.991  11.238  22.798  0.00  0.00    +0.000 A 
ENDBRANCH  27  30
ENDBRANCH  23  24
ENDBRANCH  22  23
ENDBRANCH   6  22
TORSDOF 7
ENDMDL
MODEL 3
REMARK VINA RESULT:      -9.1      1.349      1.578
REMARK  Name = 
REMARK  7 active torsions:
REMARK  status: ('A' for Active; 'I' for Inactive)
REMARK    1  A    between atoms: C_4  and  C_5
REMARK    2  A    between atoms: C_10  and  O_11
REMARK    3  A    between atoms: O_11  and  C_12
REMARK    4  A    between atoms: C_12  and  C_13
REMARK    5  A    between atoms: C_16  and  C_17
REMARK    6  A    between atoms: N_27  and  C_28
REMARK    7  A    between atoms: C_33  and  O_34
REMARK                            x       y       z     vdW  Elec       q    Type
REMARK                         _______ _______ _______ _____ _____    ______ ____
ROOT
ATOM      1  C   UNL     1       2.744   5.352  19.871  0.00  0.00    +0.000 A 
ATOM      2  C   UNL     1       2.100   4.573  20.848  0.00  0.00    +0.000 A 
ATOM      3  C   UNL     1       2.517   3.266  21.109  0.00  0.00    +0.000 A 
ATOM      4  C   UNL     1       3.595   2.726  20.421  0.00  0.00    +0.000 A 
ATOM      5  C   UNL     1       4.242   3.483  19.449  0.00  0.00    +0.000 A 
ATOM      6  C   UNL     1       3.806   4.780  19.136  0.00  0.00    +0.000 A 
ENDROOT
BRANCH   1  10
ATOM      7  O   UNL     1       2.071   9.081  17.014  0.00  0.00    +0.000 OA
ATOM      8  C   UNL     1       1.915   8.640  18.150  0.00  0.00    +0.000 A 
ATOM      9  C   UNL     1       2.449   7.290  18.466  0.00  0.00    +0.000 A 
ATOM     10  C   UNL     1       2.310   6.755  19.692  0.00  0.00    +0.000 A 
ATOM     11  C   UNL     1       1.750   7.575  20.747  0.00  0.00    +0.000 A 
ATOM     12  C   UNL     1       1.228   8.777  20.472  0.00  0.00    +0.000 A 
ATOM     13  N   UNL     1       1.252   9.302  19.187  0.00  0.00    +0.000 N 
BRANCH  13  14
ATOM     14  C   UNL     1       0.555  10.583  18.915  0.00  0.00    +0.000 C 
ATOM     15  C   UNL     1      -0.628  10.811  19.872  0.00  0.00    +0.000 C 
ATOM     16  C   UNL     1      -1.352  12.124  19.584  0.00  0.00    +0.000 C 
ATOM     17  C   UNL     1      -0.393  13.310  19.594  0.00  0.00    +0.000 C 
ATOM     18  C   UNL     1       0.757  13.102  18.617  0.00  0.00    +0.000 C 
ATOM     19  C   UNL     1       1.519  11.803  18.899  0.00  0.00    +0.000 C 
BRANCH  19  20
ATOM     20  O   UNL     1       2.527  11.657  17.888  0.00  0.00    +0.000 OA
ATOM     21  H   UNL     1       2.204  12.080  17.075  0.00  0.00    +0.000 HD
ENDBRANCH  19  20
ENDBRANCH  13  14
ENDBRANCH   1  10
BRANCH   6  22
ATOM     22  O   UNL     1       4.382   5.522  18.128  0.00  0.00    +0.000 OA
BRANCH  22  23
ATOM     23  C   UNL     1       5.749   5.177  17.845  0.00  0.00    +0.000 C 
BRANCH  23  24
ATOM     24  C   UNL     1       6.700   6.339  17.979  0.00  0.00    +0.000 A 
ATOM     25  C   UNL     1       7.800   6.301  18.829  0.00  0.00    +0.000 A 
ATOM     26  C   UNL     1       8.565   7.452  19.030  0.00  0.00    +0.000 A 
ATOM     27  C   UNL     1       8.273   8.657  18.370  0.00  0.00    +0.000 A 
ATOM     28  C   UNL     1       7.222   8.656  17.442  0.00  0.00    +0.000 A 
ATOM     29  C   UNL     1       6.443   7.508  17.248  0.00  0.00    +0.000 A 
BRANCH  27  30
ATOM     30  C   UNL     1       9.011   9.884  18.706  0.00  0.00    +0.000 A 
ATOM     31  C   UNL     1       9.629  10.686  17.761  0.00  0.00    +0.000 A 
ATOM     32  N   UNL     1      10.385  11.773  18.032  0.00  0.00    +0.000 NA
ATOM     33  C   UNL     1      10.503  12.078  19.331  0.00  0.00    +0.000 A 
ATOM     34  N   UNL     1       9.940  11.414  20.346  0.00  0.00    +0.000 NA
ATOM     35  C   UNL     1       9.204  10.335  20.008  0.00  0.00    +0.000 A 
ENDBRANCH  27  30
ENDBRANCH  23  24
ENDBRANCH  22  23
ENDBRANCH   6  22
TORSDOF 7
ENDMDL
MODEL 4
REMARK VINA RESULT:      -9.0      4.187      8.445
REMARK  Name = 
REMARK  7 active torsions:
REMARK  status: ('A' for Active; 'I' for Inactive)
REMARK    1  A    between atoms: C_4  and  C_5
REMARK    2  A    between atoms: C_10  and  O_11
REMARK    3  A    between atoms: O_11  and  C_12
REMARK    4  A    between atoms: C_12  and  C_13
REMARK    5  A    between atoms: C_16  and  C_17
REMARK    6  A    between atoms: N_27  and  C_28
REMARK    7  A    between atoms: C_33  and  O_34
REMARK                            x       y       z     vdW  Elec       q    Type
REMARK                         _______ _______ _______ _____ _____    ______ ____
ROOT
ATOM      1  C   UNL     1       3.259   3.808  19.393  0.00  0.00    +0.000 A 
ATOM      2  C   UNL     1       3.584   2.718  20.219  0.00  0.00    +0.000 A 
ATOM      3  C   UNL     1       2.810   2.416  21.342  0.00  0.00    +0.000 A 
ATOM      4  C   UNL     1       1.689   3.178  21.643  0.00  0.00    +0.000 A 
ATOM      5  C   UNL     1       1.354   4.262  20.835  0.00  0.00    +0.000 A 
ATOM      6  C   UNL     1       2.149   4.612  19.733  0.00  0.00    +0.000 A 
ENDROOT
BRANCH   1  10
ATOM      7  O   UNL     1       7.517   4.328  17.364  0.00  0.00    +0.000 OA
ATOM      8  C   UNL     1       6.310   4.229  17.162  0.00  0.00    +0.000 A 
ATOM      9  C   UNL     1       5.400   4.142  18.334  0.00  0.00    +0.000 A 
ATOM     10  C   UNL     1       4.069   4.034  18.175  0.00  0.00    +0.000 A 
ATOM     11  C   UNL     1       3.518   4.141  16.840  0.00  0.00    +0.000 A 
ATOM     12  C   UNL     1       4.324   4.178  15.771  0.00  0.00    +0.000 A 
ATOM     13  N   UNL     1       5.706   4.171  15.903  0.00  0.00    +0.000 N 
BRANCH  13  14
ATOM     14  C   UNL     1       6.549   4.093  14.685  0.00  0.00    +0.000 C 
ATOM     15  C   UNL     1       5.814   3.417  13.515  0.00  0.00    +0.000 C 
ATOM     16  C   UNL     1       6.686   3.327  12.266  0.00  0.00    +0.000 C 
ATOM     17  C   UNL     1       7.235   4.692  11.862  0.00  0.00    +0.000 C 
ATOM     18  C   UNL     1       7.997   5.344  13.008  0.00  0.00    +0.000 C 
ATOM     19  C   UNL     1       7.136   5.471  14.269  0.00  0.00    +0.000 C 
BRANCH  19  20
ATOM     20  O   UNL     1       7.958   6.023  15.308  0.00  0.00    +0.000 OA
ATOM     21  H   UNL     1       8.006   6.984  15.178  0.00  0.00    +0.000 HD
ENDBRANCH  19  20
ENDBRANCH  13  14
ENDBRANCH   1  10
BRANCH   6  22
ATOM     22  O   UNL     1       1.880   5.723  18.963  0.00  0.00    +0.000 OA
BRANCH  22  23
ATOM     23  C   UNL     1       2.676   6.876  19.287  0.00  0.00    +0.000 C 
BRANCH  23  24
ATOM     24  C   UNL     1       1.879   8.002  19.894  0.00  0.00    +0.000 A 
ATOM     25  C   UNL     1       1.494   8.001  21.230  0.00  0.00    +0.000 A 
ATOM     26  C   UNL     1       0.634   8.991  21.709  0.00  0.00    +0.000 A 
ATOM     27  C   UNL     1       0.160  10.021  20.879  0.00  0.00    +0.000 A 
ATOM     28  C   UNL     1       0.633  10.068  19.560  0.00  0.00    +0.000 A 
ATOM     29  C   UNL     1       1.484   9.068  19.072  0.00  0.00    +0.000 A 
BRANCH  27  30
ATOM     30  C   UNL     1      -0.851  10.967  21.376  0.00  0.00    +0.000 A 
ATOM     31  C   UNL     1      -1.561  11.826  20.553  0.00  0.00    +0.000 A 
ATOM     32  N   UNL     1      -2.435  12.766  20.974  0.00  0.00    +0.000 NA
ATOM     33  C   UNL     1      -2.617  12.825  22.300  0.00  0.00    +0.000 A 
ATOM     34  N   UNL     1      -2.025  12.042  23.208  0.00  0.00    +0.000 NA
ATOM     35  C   UNL     1      -1.158  11.130  22.723  0.00  0.00    +0.000 A 
ENDBRANCH  27  30
ENDBRANCH  23  24
ENDBRANCH  22  23
ENDBRANCH   6  22
TORSDOF 7
ENDMDL
MODEL 5
REMARK VINA RESULT:      -8.9      4.547      8.252
REMARK  Name = 
REMARK  7 active torsions:
REMARK  status: ('A' for Active; 'I' for Inactive)
REMARK    1  A    between atoms: C_4  and  C_5
REMARK    2  A    between atoms: C_10  and  O_11
REMARK    3  A    between atoms: O_11  and  C_12
REMARK    4  A    between atoms: C_12  and  C_13
REMARK    5  A    between atoms: C_16  and  C_17
REMARK    6  A    between atoms: N_27  and  C_28
REMARK    7  A    between atoms: C_33  and  O_34
REMARK                            x       y       z     vdW  Elec       q    Type
REMARK                         _______ _______ _______ _____ _____    ______ ____
ROOT
ATOM      1  C   UNL     1      -2.686  11.609  18.684  0.00  0.00    +0.000 A 
ATOM      2  C   UNL     1      -3.619  11.736  17.640  0.00  0.00    +0.000 A 
ATOM      3  C   UNL     1      -3.564  10.897  16.525  0.00  0.00    +0.000 A 
ATOM      4  C   UNL     1      -2.596   9.905  16.445  0.00  0.00    +0.000 A 
ATOM      5  C   UNL     1      -1.663   9.767  17.469  0.00  0.00    +0.000 A 
ATOM      6  C   UNL     1      -1.672  10.633  18.573  0.00  0.00    +0.000 A 
ENDROOT
BRANCH   1  10
ATOM      7  O   UNL     1      -4.925  12.582  22.753  0.00  0.00    +0.000 OA
ATOM      8  C   UNL     1      -3.993  12.893  22.016  0.00  0.00    +0.000 A 
ATOM      9  C   UNL     1      -3.841  12.175  20.724  0.00  0.00    +0.000 A 
ATOM     10  C   UNL     1      -2.841  12.473  19.875  0.00  0.00    +0.000 A 
ATOM     11  C   UNL     1      -1.988  13.604  20.177  0.00  0.00    +0.000 A 
ATOM     12  C   UNL     1      -2.085  14.236  21.354  0.00  0.00    +0.000 A 
ATOM     13  N   UNL     1      -3.034  13.869  22.299  0.00  0.00    +0.000 N 
BRANCH  13  14
ATOM     14  C   UNL     1      -3.019  14.522  23.630  0.00  0.00    +0.000 C 
ATOM     15  C   UNL     1      -1.588  14.715  24.164  0.00  0.00    +0.000 C 
ATOM     16  C   UNL     1      -1.574  15.377  25.539  0.00  0.00    +0.000 C 
ATOM     17  C   UNL     1      -2.349  16.691  25.540  0.00  0.00    +0.000 C 
ATOM     18  C   UNL     1      -3.777  16.494  25.050  0.00  0.00    +0.000 C 
ATOM     19  C   UNL     1      -3.821  15.854  23.658  0.00  0.00    +0.000 C 
BRANCH  19  20
ATOM     20  O   UNL     1      -5.198  15.640  23.317  0.00  0.00    +0.000 OA
ATOM     21  H   UNL     1      -5.230  15.129  22.491  0.00  0.00    +0.000 HD
ENDBRANCH  19  20
ENDBRANCH  13  14
ENDBRANCH   1  10
BRANCH   6  22
ATOM     22  O   UNL     1      -0.715  10.563  19.563  0.00  0.00    +0.000 OA
BRANCH  22  23
ATOM     23  C   UNL     1       0.634  10.747  19.099  0.00  0.00    +0.000 C 
BRANCH  23  24
ATOM     24  C   UNL     1       1.413   9.460  18.999  0.00  0.00    +0.000 A 
ATOM     25  C   UNL     1       2.088   9.092  17.840  0.00  0.00    +0.000 A 
ATOM     26  C   UNL     1       2.671   7.827  17.747  0.00  0.00    +0.000 A 
ATOM     27  C   UNL     1       2.622   6.910  18.810  0.00  0.00    +0.000 A 
ATOM     28  C   UNL     1       2.025   7.330  20.008  0.00  0.00    +0.000 A 
ATOM     29  C   UNL     1       1.426   8.592  20.101  0.00  0.00    +0.000 A 
BRANCH  27  30
ATOM     30  C   UNL     1       3.124   5.540  18.631  0.00  0.00    +0.000 A 
ATOM     31  C   UNL     1       2.537   4.616  17.782  0.00  0.00    +0.000 A 
ATOM     32  N   UNL     1       2.913   3.325  17.651  0.00  0.00    +0.000 NA
ATOM     33  C   UNL     1       3.957   2.954  18.404  0.00  0.00    +0.000 A 
ATOM     34  N   UNL     1       4.638   3.743  19.243  0.00  0.00    +0.000 NA
ATOM     35  C   UNL     1       4.206   5.018  19.333  0.00  0.00    +0.000 A 
ENDBRANCH  27  30
ENDBRANCH  23  24
ENDBRANCH  22  23
ENDBRANCH   6  22
TORSDOF 7
ENDMDL
MODEL 6
REMARK VINA RESULT:      -8.8      4.120      8.492
REMARK  Name = 
REMARK  7 active torsions:
REMARK  status: ('A' for Active; 'I' for Inactive)
REMARK    1  A    between atoms: C_4  and  C_5
REMARK    2  A    between atoms: C_10  and  O_11
REMARK    3  A    between atoms: O_11  and  C_12
REMARK    4  A    between atoms: C_12  and  C_13
REMARK    5  A    between atoms: C_16  and  C_17
REMARK    6  A    between atoms: N_27  and  C_28
REMARK    7  A    between atoms: C_33  and  O_34
REMARK                            x       y       z     vdW  Elec       q    Type
REMARK                         _______ _______ _______ _____ _____    ______ ____
ROOT
ATOM      1  C   UNL     1       3.540   3.974  19.315  0.00  0.00    +0.000 A 
ATOM      2  C   UNL     1       3.228   2.662  19.715  0.00  0.00    +0.000 A 
ATOM      3  C   UNL     1       2.441   2.428  20.845  0.00  0.00    +0.000 A 
ATOM      4  C   UNL     1       1.933   3.494  21.576  0.00  0.00    +0.000 A 
ATOM      5  C   UNL     1       2.235   4.798  21.194  0.00  0.00    +0.000 A 
ATOM      6  C   UNL     1       3.066   5.053  20.093  0.00  0.00    +0.000 A 
ENDROOT
BRANCH   1  10
ATOM      7  O   UNL     1       7.736   4.390  17.138  0.00  0.00    +0.000 OA
ATOM      8  C   UNL     1       6.521   4.305  16.978  0.00  0.00    +0.000 A 
ATOM      9  C   UNL     1       5.649   4.255  18.180  0.00  0.00    +0.000 A 
ATOM     10  C   UNL     1       4.312   4.163  18.067  0.00  0.00    +0.000 A 
ATOM     11  C   UNL     1       3.719   4.252  16.749  0.00  0.00    +0.000 A 
ATOM     12  C   UNL     1       4.490   4.256  15.653  0.00  0.00    +0.000 A 
ATOM     13  N   UNL     1       5.875   4.232  15.741  0.00  0.00    +0.000 N 
BRANCH  13  14
ATOM     14  C   UNL     1       6.677   4.117  14.498  0.00  0.00    +0.000 C 
ATOM     15  C   UNL     1       5.903   3.405  13.374  0.00  0.00    +0.000 C 
ATOM     16  C   UNL     1       6.732   3.278  12.099  0.00  0.00    +0.000 C 
ATOM     17  C   UNL     1       7.264   4.630  11.636  0.00  0.00    +0.000 C 
ATOM     18  C   UNL     1       8.065   5.318  12.734  0.00  0.00    +0.000 C 
ATOM     19  C   UNL     1       7.247   5.483  14.020  0.00  0.00    +0.000 C 
BRANCH  19  20
ATOM     20  O   UNL     1       8.103   6.066  15.012  0.00  0.00    +0.000 OA
ATOM     21  H   UNL     1       7.843   6.995  15.128  0.00  0.00    +0.000 HD
ENDBRANCH  19  20
ENDBRANCH  13  14
ENDBRANCH   1  10
BRANCH   6  22
ATOM     22  O   UNL     1       3.439   6.332  19.739  0.00  0.00    +0.000 OA
BRANCH  22  23
ATOM     23  C   UNL     1       2.661   6.904  18.674  0.00  0.00    +0.000 C 
BRANCH  23  24
ATOM     24  C   UNL     1       1.845   8.096  19.102  0.00  0.00    +0.000 A 
ATOM     25  C   UNL     1       1.496   8.316  20.430  0.00  0.00    +0.000 A 
ATOM     26  C   UNL     1       0.617   9.351  20.757  0.00  0.00    +0.000 A 
ATOM     27  C   UNL     1       0.088  10.208  19.778  0.00  0.00    +0.000 A 
ATOM     28  C   UNL     1       0.524  10.038  18.456  0.00  0.00    +0.000 A 
ATOM     29  C   UNL     1       1.394   8.993  18.121  0.00  0.00    +0.000 A 
BRANCH  27  30
ATOM     30  C   UNL     1      -0.939  11.198  20.135  0.00  0.00    +0.000 A 
ATOM     31  C   UNL     1      -0.976  11.853  21.356  0.00  0.00    +0.000 A 
ATOM     32  N   UNL     1      -1.945  12.705  21.756  0.00  0.00    +0.000 NA
ATOM     33  C   UNL     1      -2.919  12.923  20.863  0.00  0.00    +0.000 A 
ATOM     34  N   UNL     1      -2.997  12.386  19.641  0.00  0.00    +0.000 NA
ATOM     35  C   UNL     1      -2.003  11.538  19.306  0.00  0.00    +0.000 A 
ENDBRANCH  27  30
ENDBRANCH  23  24
ENDBRANCH  22  23
ENDBRANCH   6  22
TORSDOF 7
ENDMDL
MODEL 7
REMARK VINA RESULT:      -8.8      4.202      7.874
REMARK  Name = 
REMARK  7 active torsions:
REMARK  status: ('A' for Active; 'I' for Inactive)
REMARK    1  A    between atoms: C_4  and  C_5
REMARK    2  A    between atoms: C_10  and  O_11
REMARK    3  A    between atoms: O_11  and  C_12
REMARK    4  A    between atoms: C_12  and  C_13
REMARK    5  A    between atoms: C_16  and  C_17
REMARK    6  A    between atoms: N_27  and  C_28
REMARK    7  A    between atoms: C_33  and  O_34
REMARK                            x       y       z     vdW  Elec       q    Type
REMARK                         _______ _______ _______ _____ _____    ______ ____
ROOT
ATOM      1  C   UNL     1       3.336   3.668  19.470  0.00  0.00    +0.000 A 
ATOM      2  C   UNL     1       3.686   2.566  20.270  0.00  0.00    +0.000 A 
ATOM      3  C   UNL     1       2.932   2.235  21.399  0.00  0.00    +0.000 A 
ATOM      4  C   UNL     1       1.807   2.978  21.730  0.00  0.00    +0.000 A 
ATOM      5  C   UNL     1       1.448   4.073  20.949  0.00  0.00    +0.000 A 
ATOM      6  C   UNL     1       2.222   4.452  19.841  0.00  0.00    +0.000 A 
ENDROOT
BRANCH   1  10
ATOM      7  O   UNL     1       7.551   4.354  17.399  0.00  0.00    +0.000 OA
ATOM      8  C   UNL     1       6.346   4.207  17.210  0.00  0.00    +0.000 A 
ATOM      9  C   UNL     1       5.451   4.085  18.390  0.00  0.00    +0.000 A 
ATOM     10  C   UNL     1       4.124   3.924  18.244  0.00  0.00    +0.000 A 
ATOM     11  C   UNL     1       3.556   4.010  16.914  0.00  0.00    +0.000 A 
ATOM     12  C   UNL     1       4.350   4.079  15.837  0.00  0.00    +0.000 A 
ATOM     13  N   UNL     1       5.732   4.126  15.956  0.00  0.00    +0.000 N 
BRANCH  13  14
ATOM     14  C   UNL     1       6.566   4.081  14.731  0.00  0.00    +0.000 C 
ATOM     15  C   UNL     1       5.845   3.381  13.566  0.00  0.00    +0.000 C 
ATOM     16  C   UNL     1       6.708   3.325  12.308  0.00  0.00    +0.000 C 
ATOM     17  C   UNL     1       7.203   4.710  11.902  0.00  0.00    +0.000 C 
ATOM     18  C   UNL     1       7.952   5.388  13.042  0.00  0.00    +0.000 C 
ATOM     19  C   UNL     1       7.099   5.481  14.312  0.00  0.00    +0.000 C 
BRANCH  19  20
ATOM     20  O   UNL     1       7.910   6.060  15.344  0.00  0.00    +0.000 OA
ATOM     21  H   UNL     1       7.320   6.417  16.028  0.00  0.00    +0.000 HD
ENDBRANCH  19  20
ENDBRANCH  13  14
ENDBRANCH   1  10
BRANCH   6  22
ATOM     22  O   UNL     1       1.929   5.574  19.096  0.00  0.00    +0.000 OA
BRANCH  22  23
ATOM     23  C   UNL     1       2.792   6.696  19.349  0.00  0.00    +0.000 C 
BRANCH  23  24
ATOM     24  C   UNL     1       2.110   8.028  19.167  0.00  0.00    +0.000 A 
ATOM     25  C   UNL     1       2.201   8.750  17.981  0.00  0.00    +0.000 A 
ATOM     26  C   UNL     1       1.677  10.042  17.911  0.00  0.00    +0.000 A 
ATOM     27  C   UNL     1       1.026  10.636  19.005  0.00  0.00    +0.000 A 
ATOM     28  C   UNL     1       0.853   9.861  20.162  0.00  0.00    +0.000 A 
ATOM     29  C   UNL     1       1.390   8.570  20.242  0.00  0.00    +0.000 A 
BRANCH  27  30
ATOM     30  C   UNL     1       0.608  12.044  18.945  0.00  0.00    +0.000 A 
ATOM     31  C   UNL     1       1.486  13.092  18.720  0.00  0.00    +0.000 A 
ATOM     32  N   UNL     1       1.159  14.403  18.740  0.00  0.00    +0.000 NA
ATOM     33  C   UNL     1      -0.132  14.667  18.978  0.00  0.00    +0.000 A 
ATOM     34  N   UNL     1      -1.093  13.760  19.182  0.00  0.00    +0.000 NA
ATOM     35  C   UNL     1      -0.700  12.470  19.158  0.00  0.00    +0.000 A 
ENDBRANCH  27  30
ENDBRANCH  23  24
ENDBRANCH  22  23
ENDBRANCH   6  22
TORSDOF 7
ENDMDL
MODEL 8
REMARK VINA RESULT:      -8.8      3.332      4.622
REMARK  Name = 
REMARK  7 active torsions:
REMARK  status: ('A' for Active; 'I' for Inactive)
REMARK    1  A    between atoms: C_4  and  C_5
REMARK    2  A    between atoms: C_10  and  O_11
REMARK    3  A    between atoms: O_11  and  C_12
REMARK    4  A    between atoms: C_12  and  C_13
REMARK    5  A    between atoms: C_16  and  C_17
REMARK    6  A    between atoms: N_27  and  C_28
REMARK    7  A    between atoms: C_33  and  O_34
REMARK                            x       y       z     vdW  Elec       q    Type
REMARK                         _______ _______ _______ _____ _____    ______ ____
ROOT
ATOM      1  C   UNL     1       2.895   5.171  18.679  0.00  0.00    +0.000 A 
ATOM      2  C   UNL     1       2.121   4.359  17.832  0.00  0.00    +0.000 A 
ATOM      3  C   UNL     1       2.498   3.040  17.565  0.00  0.00    +0.000 A 
ATOM      4  C   UNL     1       3.633   2.505  18.159  0.00  0.00    +0.000 A 
ATOM      5  C   UNL     1       4.411   3.297  18.999  0.00  0.00    +0.000 A 
ATOM      6  C   UNL     1       4.077   4.639  19.238  0.00  0.00    +0.000 A 
ENDROOT
BRANCH   1  10
ATOM      7  O   UNL     1       2.131   9.642  17.284  0.00  0.00    +0.000 OA
ATOM      8  C   UNL     1       1.967   8.826  18.187  0.00  0.00    +0.000 A 
ATOM      9  C   UNL     1       2.550   7.468  18.030  0.00  0.00    +0.000 A 
ATOM     10  C   UNL     1       2.405   6.534  18.986  0.00  0.00    +0.000 A 
ATOM     11  C   UNL     1       1.786   6.913  20.239  0.00  0.00    +0.000 A 
ATOM     12  C   UNL     1       1.219   8.118  20.382  0.00  0.00    +0.000 A 
ATOM     13  N   UNL     1       1.252   9.061  19.364  0.00  0.00    +0.000 N 
BRANCH  13  14
ATOM     14  C   UNL     1       0.507  10.332  19.531  0.00  0.00    +0.000 C 
ATOM     15  C   UNL     1      -0.786  10.359  18.697  0.00  0.00    +0.000 C 
ATOM     16  C   UNL     1      -1.546  11.672  18.860  0.00  0.00    +0.000 C 
ATOM     17  C   UNL     1      -1.827  11.982  20.328  0.00  0.00    +0.000 C 
ATOM     18  C   UNL     1      -0.543  11.995  21.147  0.00  0.00    +0.000 C 
ATOM     19  C   UNL     1       0.229  10.678  21.022  0.00  0.00    +0.000 C 
BRANCH  19  20
ATOM     20  O   UNL     1       1.451  10.813  21.762  0.00  0.00    +0.000 OA
ATOM     21  H   UNL     1       2.155  10.361  21.268  0.00  0.00    +0.000 HD
ENDBRANCH  19  20
ENDBRANCH  13  14
ENDBRANCH   1  10
BRANCH   6  22
ATOM     22  O   UNL     1       4.870   5.463  20.007  0.00  0.00    +0.000 OA
BRANCH  22  23
ATOM     23  C   UNL     1       6.239   5.542  19.574  0.00  0.00    +0.000 C 
BRANCH  23  24
ATOM     24  C   UNL     1       6.405   5.399  18.083  0.00  0.00    +0.000 A 
ATOM     25  C   UNL     1       5.646   6.135  17.180  0.00  0.00    +0.000 A 
ATOM     26  C   UNL     1       5.731   5.863  15.813  0.00  0.00    +0.000 A 
ATOM     27  C   UNL     1       6.592   4.873  15.310  0.00  0.00    +0.000 A 
ATOM     28  C   UNL     1       7.424   4.206  16.220  0.00  0.00    +0.000 A 
ATOM     29  C   UNL     1       7.332   4.467  17.593  0.00  0.00    +0.000 A 
BRANCH  27  30
ATOM     30  C   UNL     1       6.558   4.516  13.884  0.00  0.00    +0.000 A 
ATOM     31  C   UNL     1       5.649   3.622  13.342  0.00  0.00    +0.000 A 
ATOM     32  N   UNL     1       5.636   3.203  12.058  0.00  0.00    +0.000 NA
ATOM     33  C   UNL     1       6.580   3.735  11.273  0.00  0.00    +0.000 A 
ATOM     34  N   UNL     1       7.501   4.629  11.649  0.00  0.00    +0.000 NA
ATOM     35  C   UNL     1       7.465   5.000  12.946  0.00  0.00    +0.000 A 
ENDBRANCH  27  30
ENDBRANCH  23  24
ENDBRANCH  22  23
ENDBRANCH   6  22
TORSDOF 7
ENDMDL
MODEL 9
REMARK VINA RESULT:      -8.7      4.147      8.031
REMARK  Name = 
REMARK  7 active torsions:
REMARK  status: ('A' for Active; 'I' for Inactive)
REMARK    1  A    between atoms: C_4  and  C_5
REMARK    2  A    between atoms: C_10  and  O_11
REMARK    3  A    between atoms: O_11  and  C_12
REMARK    4  A    between atoms: C_12  and  C_13
REMARK    5  A    between atoms: C_16  and  C_17
REMARK    6  A    between atoms: N_27  and  C_28
REMARK    7  A    between atoms: C_33  and  O_34
REMARK                            x       y       z     vdW  Elec       q    Type
REMARK                         _______ _______ _______ _____ _____    ______ ____
ROOT
ATOM      1  C   UNL     1       3.700   3.999  19.394  0.00  0.00    +0.000 A 
ATOM      2  C   UNL     1       3.602   2.701  19.926  0.00  0.00    +0.000 A 
ATOM      3  C   UNL     1       2.852   2.455  21.078  0.00  0.00    +0.000 A 
ATOM      4  C   UNL     1       2.170   3.491  21.702  0.00  0.00    +0.000 A 
ATOM      5  C   UNL     1       2.259   4.783  21.189  0.00  0.00    +0.000 A 
ATOM      6  C   UNL     1       3.048   5.058  20.062  0.00  0.00    +0.000 A 
ENDROOT
BRANCH   1  10
ATOM      7  O   UNL     1       7.847   4.329  17.110  0.00  0.00    +0.000 OA
ATOM      8  C   UNL     1       6.626   4.282  16.982  0.00  0.00    +0.000 A 
ATOM      9  C   UNL     1       5.786   4.237  18.207  0.00  0.00    +0.000 A 
ATOM     10  C   UNL     1       4.444   4.186  18.129  0.00  0.00    +0.000 A 
ATOM     11  C   UNL     1       3.819   4.313  16.828  0.00  0.00    +0.000 A 
ATOM     12  C   UNL     1       4.560   4.313  15.713  0.00  0.00    +0.000 A 
ATOM     13  N   UNL     1       5.946   4.247  15.762  0.00  0.00    +0.000 N 
BRANCH  13  14
ATOM     14  C   UNL     1       6.710   4.129  14.496  0.00  0.00    +0.000 C 
ATOM     15  C   UNL     1       5.897   3.430  13.393  0.00  0.00    +0.000 C 
ATOM     16  C   UNL     1       6.689   3.299  12.094  0.00  0.00    +0.000 C 
ATOM     17  C   UNL     1       7.221   4.648  11.621  0.00  0.00    +0.000 C 
ATOM     18  C   UNL     1       8.059   5.323  12.698  0.00  0.00    +0.000 C 
ATOM     19  C   UNL     1       7.281   5.491  14.007  0.00  0.00    +0.000 C 
BRANCH  19  20
ATOM     20  O   UNL     1       8.170   6.061  14.977  0.00  0.00    +0.000 OA
ATOM     21  H   UNL     1       8.742   5.353  15.317  0.00  0.00    +0.000 HD
ENDBRANCH  19  20
ENDBRANCH  13  14
ENDBRANCH   1  10
BRANCH   6  22
ATOM     22  O   UNL     1       3.211   6.339  19.580  0.00  0.00    +0.000 OA
BRANCH  22  23
ATOM     23  C   UNL     1       2.091   6.837  18.829  0.00  0.00    +0.000 C 
BRANCH  23  24
ATOM     24  C   UNL     1       1.783   8.287  19.105  0.00  0.00    +0.000 A 
ATOM     25  C   UNL     1       1.254   8.714  20.319  0.00  0.00    +0.000 A 
ATOM     26  C   UNL     1       0.849  10.041  20.474  0.00  0.00    +0.000 A 
ATOM     27  C   UNL     1       0.986  10.980  19.438  0.00  0.00    +0.000 A 
ATOM     28  C   UNL     1       1.610  10.562  18.254  0.00  0.00    +0.000 A 
ATOM     29  C   UNL     1       2.005   9.229  18.089  0.00  0.00    +0.000 A 
BRANCH  27  30
ATOM     30  C   UNL     1       0.425  12.332  19.584  0.00  0.00    +0.000 A 
ATOM     31  C   UNL     1       0.107  13.147  18.510  0.00  0.00    +0.000 A 
ATOM     32  N   UNL     1      -0.331  14.422  18.599  0.00  0.00    +0.000 NA
ATOM     33  C   UNL     1      -0.476  14.891  19.845  0.00  0.00    +0.000 A 
ATOM     34  N   UNL     1      -0.237  14.211  20.972  0.00  0.00    +0.000 NA
ATOM     35  C   UNL     1       0.205  12.946  20.813  0.00  0.00    +0.000 A 
ENDBRANCH  27  30
ENDBRANCH  23  24
ENDBRANCH  22  23
ENDBRANCH   6  22
TORSDOF 7
ENDMDL
