MODEL 1
REMARK VINA RESULT:      -8.1      0.000      0.000
REMARK  Name = 
REMARK  6 active torsions:
REMARK  status: ('A' for Active; 'I' for Inactive)
REMARK    1  A    between atoms: C_1  and  C_2
REMARK    2  A    between atoms: C_2  and  O_3
REMARK    3  A    between atoms: O_3  and  C_4
REMARK    4  A    between atoms: C_7  and  C_8
REMARK    5  A    between atoms: C_8  and  C_10
REMARK    6  A    between atoms: C_15  and  O_16
REMARK                            x       y       z     vdW  Elec       q    Type
REMARK                         _______ _______ _______ _____ _____    ______ ____
ROOT
ATOM      1  C   UNL     1       2.703   6.865  18.224  0.00  0.00    +0.000 A 
ATOM      2  C   UNL     1       1.854   5.823  18.322  0.00  0.00    +0.000 A 
ATOM      3  C   UNL     1       2.400   4.469  18.290  0.00  0.00    +0.000 A 
ATOM      4  C   UNL     1       1.640   3.331  18.029  0.00  0.00    +0.000 A 
ATOM      5  C   UNL     1       2.247   2.069  18.069  0.00  0.00    +0.000 A 
ATOM      6  C   UNL     1       3.596   1.955  18.412  0.00  0.00    +0.000 A 
ATOM      7  C   UNL     1       4.364   3.079  18.677  0.00  0.00    +0.000 A 
ATOM      8  C   UNL     1       3.762   4.326  18.571  0.00  0.00    +0.000 A 
ATOM      9  O   UNL     1       4.581   5.452  18.686  0.00  0.00    +0.000 OA
ATOM     10  C   UNL     1       4.101   6.500  17.918  0.00  0.00    +0.000 A 
ATOM     11  O   UNL     1       4.805   7.113  17.133  0.00  0.00    +0.000 OA
ENDROOT
BRANCH   1  12
ATOM     12  C   UNL     1       2.149   8.247  18.305  0.00  0.00    +0.000 C 
ATOM     13  O   UNL     1       2.118   8.937  17.282  0.00  0.00    +0.000 OA
BRANCH  12  17
ATOM     14  C   UNL     1       0.438  10.112  21.831  0.00  0.00    +0.000 A 
ATOM     15  C   UNL     1       0.404  10.728  20.583  0.00  0.00    +0.000 A 
ATOM     16  C   UNL     1       0.962  10.098  19.463  0.00  0.00    +0.000 A 
ATOM     17  C   UNL     1       1.567   8.832  19.564  0.00  0.00    +0.000 A 
ATOM     18  C   UNL     1       1.555   8.215  20.817  0.00  0.00    +0.000 A 
ATOM     19  C   UNL     1       1.036   8.863  21.948  0.00  0.00    +0.000 A 
BRANCH  14  20
ATOM     20  O   UNL     1      -0.139  10.812  22.852  0.00  0.00    +0.000 OA
BRANCH  20  22
ATOM     21  C   UNL     1      -2.232  11.920  23.119  0.00  0.00    +0.000 C 
ATOM     22  C   UNL     1      -0.857  11.991  22.483  0.00  0.00    +0.000 C 
ENDBRANCH  20  22
ENDBRANCH  14  20
ENDBRANCH  12  17
ENDBRANCH   1  12
BRANCH   6  23
ATOM     23  O   UNL     1       4.217   0.745  18.476  0.00  0.00    +0.000 OA
ATOM     24  H   UNL     1       4.918   0.709  17.804  0.00  0.00    +0.000 HD
ENDBRANCH   6  23
TORSDOF 5
ENDMDL
MODEL 2
REMARK VINA RESULT:      -8.0      0.379      1.073
REMARK  Name = 
REMARK  6 active torsions:
REMARK  status: ('A' for Active; 'I' for Inactive)
REMARK    1  A    between atoms: C_1  and  C_2
REMARK    2  A    between atoms: C_2  and  O_3
REMARK    3  A    between atoms: O_3  and  C_4
REMARK    4  A    between atoms: C_7  and  C_8
REMARK    5  A    between atoms: C_8  and  C_10
REMARK    6  A    between atoms: C_15  and  O_16
REMARK                            x       y       z     vdW  Elec       q    Type
REMARK                         _______ _______ _______ _____ _____    ______ ____
ROOT
ATOM      1  C   UNL     1       2.731   6.908  18.157  0.00  0.00    +0.000 A 
ATOM      2  C   UNL     1       1.866   5.875  18.198  0.00  0.00    +0.000 A 
ATOM      3  C   UNL     1       2.399   4.516  18.224  0.00  0.00    +0.000 A 
ATOM      4  C   UNL     1       1.650   3.382  17.916  0.00  0.00    +0.000 A 
ATOM      5  C   UNL     1       2.239   2.115  18.018  0.00  0.00    +0.000 A 
ATOM      6  C   UNL     1       3.556   1.992  18.466  0.00  0.00    +0.000 A 
ATOM      7  C   UNL     1       4.312   3.111  18.779  0.00  0.00    +0.000 A 
ATOM      8  C   UNL     1       3.733   4.363  18.613  0.00  0.00    +0.000 A 
ATOM      9  O   UNL     1       4.553   5.482  18.780  0.00  0.00    +0.000 OA
ATOM     10  C   UNL     1       4.145   6.526  17.965  0.00  0.00    +0.000 A 
ATOM     11  O   UNL     1       4.915   7.124  17.232  0.00  0.00    +0.000 OA
ENDROOT
BRANCH   1  12
ATOM     12  C   UNL     1       2.187   8.296  18.179  0.00  0.00    +0.000 C 
ATOM     13  O   UNL     1       2.168   8.945  17.130  0.00  0.00    +0.000 OA
BRANCH  12  17
ATOM     14  C   UNL     1       0.528   9.960  21.829  0.00  0.00    +0.000 A 
ATOM     15  C   UNL     1       1.144   8.711  21.803  0.00  0.00    +0.000 A 
ATOM     16  C   UNL     1       1.673   8.203  20.609  0.00  0.00    +0.000 A 
ATOM     17  C   UNL     1       1.601   8.935  19.410  0.00  0.00    +0.000 A 
ATOM     18  C   UNL     1       1.015  10.202  19.467  0.00  0.00    +0.000 A 
ATOM     19  C   UNL     1       0.446  10.693  20.651  0.00  0.00    +0.000 A 
BRANCH  14  20
ATOM     20  O   UNL     1       0.052  10.359  23.045  0.00  0.00    +0.000 OA
BRANCH  20  22
ATOM     21  C   UNL     1      -1.295  12.324  23.108  0.00  0.00    +0.000 C 
ATOM     22  C   UNL     1      -1.304  10.808  23.077  0.00  0.00    +0.000 C 
ENDBRANCH  20  22
ENDBRANCH  14  20
ENDBRANCH  12  17
ENDBRANCH   1  12
BRANCH   6  23
ATOM     23  O   UNL     1       4.157   0.777  18.591  0.00  0.00    +0.000 OA
ATOM     24  H   UNL     1       3.952   0.408  19.466  0.00  0.00    +0.000 HD
ENDBRANCH   6  23
TORSDOF 5
ENDMDL
MODEL 3
REMARK VINA RESULT:      -7.8      4.654      8.306
REMARK  Name = 
REMARK  6 active torsions:
REMARK  status: ('A' for Active; 'I' for Inactive)
REMARK    1  A    between atoms: C_1  and  C_2
REMARK    2  A    between atoms: C_2  and  O_3
REMARK    3  A    between atoms: O_3  and  C_4
REMARK    4  A    between atoms: C_7  and  C_8
REMARK    5  A    between atoms: C_8  and  C_10
REMARK    6  A    between atoms: C_15  and  O_16
REMARK                            x       y       z     vdW  Elec       q    Type
REMARK                         _______ _______ _______ _____ _____    ______ ____
ROOT
ATOM      1  C   UNL     1       4.927   5.292  17.573  0.00  0.00    +0.000 A 
ATOM      2  C   UNL     1       3.763   4.688  17.259  0.00  0.00    +0.000 A 
ATOM      3  C   UNL     1       2.966   4.101  18.331  0.00  0.00    +0.000 A 
ATOM      4  C   UNL     1       1.955   3.165  18.125  0.00  0.00    +0.000 A 
ATOM      5  C   UNL     1       1.213   2.696  19.217  0.00  0.00    +0.000 A 
ATOM      6  C   UNL     1       1.460   3.199  20.496  0.00  0.00    +0.000 A 
ATOM      7  C   UNL     1       2.461   4.133  20.716  0.00  0.00    +0.000 A 
ATOM      8  C   UNL     1       3.229   4.540  19.633  0.00  0.00    +0.000 A 
ATOM      9  O   UNL     1       4.331   5.359  19.892  0.00  0.00    +0.000 OA
ATOM     10  C   UNL     1       5.349   5.132  18.979  0.00  0.00    +0.000 A 
ATOM     11  O   UNL     1       6.499   4.913  19.321  0.00  0.00    +0.000 OA
ENDROOT
BRANCH   1  12
ATOM     12  C   UNL     1       5.716   5.933  16.482  0.00  0.00    +0.000 C 
ATOM     13  O   UNL     1       6.147   7.077  16.653  0.00  0.00    +0.000 OA
BRANCH  12  17
ATOM     14  C   UNL     1       6.559   3.810  12.791  0.00  0.00    +0.000 A 
ATOM     15  C   UNL     1       5.344   3.674  13.458  0.00  0.00    +0.000 A 
ATOM     16  C   UNL     1       5.101   4.376  14.646  0.00  0.00    +0.000 A 
ATOM     17  C   UNL     1       6.068   5.236  15.196  0.00  0.00    +0.000 A 
ATOM     18  C   UNL     1       7.265   5.389  14.490  0.00  0.00    +0.000 A 
ATOM     19  C   UNL     1       7.526   4.654  13.325  0.00  0.00    +0.000 A 
BRANCH  14  20
ATOM     20  O   UNL     1       6.688   3.085  11.642  0.00  0.00    +0.000 OA
BRANCH  20  22
ATOM     21  C   UNL     1       6.380   0.798  11.049  0.00  0.00    +0.000 C 
ATOM     22  C   UNL     1       5.684   2.097  11.402  0.00  0.00    +0.000 C 
ENDBRANCH  20  22
ENDBRANCH  14  20
ENDBRANCH  12  17
ENDBRANCH   1  12
BRANCH   6  23
ATOM     23  O   UNL     1       0.749   2.778  21.578  0.00  0.00    +0.000 OA
ATOM     24  H   UNL     1       0.958   1.846  21.755  0.00  0.00    +0.000 HD
ENDBRANCH   6  23
TORSDOF 5
ENDMDL
MODEL 4
REMARK VINA RESULT:      -7.7      2.950      8.112
REMARK  Name = 
REMARK  6 active torsions:
REMARK  status: ('A' for Active; 'I' for Inactive)
REMARK    1  A    between atoms: C_1  and  C_2
REMARK    2  A    between atoms: C_2  and  O_3
REMARK    3  A    between atoms: O_3  and  C_4
REMARK    4  A    between atoms: C_7  and  C_8
REMARK    5  A    between atoms: C_8  and  C_10
REMARK    6  A    between atoms: C_15  and  O_16
REMARK                            x       y       z     vdW  Elec       q    Type
REMARK                         _______ _______ _______ _____ _____    ______ ____
ROOT
ATOM      1  C   UNL     1       2.903   5.631  19.419  0.00  0.00    +0.000 A 
ATOM      2  C   UNL     1       2.993   6.747  18.669  0.00  0.00    +0.000 A 
ATOM      3  C   UNL     1       2.130   7.880  18.990  0.00  0.00    +0.000 A 
ATOM      4  C   UNL     1       1.866   8.929  18.113  0.00  0.00    +0.000 A 
ATOM      5  C   UNL     1       1.063   9.997  18.533  0.00  0.00    +0.000 A 
ATOM      6  C   UNL     1       0.568  10.026  19.838  0.00  0.00    +0.000 A 
ATOM      7  C   UNL     1       0.825   8.990  20.723  0.00  0.00    +0.000 A 
ATOM      8  C   UNL     1       1.570   7.909  20.271  0.00  0.00    +0.000 A 
ATOM      9  O   UNL     1       1.689   6.805  21.119  0.00  0.00    +0.000 OA
ATOM     10  C   UNL     1       1.793   5.628  20.395  0.00  0.00    +0.000 A 
ATOM     11  O   UNL     1       1.090   4.657  20.618  0.00  0.00    +0.000 OA
ENDROOT
BRANCH   1  12
ATOM     12  C   UNL     1       3.818   4.493  19.120  0.00  0.00    +0.000 C 
ATOM     13  O   UNL     1       3.647   3.421  19.707  0.00  0.00    +0.000 OA
BRANCH  12  17
ATOM     14  C   UNL     1       6.841   4.619  16.008  0.00  0.00    +0.000 A 
ATOM     15  C   UNL     1       5.502   4.365  15.724  0.00  0.00    +0.000 A 
ATOM     16  C   UNL     1       4.549   4.334  16.750  0.00  0.00    +0.000 A 
ATOM     17  C   UNL     1       4.913   4.561  18.090  0.00  0.00    +0.000 A 
ATOM     18  C   UNL     1       6.255   4.854  18.348  0.00  0.00    +0.000 A 
ATOM     19  C   UNL     1       7.217   4.841  17.328  0.00  0.00    +0.000 A 
BRANCH  14  20
ATOM     20  O   UNL     1       7.682   4.631  14.933  0.00  0.00    +0.000 OA
BRANCH  20  22
ATOM     21  C   UNL     1       8.057   5.461  12.730  0.00  0.00    +0.000 C 
ATOM     22  C   UNL     1       7.068   4.773  13.651  0.00  0.00    +0.000 C 
ENDBRANCH  20  22
ENDBRANCH  14  20
ENDBRANCH  12  17
ENDBRANCH   1  12
BRANCH   6  23
ATOM     23  O   UNL     1      -0.204  11.054  20.286  0.00  0.00    +0.000 OA
ATOM     24  H   UNL     1      -0.633  10.793  21.117  0.00  0.00    +0.000 HD
ENDBRANCH   6  23
TORSDOF 5
ENDMDL
MODEL 5
REMARK VINA RESULT:      -7.6      4.786      8.509
REMARK  Name = 
REMARK  6 active torsions:
REMARK  status: ('A' for Active; 'I' for Inactive)
REMARK    1  A    between atoms: C_1  and  C_2
REMARK    2  A    between atoms: C_2  and  O_3
REMARK    3  A    between atoms: O_3  and  C_4
REMARK    4  A    between atoms: C_7  and  C_8
REMARK    5  A    between atoms: C_8  and  C_10
REMARK    6  A    between atoms: C_15  and  O_16
REMARK                            x       y       z     vdW  Elec       q    Type
REMARK                         _______ _______ _______ _____ _____    ______ ____
ROOT
ATOM      1  C   UNL     1       4.897   5.065  17.313  0.00  0.00    +0.000 A 
ATOM      2  C   UNL     1       3.645   4.619  17.085  0.00  0.00    +0.000 A 
ATOM      3  C   UNL     1       2.888   4.055  18.198  0.00  0.00    +0.000 A 
ATOM      4  C   UNL     1       1.759   3.254  18.043  0.00  0.00    +0.000 A 
ATOM      5  C   UNL     1       1.071   2.800  19.176  0.00  0.00    +0.000 A 
ATOM      6  C   UNL     1       1.495   3.185  20.450  0.00  0.00    +0.000 A 
ATOM      7  C   UNL     1       2.616   3.984  20.619  0.00  0.00    +0.000 A 
ATOM      8  C   UNL     1       3.322   4.373  19.489  0.00  0.00    +0.000 A 
ATOM      9  O   UNL     1       4.533   5.043  19.681  0.00  0.00    +0.000 OA
ATOM     10  C   UNL     1       5.426   4.764  18.659  0.00  0.00    +0.000 A 
ATOM     11  O   UNL     1       6.569   4.395  18.871  0.00  0.00    +0.000 OA
ENDROOT
BRANCH   1  12
ATOM     12  C   UNL     1       5.651   5.685  16.186  0.00  0.00    +0.000 C 
ATOM     13  O   UNL     1       6.127   6.813  16.338  0.00  0.00    +0.000 OA
BRANCH  12  17
ATOM     14  C   UNL     1       6.594   3.761  12.412  0.00  0.00    +0.000 A 
ATOM     15  C   UNL     1       7.518   4.558  13.083  0.00  0.00    +0.000 A 
ATOM     16  C   UNL     1       7.184   5.163  14.301  0.00  0.00    +0.000 A 
ATOM     17  C   UNL     1       5.916   4.982  14.882  0.00  0.00    +0.000 A 
ATOM     18  C   UNL     1       5.018   4.145  14.213  0.00  0.00    +0.000 A 
ATOM     19  C   UNL     1       5.336   3.575  12.971  0.00  0.00    +0.000 A 
BRANCH  14  20
ATOM     20  O   UNL     1       7.026   3.217  11.236  0.00  0.00    +0.000 OA
BRANCH  20  22
ATOM     21  C   UNL     1       6.312   0.957  10.986  0.00  0.00    +0.000 C 
ATOM     22  C   UNL     1       7.486   1.866  11.295  0.00  0.00    +0.000 C 
ENDBRANCH  20  22
ENDBRANCH  14  20
ENDBRANCH  12  17
ENDBRANCH   1  12
BRANCH   6  23
ATOM     23  O   UNL     1       0.844   2.776  21.573  0.00  0.00    +0.000 OA
ATOM     24  H   UNL     1       1.493   2.455  22.220  0.00  0.00    +0.000 HD
ENDBRANCH   6  23
TORSDOF 5
ENDMDL
MODEL 6
REMARK VINA RESULT:      -7.5      3.317      8.440
REMARK  Name = 
REMARK  6 active torsions:
REMARK  status: ('A' for Active; 'I' for Inactive)
REMARK    1  A    between atoms: C_1  and  C_2
REMARK    2  A    between atoms: C_2  and  O_3
REMARK    3  A    between atoms: O_3  and  C_4
REMARK    4  A    between atoms: C_7  and  C_8
REMARK    5  A    between atoms: C_8  and  C_10
REMARK    6  A    between atoms: C_15  and  O_16
REMARK                            x       y       z     vdW  Elec       q    Type
REMARK                         _______ _______ _______ _____ _____    ______ ____
ROOT
ATOM      1  C   UNL     1       3.776   5.579  18.858  0.00  0.00    +0.000 A 
ATOM      2  C   UNL     1       3.673   6.734  18.173  0.00  0.00    +0.000 A 
ATOM      3  C   UNL     1       2.633   7.685  18.553  0.00  0.00    +0.000 A 
ATOM      4  C   UNL     1       2.192   8.723  17.736  0.00  0.00    +0.000 A 
ATOM      5  C   UNL     1       1.221   9.614  18.212  0.00  0.00    +0.000 A 
ATOM      6  C   UNL     1       0.733   9.485  19.513  0.00  0.00    +0.000 A 
ATOM      7  C   UNL     1       1.166   8.458  20.340  0.00  0.00    +0.000 A 
ATOM      8  C   UNL     1       2.081   7.546  19.831  0.00  0.00    +0.000 A 
ATOM      9  O   UNL     1       2.388   6.431  20.615  0.00  0.00    +0.000 OA
ATOM     10  C   UNL     1       2.687   5.332  19.826  0.00  0.00    +0.000 A 
ATOM     11  O   UNL     1       2.159   4.246  19.989  0.00  0.00    +0.000 OA
ENDROOT
BRANCH   1  12
ATOM     12  C   UNL     1       4.869   4.630  18.500  0.00  0.00    +0.000 C 
ATOM     13  O   UNL     1       5.255   3.819  19.346  0.00  0.00    +0.000 OA
BRANCH  12  17
ATOM     14  C   UNL     1       6.503   4.358  14.488  0.00  0.00    +0.000 A 
ATOM     15  C   UNL     1       5.180   4.028  14.767  0.00  0.00    +0.000 A 
ATOM     16  C   UNL     1       4.682   4.129  16.073  0.00  0.00    +0.000 A 
ATOM     17  C   UNL     1       5.495   4.569  17.132  0.00  0.00    +0.000 A 
ATOM     18  C   UNL     1       6.809   4.934  16.822  0.00  0.00    +0.000 A 
ATOM     19  C   UNL     1       7.321   4.791  15.525  0.00  0.00    +0.000 A 
BRANCH  14  20
ATOM     20  O   UNL     1       6.882   4.227  13.182  0.00  0.00    +0.000 OA
BRANCH  20  22
ATOM     21  C   UNL     1       6.975   2.545  11.497  0.00  0.00    +0.000 C 
ATOM     22  C   UNL     1       6.063   3.387  12.368  0.00  0.00    +0.000 C 
ENDBRANCH  20  22
ENDBRANCH  14  20
ENDBRANCH  12  17
ENDBRANCH   1  12
BRANCH   6  23
ATOM     23  O   UNL     1      -0.199  10.340  20.015  0.00  0.00    +0.000 OA
ATOM     24  H   UNL     1       0.247  11.126  20.372  0.00  0.00    +0.000 HD
ENDBRANCH   6  23
TORSDOF 5
ENDMDL
MODEL 7
REMARK VINA RESULT:      -7.4      4.278      8.285
REMARK  Name = 
REMARK  6 active torsions:
REMARK  status: ('A' for Active; 'I' for Inactive)
REMARK    1  A    between atoms: C_1  and  C_2
REMARK    2  A    between atoms: C_2  and  O_3
REMARK    3  A    between atoms: O_3  and  C_4
REMARK    4  A    between atoms: C_7  and  C_8
REMARK    5  A    between atoms: C_8  and  C_10
REMARK    6  A    between atoms: C_15  and  O_16
REMARK                            x       y       z     vdW  Elec       q    Type
REMARK                         _______ _______ _______ _____ _____    ______ ____
ROOT
ATOM      1  C   UNL     1       4.616   5.636  17.449  0.00  0.00    +0.000 A 
ATOM      2  C   UNL     1       4.868   4.506  18.139  0.00  0.00    +0.000 A 
ATOM      3  C   UNL     1       3.860   4.016  19.075  0.00  0.00    +0.000 A 
ATOM      4  C   UNL     1       4.121   3.093  20.085  0.00  0.00    +0.000 A 
ATOM      5  C   UNL     1       3.074   2.647  20.902  0.00  0.00    +0.000 A 
ATOM      6  C   UNL     1       1.771   3.094  20.674  0.00  0.00    +0.000 A 
ATOM      7  C   UNL     1       1.496   4.010  19.669  0.00  0.00    +0.000 A 
ATOM      8  C   UNL     1       2.555   4.490  18.910  0.00  0.00    +0.000 A 
ATOM      9  O   UNL     1       2.289   5.526  18.010  0.00  0.00    +0.000 OA
ATOM     10  C   UNL     1       3.391   6.352  17.860  0.00  0.00    +0.000 A 
ATOM     11  O   UNL     1       3.320   7.565  17.967  0.00  0.00    +0.000 OA
ENDROOT
BRANCH   1  12
ATOM     12  C   UNL     1       5.625   6.109  16.460  0.00  0.00    +0.000 C 
ATOM     13  O   UNL     1       6.220   7.168  16.676  0.00  0.00    +0.000 OA
BRANCH  12  17
ATOM     14  C   UNL     1       6.535   3.769  12.918  0.00  0.00    +0.000 A 
ATOM     15  C   UNL     1       5.265   3.778  13.488  0.00  0.00    +0.000 A 
ATOM     16  C   UNL     1       5.002   4.547  14.630  0.00  0.00    +0.000 A 
ATOM     17  C   UNL     1       6.005   5.330  15.229  0.00  0.00    +0.000 A 
ATOM     18  C   UNL     1       7.262   5.338  14.617  0.00  0.00    +0.000 A 
ATOM     19  C   UNL     1       7.538   4.535  13.501  0.00  0.00    +0.000 A 
BRANCH  14  20
ATOM     20  O   UNL     1       6.679   2.990  11.807  0.00  0.00    +0.000 OA
BRANCH  20  22
ATOM     21  C   UNL     1       6.193   0.823  10.940  0.00  0.00    +0.000 C 
ATOM     22  C   UNL     1       5.603   2.095  11.518  0.00  0.00    +0.000 C 
ENDBRANCH  20  22
ENDBRANCH  14  20
ENDBRANCH  12  17
ENDBRANCH   1  12
BRANCH   6  23
ATOM     23  O   UNL     1       0.726   2.672  21.437  0.00  0.00    +0.000 OA
ATOM     24  H   UNL     1       0.635   3.258  22.206  0.00  0.00    +0.000 HD
ENDBRANCH   6  23
TORSDOF 5
ENDMDL
MODEL 8
REMARK VINA RESULT:      -7.4      2.950      8.166
REMARK  Name = 
REMARK  6 active torsions:
REMARK  status: ('A' for Active; 'I' for Inactive)
REMARK    1  A    between atoms: C_1  and  C_2
REMARK    2  A    between atoms: C_2  and  O_3
REMARK    3  A    between atoms: O_3  and  C_4
REMARK    4  A    between atoms: C_7  and  C_8
REMARK    5  A    between atoms: C_8  and  C_10
REMARK    6  A    between atoms: C_15  and  O_16
REMARK                            x       y       z     vdW  Elec       q    Type
REMARK                         _______ _______ _______ _____ _____    ______ ____
ROOT
ATOM      1  C   UNL     1       2.946   5.652  19.437  0.00  0.00    +0.000 A 
ATOM      2  C   UNL     1       3.031   6.762  18.679  0.00  0.00    +0.000 A 
ATOM      3  C   UNL     1       2.156   7.890  18.985  0.00  0.00    +0.000 A 
ATOM      4  C   UNL     1       1.889   8.930  18.098  0.00  0.00    +0.000 A 
ATOM      5  C   UNL     1       1.073   9.994  18.504  0.00  0.00    +0.000 A 
ATOM      6  C   UNL     1       0.568  10.028  19.805  0.00  0.00    +0.000 A 
ATOM      7  C   UNL     1       0.828   9.001  20.700  0.00  0.00    +0.000 A 
ATOM      8  C   UNL     1       1.586   7.924  20.262  0.00  0.00    +0.000 A 
ATOM      9  O   UNL     1       1.708   6.827  21.118  0.00  0.00    +0.000 OA
ATOM     10  C   UNL     1       1.829   5.646  20.405  0.00  0.00    +0.000 A 
ATOM     11  O   UNL     1       1.133   4.670  20.630  0.00  0.00    +0.000 OA
ENDROOT
BRANCH   1  12
ATOM     12  C   UNL     1       3.873   4.520  19.153  0.00  0.00    +0.000 C 
ATOM     13  O   UNL     1       3.886   3.553  19.921  0.00  0.00    +0.000 OA
BRANCH  12  17
ATOM     14  C   UNL     1       6.587   4.439  15.766  0.00  0.00    +0.000 A 
ATOM     15  C   UNL     1       7.017   4.777  17.046  0.00  0.00    +0.000 A 
ATOM     16  C   UNL     1       6.117   4.790  18.120  0.00  0.00    +0.000 A 
ATOM     17  C   UNL     1       4.762   4.462  17.939  0.00  0.00    +0.000 A 
ATOM     18  C   UNL     1       4.359   4.087  16.654  0.00  0.00    +0.000 A 
ATOM     19  C   UNL     1       5.249   4.117  15.571  0.00  0.00    +0.000 A 
BRANCH  14  20
ATOM     20  O   UNL     1       7.547   4.454  14.796  0.00  0.00    +0.000 OA
BRANCH  20  22
ATOM     21  C   UNL     1       6.854   3.837  12.601  0.00  0.00    +0.000 C 
ATOM     22  C   UNL     1       7.161   4.994  13.531  0.00  0.00    +0.000 C 
ENDBRANCH  20  22
ENDBRANCH  14  20
ENDBRANCH  12  17
ENDBRANCH   1  12
BRANCH   6  23
ATOM     23  O   UNL     1      -0.216  11.053  20.240  0.00  0.00    +0.000 OA
ATOM     24  H   UNL     1       0.245  11.894  20.089  0.00  0.00    +0.000 HD
ENDBRANCH   6  23
TORSDOF 5
ENDMDL
MODEL 9
REMARK VINA RESULT:      -7.4      4.564      6.567
REMARK  Name = 
REMARK  6 active torsions:
REMARK  status: ('A' for Active; 'I' for Inactive)
REMARK    1  A    between atoms: C_1  and  C_2
REMARK    2  A    between atoms: C_2  and  O_3
REMARK    3  A    between atoms: O_3  and  C_4
REMARK    4  A    between atoms: C_7  and  C_8
REMARK    5  A    between atoms: C_8  and  C_10
REMARK    6  A    between atoms: C_15  and  O_16
REMARK                            x       y       z     vdW  Elec       q    Type
REMARK                         _______ _______ _______ _____ _____    ______ ____
ROOT
ATOM      1  C   UNL     1       5.697   4.660  18.100  0.00  0.00    +0.000 A 
ATOM      2  C   UNL     1       4.993   4.941  19.214  0.00  0.00    +0.000 A 
ATOM      3  C   UNL     1       3.638   4.413  19.339  0.00  0.00    +0.000 A 
ATOM      4  C   UNL     1       2.693   4.901  20.240  0.00  0.00    +0.000 A 
ATOM      5  C   UNL     1       1.433   4.293  20.317  0.00  0.00    +0.000 A 
ATOM      6  C   UNL     1       1.145   3.180  19.526  0.00  0.00    +0.000 A 
ATOM      7  C   UNL     1       2.077   2.682  18.627  0.00  0.00    +0.000 A 
ATOM      8  C   UNL     1       3.298   3.334  18.517  0.00  0.00    +0.000 A 
ATOM      9  O   UNL     1       4.163   2.921  17.501  0.00  0.00    +0.000 OA
ATOM     10  C   UNL     1       4.931   3.977  17.038  0.00  0.00    +0.000 A 
ATOM     11  O   UNL     1       5.029   4.246  15.853  0.00  0.00    +0.000 OA
ENDROOT
BRANCH   1  12
ATOM     12  C   UNL     1       7.098   5.160  17.996  0.00  0.00    +0.000 C 
ATOM     13  O   UNL     1       8.013   4.343  17.857  0.00  0.00    +0.000 OA
BRANCH  12  17
ATOM     14  C   UNL     1       8.243   9.344  18.158  0.00  0.00    +0.000 A 
ATOM     15  C   UNL     1       8.806   8.393  19.006  0.00  0.00    +0.000 A 
ATOM     16  C   UNL     1       8.417   7.049  18.927  0.00  0.00    +0.000 A 
ATOM     17  C   UNL     1       7.457   6.622  17.992  0.00  0.00    +0.000 A 
ATOM     18  C   UNL     1       6.935   7.585  17.124  0.00  0.00    +0.000 A 
ATOM     19  C   UNL     1       7.290   8.937  17.232  0.00  0.00    +0.000 A 
BRANCH  14  20
ATOM     20  O   UNL     1       8.698  10.621  18.318  0.00  0.00    +0.000 OA
BRANCH  20  22
ATOM     21  C   UNL     1      10.883  11.553  18.135  0.00  0.00    +0.000 C 
ATOM     22  C   UNL     1       9.933  10.770  19.020  0.00  0.00    +0.000 C 
ENDBRANCH  20  22
ENDBRANCH  14  20
ENDBRANCH  12  17
ENDBRANCH   1  12
BRANCH   6  23
ATOM     23  O   UNL     1      -0.063   2.555  19.585  0.00  0.00    +0.000 OA
ATOM     24  H   UNL     1      -0.562   2.748  18.774  0.00  0.00    +0.000 HD
ENDBRANCH   6  23
TORSDOF 5
ENDMDL
