MODEL 1
REMARK VINA RESULT:      -7.6      0.000      0.000
REMARK  Name = 
REMARK  12 active torsions:
REMARK  status: ('A' for Active; 'I' for Inactive)
REMARK    1  A    between atoms: C_1  and  C_2
REMARK    2  A    between atoms: C_2  and  C_3
REMARK    3  A    between atoms: C_3  and  C_4
REMARK    4  A    between atoms: C_11  and  C_12
REMARK    5  A    between atoms: C_11  and  N_25
REMARK    6  A    between atoms: C_12  and  C_13
REMARK    7  A    between atoms: C_17  and  C_18
REMARK    8  A    between atoms: C_20  and  C_21
REMARK    9  A    between atoms: N_25  and  C_26
REMARK   10  A    between atoms: C_26  and  C_27
REMARK   11  A    between atoms: C_27  and  C_28
REMARK   12  A    between atoms: C_28  and  N_29
REMARK                            x       y       z     vdW  Elec       q    Type
REMARK                         _______ _______ _______ _____ _____    ______ ____
ROOT
ATOM      1  C   UNL     1      -0.860  11.476  20.719  0.00  0.00    +0.000 C 
ATOM      2  O   UNL     1      -0.943  12.016  21.827  0.00  0.00    +0.000 OA
ATOM      3  N   UNL     1      -0.519  10.153  20.550  0.00  0.00    +0.000 N 
ATOM      4  C   UNL     1      -0.373   9.373  21.790  0.00  0.00    +0.000 C 
ATOM      5  C   UNL     1       1.068   9.020  21.618  0.00  0.00    +0.000 C 
ATOM      6  O   UNL     1       1.949   9.153  22.445  0.00  0.00    +0.000 OA
ATOM      7  C   UNL     1       1.247   8.694  20.189  0.00  0.00    +0.000 C 
ATOM      8  C   UNL     1       1.888   7.635  19.645  0.00  0.00    +0.000 C 
ATOM      9  C   UNL     1       0.323   9.662  19.525  0.00  0.00    +0.000 C 
ATOM     10  O   UNL     1       0.294   9.942  18.344  0.00  0.00    +0.000 OA
ENDROOT
BRANCH   8  11
ATOM     11  N   UNL     1       2.137   7.480  18.275  0.00  0.00    +0.000 N 
ATOM     12  H   UNL     1       1.289   7.293  17.740  0.00  0.00    +0.000 HD
BRANCH  11  13
ATOM     13  C   UNL     1       3.147   8.230  17.537  0.00  0.00    +0.000 C 
BRANCH  13  14
ATOM     14  C   UNL     1       4.498   7.556  17.764  0.00  0.00    +0.000 C 
BRANCH  14  15
ATOM     15  C   UNL     1       4.802   6.447  16.745  0.00  0.00    +0.000 C 
BRANCH  15  16
ATOM     16  N   UNL     1       6.162   6.571  16.187  0.00  0.00    +0.000 NA
ATOM     17  C   UNL     1       7.229   6.599  17.213  0.00  0.00    +0.000 C 
ATOM     18  C   UNL     1       7.499   5.236  17.868  0.00  0.00    +0.000 C 
ATOM     19  O   UNL     1       7.830   4.247  16.888  0.00  0.00    +0.000 OA
ATOM     20  C   UNL     1       6.783   4.127  15.917  0.00  0.00    +0.000 C 
ATOM     21  C   UNL     1       6.480   5.477  15.240  0.00  0.00    +0.000 C 
ENDBRANCH  15  16
ENDBRANCH  14  15
ENDBRANCH  13  14
ENDBRANCH  11  13
ENDBRANCH   8  11
BRANCH   1  22
ATOM     22  C   UNL     1      -1.096  12.314  19.480  0.00  0.00    +0.000 C 
BRANCH  22  24
ATOM     23  C   UNL     1      -2.446  11.655  17.503  0.00  0.00    +0.000 C 
ATOM     24  C   UNL     1      -2.503  12.069  18.958  0.00  0.00    +0.000 C 
ENDBRANCH  22  24
ENDBRANCH   1  22
BRANCH   8  25
ATOM     25  C   UNL     1       2.505   6.500  20.467  0.00  0.00    +0.000 C 
BRANCH  25  26
ATOM     26  C   UNL     1       2.349   5.005  19.979  0.00  0.00    +0.000 C 
ATOM     27  C   UNL     1       0.959   4.480  20.401  0.00  0.00    +0.000 C 
ATOM     28  C   UNL     1       0.852   2.962  20.235  0.00  0.00    +0.000 C 
ATOM     29  C   UNL     1       0.932   2.661  18.738  0.00  0.00    +0.000 C 
ATOM     30  C   UNL     1       2.278   3.175  18.166  0.00  0.00    +0.000 C 
ATOM     31  C   UNL     1       2.299   2.883  16.664  0.00  0.00    +0.000 C 
ATOM     32  C   UNL     1       3.406   2.392  18.886  0.00  0.00    +0.000 C 
ATOM     33  C   UNL     1       3.364   2.675  20.406  0.00  0.00    +0.000 C 
ATOM     34  C   UNL     1       4.497   1.928  21.125  0.00  0.00    +0.000 C 
ATOM     35  C   UNL     1       1.994   2.228  20.956  0.00  0.00    +0.000 C 
ATOM     36  C   UNL     1       3.516   4.193  20.622  0.00  0.00    +0.000 C 
ATOM     37  C   UNL     1       2.457   4.715  18.450  0.00  0.00    +0.000 C 
ENDBRANCH  25  26
ENDBRANCH   8  25
TORSDOF 9
ENDMDL
MODEL 2
REMARK VINA RESULT:      -7.4      0.893      1.457
REMARK  Name = 
REMARK  12 active torsions:
REMARK  status: ('A' for Active; 'I' for Inactive)
REMARK    1  A    between atoms: C_1  and  C_2
REMARK    2  A    between atoms: C_2  and  C_3
REMARK    3  A    between atoms: C_3  and  C_4
REMARK    4  A    between atoms: C_11  and  C_12
REMARK    5  A    between atoms: C_11  and  N_25
REMARK    6  A    between atoms: C_12  and  C_13
REMARK    7  A    between atoms: C_17  and  C_18
REMARK    8  A    between atoms: C_20  and  C_21
REMARK    9  A    between atoms: N_25  and  C_26
REMARK   10  A    between atoms: C_26  and  C_27
REMARK   11  A    between atoms: C_27  and  C_28
REMARK   12  A    between atoms: C_28  and  N_29
REMARK                            x       y       z     vdW  Elec       q    Type
REMARK                         _______ _______ _______ _____ _____    ______ ____
ROOT
ATOM      1  C   UNL     1      -1.157  11.443  21.164  0.00  0.00    +0.000 C 
ATOM      2  O   UNL     1      -1.205  11.931  22.297  0.00  0.00    +0.000 OA
ATOM      3  N   UNL     1      -0.700  10.169  20.912  0.00  0.00    +0.000 N 
ATOM      4  C   UNL     1      -0.380   9.364  22.103  0.00  0.00    +0.000 C 
ATOM      5  C   UNL     1       1.071   9.166  21.809  0.00  0.00    +0.000 C 
ATOM      6  O   UNL     1       1.996   9.360  22.572  0.00  0.00    +0.000 OA
ATOM      7  C   UNL     1       1.167   8.912  20.358  0.00  0.00    +0.000 C 
ATOM      8  C   UNL     1       1.865   7.944  19.722  0.00  0.00    +0.000 C 
ATOM      9  C   UNL     1       0.103   9.804  19.807  0.00  0.00    +0.000 C 
ATOM     10  O   UNL     1      -0.047  10.121  18.645  0.00  0.00    +0.000 OA
ENDROOT
BRANCH   8  11
ATOM     11  N   UNL     1       2.019   7.864  18.331  0.00  0.00    +0.000 N 
ATOM     12  H   UNL     1       1.133   7.943  17.832  0.00  0.00    +0.000 HD
BRANCH  11  13
ATOM     13  C   UNL     1       3.158   8.411  17.601  0.00  0.00    +0.000 C 
BRANCH  13  14
ATOM     14  C   UNL     1       3.863   7.258  16.890  0.00  0.00    +0.000 C 
BRANCH  14  15
ATOM     15  C   UNL     1       5.081   6.724  17.660  0.00  0.00    +0.000 C 
BRANCH  15  16
ATOM     16  N   UNL     1       6.321   6.828  16.867  0.00  0.00    +0.000 NA
ATOM     17  C   UNL     1       7.551   6.537  17.639  0.00  0.00    +0.000 C 
ATOM     18  C   UNL     1       7.746   5.047  17.959  0.00  0.00    +0.000 C 
ATOM     19  O   UNL     1       7.755   4.258  16.765  0.00  0.00    +0.000 OA
ATOM     20  C   UNL     1       6.542   4.447  16.025  0.00  0.00    +0.000 C 
ATOM     21  C   UNL     1       6.309   5.932  15.688  0.00  0.00    +0.000 C 
ENDBRANCH  15  16
ENDBRANCH  14  15
ENDBRANCH  13  14
ENDBRANCH  11  13
ENDBRANCH   8  11
BRANCH   1  22
ATOM     22  C   UNL     1      -1.572  12.296  19.984  0.00  0.00    +0.000 C 
BRANCH  22  24
ATOM     23  C   UNL     1       0.480  13.592  19.465  0.00  0.00    +0.000 C 
ATOM     24  C   UNL     1      -0.903  13.658  20.077  0.00  0.00    +0.000 C 
ENDBRANCH  22  24
ENDBRANCH   1  22
BRANCH   8  25
ATOM     25  C   UNL     1       2.655   6.849  20.444  0.00  0.00    +0.000 C 
BRANCH  25  26
ATOM     26  C   UNL     1       2.529   5.348  19.969  0.00  0.00    +0.000 C 
ATOM     27  C   UNL     1       1.507   5.270  18.813  0.00  0.00    +0.000 C 
ATOM     28  C   UNL     1       1.107   3.825  18.506  0.00  0.00    +0.000 C 
ATOM     29  C   UNL     1       2.348   3.114  17.963  0.00  0.00    +0.000 C 
ATOM     30  C   UNL     1       3.481   3.150  19.019  0.00  0.00    +0.000 C 
ATOM     31  C   UNL     1       4.710   2.460  18.421  0.00  0.00    +0.000 C 
ATOM     32  C   UNL     1       2.973   2.372  20.259  0.00  0.00    +0.000 C 
ATOM     33  C   UNL     1       1.719   3.063  20.844  0.00  0.00    +0.000 C 
ATOM     34  C   UNL     1       1.225   2.318  22.092  0.00  0.00    +0.000 C 
ATOM     35  C   UNL     1       0.618   3.090  19.764  0.00  0.00    +0.000 C 
ATOM     36  C   UNL     1       2.091   4.513  21.212  0.00  0.00    +0.000 C 
ATOM     37  C   UNL     1       3.810   4.633  19.440  0.00  0.00    +0.000 C 
ENDBRANCH  25  26
ENDBRANCH   8  25
TORSDOF 9
ENDMDL
MODEL 3
REMARK VINA RESULT:      -7.3      2.119      4.932
REMARK  Name = 
REMARK  12 active torsions:
REMARK  status: ('A' for Active; 'I' for Inactive)
REMARK    1  A    between atoms: C_1  and  C_2
REMARK    2  A    between atoms: C_2  and  C_3
REMARK    3  A    between atoms: C_3  and  C_4
REMARK    4  A    between atoms: C_11  and  C_12
REMARK    5  A    between atoms: C_11  and  N_25
REMARK    6  A    between atoms: C_12  and  C_13
REMARK    7  A    between atoms: C_17  and  C_18
REMARK    8  A    between atoms: C_20  and  C_21
REMARK    9  A    between atoms: N_25  and  C_26
REMARK   10  A    between atoms: C_26  and  C_27
REMARK   11  A    between atoms: C_27  and  C_28
REMARK   12  A    between atoms: C_28  and  N_29
REMARK                            x       y       z     vdW  Elec       q    Type
REMARK                         _______ _______ _______ _____ _____    ______ ____
ROOT
ATOM      1  C   UNL     1       0.576  11.110  20.235  0.00  0.00    +0.000 C 
ATOM      2  O   UNL     1      -0.030  11.864  19.468  0.00  0.00    +0.000 OA
ATOM      3  N   UNL     1       1.539  10.222  19.812  0.00  0.00    +0.000 N 
ATOM      4  C   UNL     1       1.899  10.309  18.387  0.00  0.00    +0.000 C 
ATOM      5  C   UNL     1       1.483   8.926  18.006  0.00  0.00    +0.000 C 
ATOM      6  O   UNL     1       0.771   8.616  17.071  0.00  0.00    +0.000 OA
ATOM      7  C   UNL     1       1.917   8.045  19.109  0.00  0.00    +0.000 C 
ATOM      8  C   UNL     1       2.572   6.865  19.030  0.00  0.00    +0.000 C 
ATOM      9  C   UNL     1       1.699   8.907  20.309  0.00  0.00    +0.000 C 
ATOM     10  O   UNL     1       1.689   8.548  21.468  0.00  0.00    +0.000 OA
ENDROOT
BRANCH   8  11
ATOM     11  N   UNL     1       2.816   6.022  20.122  0.00  0.00    +0.000 N 
ATOM     12  H   UNL     1       3.643   6.296  20.654  0.00  0.00    +0.000 HD
BRANCH  11  13
ATOM     13  C   UNL     1       1.770   5.409  20.934  0.00  0.00    +0.000 C 
BRANCH  13  14
ATOM     14  C   UNL     1       2.293   4.070  21.449  0.00  0.00    +0.000 C 
BRANCH  14  15
ATOM     15  C   UNL     1       3.266   3.384  20.478  0.00  0.00    +0.000 C 
BRANCH  15  16
ATOM     16  N   UNL     1       2.681   2.169  19.881  0.00  0.00    +0.000 NA
ATOM     17  C   UNL     1       1.307   2.358  19.362  0.00  0.00    +0.000 C 
ATOM     18  C   UNL     1       1.241   3.168  18.058  0.00  0.00    +0.000 C 
ATOM     19  O   UNL     1       2.040   2.567  17.034  0.00  0.00    +0.000 OA
ATOM     20  C   UNL     1       3.401   2.439  17.465  0.00  0.00    +0.000 C 
ATOM     21  C   UNL     1       3.508   1.635  18.775  0.00  0.00    +0.000 C 
ENDBRANCH  15  16
ENDBRANCH  14  15
ENDBRANCH  13  14
ENDBRANCH  11  13
ENDBRANCH   8  11
BRANCH   1  22
ATOM     22  C   UNL     1       0.215  11.120  21.706  0.00  0.00    +0.000 C 
BRANCH  22  24
ATOM     23  C   UNL     1      -1.953  12.160  22.322  0.00  0.00    +0.000 C 
ATOM     24  C   UNL     1      -0.488  12.423  22.050  0.00  0.00    +0.000 C 
ENDBRANCH  22  24
ENDBRANCH   1  22
BRANCH   8  25
ATOM     25  C   UNL     1       3.060   6.248  17.716  0.00  0.00    +0.000 C 
BRANCH  25  26
ATOM     26  C   UNL     1       4.605   6.012  17.488  0.00  0.00    +0.000 C 
ATOM     27  C   UNL     1       5.129   5.029  18.560  0.00  0.00    +0.000 C 
ATOM     28  C   UNL     1       6.658   4.988  18.592  0.00  0.00    +0.000 C 
ATOM     29  C   UNL     1       7.126   4.387  17.267  0.00  0.00    +0.000 C 
ATOM     30  C   UNL     1       6.634   5.261  16.086  0.00  0.00    +0.000 C 
ATOM     31  C   UNL     1       7.095   4.605  14.783  0.00  0.00    +0.000 C 
ATOM     32  C   UNL     1       7.287   6.657  16.251  0.00  0.00    +0.000 C 
ATOM     33  C   UNL     1       6.834   7.305  17.580  0.00  0.00    +0.000 C 
ATOM     34  C   UNL     1       7.451   8.702  17.739  0.00  0.00    +0.000 C 
ATOM     35  C   UNL     1       7.263   6.393  18.747  0.00  0.00    +0.000 C 
ATOM     36  C   UNL     1       5.296   7.408  17.569  0.00  0.00    +0.000 C 
ATOM     37  C   UNL     1       5.065   5.419  16.121  0.00  0.00    +0.000 C 
ENDBRANCH  25  26
ENDBRANCH   8  25
TORSDOF 9
ENDMDL
MODEL 4
REMARK VINA RESULT:      -7.2      1.047      1.816
REMARK  Name = 
REMARK  12 active torsions:
REMARK  status: ('A' for Active; 'I' for Inactive)
REMARK    1  A    between atoms: C_1  and  C_2
REMARK    2  A    between atoms: C_2  and  C_3
REMARK    3  A    between atoms: C_3  and  C_4
REMARK    4  A    between atoms: C_11  and  C_12
REMARK    5  A    between atoms: C_11  and  N_25
REMARK    6  A    between atoms: C_12  and  C_13
REMARK    7  A    between atoms: C_17  and  C_18
REMARK    8  A    between atoms: C_20  and  C_21
REMARK    9  A    between atoms: N_25  and  C_26
REMARK   10  A    between atoms: C_26  and  C_27
REMARK   11  A    between atoms: C_27  and  C_28
REMARK   12  A    between atoms: C_28  and  N_29
REMARK                            x       y       z     vdW  Elec       q    Type
REMARK                         _______ _______ _______ _____ _____    ______ ____
ROOT
ATOM      1  C   UNL     1      -0.852  11.578  19.966  0.00  0.00    +0.000 C 
ATOM      2  O   UNL     1      -1.046  12.192  21.019  0.00  0.00    +0.000 OA
ATOM      3  N   UNL     1      -0.478  10.254  19.924  0.00  0.00    +0.000 N 
ATOM      4  C   UNL     1      -0.439   9.566  21.224  0.00  0.00    +0.000 C 
ATOM      5  C   UNL     1       1.016   9.231  21.214  0.00  0.00    +0.000 C 
ATOM      6  O   UNL     1       1.812   9.439  22.108  0.00  0.00    +0.000 OA
ATOM      7  C   UNL     1       1.334   8.810  19.835  0.00  0.00    +0.000 C 
ATOM      8  C   UNL     1       2.037   7.728  19.430  0.00  0.00    +0.000 C 
ATOM      9  C   UNL     1       0.464   9.710  19.019  0.00  0.00    +0.000 C 
ATOM     10  O   UNL     1       0.543   9.906  17.825  0.00  0.00    +0.000 OA
ENDROOT
BRANCH   8  11
ATOM     11  N   UNL     1       2.417   7.483  18.104  0.00  0.00    +0.000 N 
ATOM     12  H   UNL     1       1.619   7.328  17.489  0.00  0.00    +0.000 HD
BRANCH  11  13
ATOM     13  C   UNL     1       3.553   8.121  17.447  0.00  0.00    +0.000 C 
BRANCH  13  14
ATOM     14  C   UNL     1       4.674   7.090  17.332  0.00  0.00    +0.000 C 
BRANCH  14  15
ATOM     15  C   UNL     1       4.813   6.498  15.922  0.00  0.00    +0.000 C 
BRANCH  15  16
ATOM     16  N   UNL     1       5.056   5.043  15.957  0.00  0.00    +0.000 NA
ATOM     17  C   UNL     1       5.617   4.499  14.699  0.00  0.00    +0.000 C 
ATOM     18  C   UNL     1       7.094   4.855  14.472  0.00  0.00    +0.000 C 
ATOM     19  O   UNL     1       7.907   4.417  15.565  0.00  0.00    +0.000 OA
ATOM     20  C   UNL     1       7.448   4.987  16.797  0.00  0.00    +0.000 C 
ATOM     21  C   UNL     1       5.967   4.655  17.059  0.00  0.00    +0.000 C 
ENDBRANCH  15  16
ENDBRANCH  14  15
ENDBRANCH  13  14
ENDBRANCH  11  13
ENDBRANCH   8  11
BRANCH   1  22
ATOM     22  C   UNL     1      -0.981  12.323  18.653  0.00  0.00    +0.000 C 
BRANCH  22  24
ATOM     23  C   UNL     1       1.305  13.288  18.570  0.00  0.00    +0.000 C 
ATOM     24  C   UNL     1      -0.168  13.606  18.711  0.00  0.00    +0.000 C 
ENDBRANCH  22  24
ENDBRANCH   1  22
BRANCH   8  25
ATOM     25  C   UNL     1       2.590   6.666  20.385  0.00  0.00    +0.000 C 
BRANCH  25  26
ATOM     26  C   UNL     1       2.474   5.137  20.006  0.00  0.00    +0.000 C 
ATOM     27  C   UNL     1       1.495   4.983  18.821  0.00  0.00    +0.000 C 
ATOM     28  C   UNL     1       1.100   3.522  18.597  0.00  0.00    +0.000 C 
ATOM     29  C   UNL     1       2.357   2.774  18.149  0.00  0.00    +0.000 C 
ATOM     30  C   UNL     1       3.451   2.878  19.241  0.00  0.00    +0.000 C 
ATOM     31  C   UNL     1       4.697   2.146  18.737  0.00  0.00    +0.000 C 
ATOM     32  C   UNL     1       2.893   2.186  20.511  0.00  0.00    +0.000 C 
ATOM     33  C   UNL     1       1.622   2.917  21.002  0.00  0.00    +0.000 C 
ATOM     34  C   UNL     1       1.078   2.258  22.278  0.00  0.00    +0.000 C 
ATOM     35  C   UNL     1       0.562   2.874  19.882  0.00  0.00    +0.000 C 
ATOM     36  C   UNL     1       1.987   4.388  21.285  0.00  0.00    +0.000 C 
ATOM     37  C   UNL     1       3.771   4.386  19.574  0.00  0.00    +0.000 C 
ENDBRANCH  25  26
ENDBRANCH   8  25
TORSDOF 9
ENDMDL
MODEL 5
REMARK VINA RESULT:      -7.1      2.012      4.940
REMARK  Name = 
REMARK  12 active torsions:
REMARK  status: ('A' for Active; 'I' for Inactive)
REMARK    1  A    between atoms: C_1  and  C_2
REMARK    2  A    between atoms: C_2  and  C_3
REMARK    3  A    between atoms: C_3  and  C_4
REMARK    4  A    between atoms: C_11  and  C_12
REMARK    5  A    between atoms: C_11  and  N_25
REMARK    6  A    between atoms: C_12  and  C_13
REMARK    7  A    between atoms: C_17  and  C_18
REMARK    8  A    between atoms: C_20  and  C_21
REMARK    9  A    between atoms: N_25  and  C_26
REMARK   10  A    between atoms: C_26  and  C_27
REMARK   11  A    between atoms: C_27  and  C_28
REMARK   12  A    between atoms: C_28  and  N_29
REMARK                            x       y       z     vdW  Elec       q    Type
REMARK                         _______ _______ _______ _____ _____    ______ ____
ROOT
ATOM      1  C   UNL     1       0.432  11.818  19.912  0.00  0.00    +0.000 C 
ATOM      2  O   UNL     1      -0.175  12.481  19.065  0.00  0.00    +0.000 OA
ATOM      3  N   UNL     1       1.362  10.856  19.590  0.00  0.00    +0.000 N 
ATOM      4  C   UNL     1       1.687  10.744  18.159  0.00  0.00    +0.000 C 
ATOM      5  C   UNL     1       1.228   9.334  17.974  0.00  0.00    +0.000 C 
ATOM      6  O   UNL     1       0.485   8.924  17.105  0.00  0.00    +0.000 OA
ATOM      7  C   UNL     1       1.669   8.596  19.174  0.00  0.00    +0.000 C 
ATOM      8  C   UNL     1       2.293   7.398  19.239  0.00  0.00    +0.000 C 
ATOM      9  C   UNL     1       1.502   9.615  20.254  0.00  0.00    +0.000 C 
ATOM     10  O   UNL     1       1.513   9.412  21.450  0.00  0.00    +0.000 OA
ENDROOT
BRANCH   8  11
ATOM     11  N   UNL     1       2.544   6.700  20.428  0.00  0.00    +0.000 N 
ATOM     12  H   UNL     1       3.222   7.173  21.025  0.00  0.00    +0.000 HD
BRANCH  11  13
ATOM     13  C   UNL     1       1.535   5.946  21.163  0.00  0.00    +0.000 C 
BRANCH  13  14
ATOM     14  C   UNL     1       1.918   4.468  21.114  0.00  0.00    +0.000 C 
BRANCH  14  15
ATOM     15  C   UNL     1       1.116   3.667  20.077  0.00  0.00    +0.000 C 
BRANCH  15  16
ATOM     16  N   UNL     1       1.542   2.256  20.024  0.00  0.00    +0.000 NA
ATOM     17  C   UNL     1       1.440   1.651  18.676  0.00  0.00    +0.000 C 
ATOM     18  C   UNL     1       2.520   2.132  17.694  0.00  0.00    +0.000 C 
ATOM     19  O   UNL     1       3.833   1.889  18.209  0.00  0.00    +0.000 OA
ATOM     20  C   UNL     1       4.004   2.528  19.480  0.00  0.00    +0.000 C 
ATOM     21  C   UNL     1       2.935   2.074  20.492  0.00  0.00    +0.000 C 
ENDBRANCH  15  16
ENDBRANCH  14  15
ENDBRANCH  13  14
ENDBRANCH  11  13
ENDBRANCH   8  11
BRANCH   1  22
ATOM     22  C   UNL     1       0.109  12.033  21.376  0.00  0.00    +0.000 C 
BRANCH  22  24
ATOM     23  C   UNL     1      -1.674  12.747  22.949  0.00  0.00    +0.000 C 
ATOM     24  C   UNL     1      -1.220  12.760  21.505  0.00  0.00    +0.000 C 
ENDBRANCH  22  24
ENDBRANCH   1  22
BRANCH   8  25
ATOM     25  C   UNL     1       2.732   6.600  18.008  0.00  0.00    +0.000 C 
BRANCH  25  26
ATOM     26  C   UNL     1       4.265   6.297  17.778  0.00  0.00    +0.000 C 
ATOM     27  C   UNL     1       4.933   7.533  17.136  0.00  0.00    +0.000 C 
ATOM     28  C   UNL     1       6.333   7.212  16.609  0.00  0.00    +0.000 C 
ATOM     29  C   UNL     1       7.213   6.892  17.817  0.00  0.00    +0.000 C 
ATOM     30  C   UNL     1       6.633   5.678  18.587  0.00  0.00    +0.000 C 
ATOM     31  C   UNL     1       7.524   5.416  19.803  0.00  0.00    +0.000 C 
ATOM     32  C   UNL     1       6.667   4.468  17.619  0.00  0.00    +0.000 C 
ATOM     33  C   UNL     1       5.782   4.749  16.382  0.00  0.00    +0.000 C 
ATOM     34  C   UNL     1       5.784   3.543  15.431  0.00  0.00    +0.000 C 
ATOM     35  C   UNL     1       6.321   6.002  15.662  0.00  0.00    +0.000 C 
ATOM     36  C   UNL     1       4.347   5.033  16.867  0.00  0.00    +0.000 C 
ATOM     37  C   UNL     1       5.141   5.949  19.021  0.00  0.00    +0.000 C 
ENDBRANCH  25  26
ENDBRANCH   8  25
TORSDOF 9
ENDMDL
MODEL 6
REMARK VINA RESULT:      -7.0      3.887      9.095
REMARK  Name = 
REMARK  12 active torsions:
REMARK  status: ('A' for Active; 'I' for Inactive)
REMARK    1  A    between atoms: C_1  and  C_2
REMARK    2  A    between atoms: C_2  and  C_3
REMARK    3  A    between atoms: C_3  and  C_4
REMARK    4  A    between atoms: C_11  and  C_12
REMARK    5  A    between atoms: C_11  and  N_25
REMARK    6  A    between atoms: C_12  and  C_13
REMARK    7  A    between atoms: C_17  and  C_18
REMARK    8  A    between atoms: C_20  and  C_21
REMARK    9  A    between atoms: N_25  and  C_26
REMARK   10  A    between atoms: C_26  and  C_27
REMARK   11  A    between atoms: C_27  and  C_28
REMARK   12  A    between atoms: C_28  and  N_29
REMARK                            x       y       z     vdW  Elec       q    Type
REMARK                         _______ _______ _______ _____ _____    ______ ____
ROOT
ATOM      1  C   UNL     1       1.832   7.035  19.978  0.00  0.00    +0.000 C 
ATOM      2  O   UNL     1       1.662   6.105  20.773  0.00  0.00    +0.000 OA
ATOM      3  N   UNL     1       1.793   8.360  20.348  0.00  0.00    +0.000 N 
ATOM      4  C   UNL     1       1.655   8.609  21.792  0.00  0.00    +0.000 C 
ATOM      5  C   UNL     1       0.350   9.334  21.732  0.00  0.00    +0.000 C 
ATOM      6  O   UNL     1      -0.636   9.105  22.404  0.00  0.00    +0.000 OA
ATOM      7  C   UNL     1       0.424  10.219  20.553  0.00  0.00    +0.000 C 
ATOM      8  C   UNL     1       0.087  11.527  20.465  0.00  0.00    +0.000 C 
ATOM      9  C   UNL     1       1.205   9.395  19.583  0.00  0.00    +0.000 C 
ATOM     10  O   UNL     1       1.326   9.595  18.393  0.00  0.00    +0.000 OA
ENDROOT
BRANCH   8  11
ATOM     11  N   UNL     1       0.050  12.254  19.268  0.00  0.00    +0.000 N 
ATOM     12  H   UNL     1      -0.862  12.214  18.812  0.00  0.00    +0.000 HD
BRANCH  11  13
ATOM     13  C   UNL     1       0.765  13.507  19.049  0.00  0.00    +0.000 C 
BRANCH  13  14
ATOM     14  C   UNL     1       2.255  13.189  18.938  0.00  0.00    +0.000 C 
BRANCH  14  15
ATOM     15  C   UNL     1       3.132  14.071  19.839  0.00  0.00    +0.000 C 
BRANCH  15  16
ATOM     16  N   UNL     1       3.453  15.361  19.200  0.00  0.00    +0.000 NA
ATOM     17  C   UNL     1       4.383  16.204  19.987  0.00  0.00    +0.000 C 
ATOM     18  C   UNL     1       5.837  15.706  19.974  0.00  0.00    +0.000 C 
ATOM     19  O   UNL     1       6.335  15.599  18.637  0.00  0.00    +0.000 OA
ATOM     20  C   UNL     1       5.509  14.724  17.859  0.00  0.00    +0.000 C 
ATOM     21  C   UNL     1       4.040  15.188  17.851  0.00  0.00    +0.000 C 
ENDBRANCH  15  16
ENDBRANCH  14  15
ENDBRANCH  13  14
ENDBRANCH  11  13
ENDBRANCH   8  11
BRANCH   1  22
ATOM     22  C   UNL     1       2.046   6.712  18.513  0.00  0.00    +0.000 C 
BRANCH  22  24
ATOM     23  C   UNL     1       1.590   4.424  17.666  0.00  0.00    +0.000 C 
ATOM     24  C   UNL     1       2.598   5.302  18.376  0.00  0.00    +0.000 C 
ENDBRANCH  22  24
ENDBRANCH   1  22
BRANCH   8  25
ATOM     25  C   UNL     1      -0.383  12.367  21.655  0.00  0.00    +0.000 C 
BRANCH  25  26
ATOM     26  C   UNL     1      -1.868  12.904  21.697  0.00  0.00    +0.000 C 
ATOM     27  C   UNL     1      -1.847  14.448  21.661  0.00  0.00    +0.000 C 
ATOM     28  C   UNL     1      -3.215  15.042  22.002  0.00  0.00    +0.000 C 
ATOM     29  C   UNL     1      -4.175  14.651  20.877  0.00  0.00    +0.000 C 
ATOM     30  C   UNL     1      -4.265  13.107  20.774  0.00  0.00    +0.000 C 
ATOM     31  C   UNL     1      -5.207  12.763  19.618  0.00  0.00    +0.000 C 
ATOM     32  C   UNL     1      -4.845  12.594  22.117  0.00  0.00    +0.000 C 
ATOM     33  C   UNL     1      -3.900  12.966  23.282  0.00  0.00    +0.000 C 
ATOM     34  C   UNL     1      -4.450  12.435  24.614  0.00  0.00    +0.000 C 
ATOM     35  C   UNL     1      -3.755  14.500  23.334  0.00  0.00    +0.000 C 
ATOM     36  C   UNL     1      -2.517  12.345  23.001  0.00  0.00    +0.000 C 
ATOM     37  C   UNL     1      -2.838  12.474  20.554  0.00  0.00    +0.000 C 
ENDBRANCH  25  26
ENDBRANCH   8  25
TORSDOF 9
ENDMDL
MODEL 7
REMARK VINA RESULT:      -6.9      3.580      9.896
REMARK  Name = 
REMARK  12 active torsions:
REMARK  status: ('A' for Active; 'I' for Inactive)
REMARK    1  A    between atoms: C_1  and  C_2
REMARK    2  A    between atoms: C_2  and  C_3
REMARK    3  A    between atoms: C_3  and  C_4
REMARK    4  A    between atoms: C_11  and  C_12
REMARK    5  A    between atoms: C_11  and  N_25
REMARK    6  A    between atoms: C_12  and  C_13
REMARK    7  A    between atoms: C_17  and  C_18
REMARK    8  A    between atoms: C_20  and  C_21
REMARK    9  A    between atoms: N_25  and  C_26
REMARK   10  A    between atoms: C_26  and  C_27
REMARK   11  A    between atoms: C_27  and  C_28
REMARK   12  A    between atoms: C_28  and  N_29
REMARK                            x       y       z     vdW  Elec       q    Type
REMARK                         _______ _______ _______ _____ _____    ______ ____
ROOT
ATOM      1  C   UNL     1       1.816   6.926  20.079  0.00  0.00    +0.000 C 
ATOM      2  O   UNL     1       1.612   6.004  20.875  0.00  0.00    +0.000 OA
ATOM      3  N   UNL     1       1.808   8.253  20.445  0.00  0.00    +0.000 N 
ATOM      4  C   UNL     1       1.661   8.510  21.887  0.00  0.00    +0.000 C 
ATOM      5  C   UNL     1       0.377   9.269  21.810  0.00  0.00    +0.000 C 
ATOM      6  O   UNL     1      -0.622   9.069  22.472  0.00  0.00    +0.000 OA
ATOM      7  C   UNL     1       0.487  10.149  20.630  0.00  0.00    +0.000 C 
ATOM      8  C   UNL     1       0.188  11.464  20.534  0.00  0.00    +0.000 C 
ATOM      9  C   UNL     1       1.257   9.300  19.671  0.00  0.00    +0.000 C 
ATOM     10  O   UNL     1       1.396   9.494  18.481  0.00  0.00    +0.000 OA
ENDROOT
BRANCH   8  11
ATOM     11  N   UNL     1       0.183  12.189  19.335  0.00  0.00    +0.000 N 
ATOM     12  H   UNL     1      -0.671  12.733  19.208  0.00  0.00    +0.000 HD
BRANCH  11  13
ATOM     13  C   UNL     1       1.367  12.803  18.745  0.00  0.00    +0.000 C 
BRANCH  13  14
ATOM     14  C   UNL     1       1.454  14.243  19.247  0.00  0.00    +0.000 C 
BRANCH  14  15
ATOM     15  C   UNL     1       0.242  15.099  18.847  0.00  0.00    +0.000 C 
BRANCH  15  16
ATOM     16  N   UNL     1       0.297  16.444  19.450  0.00  0.00    +0.000 NA
ATOM     17  C   UNL     1       1.520  17.205  19.105  0.00  0.00    +0.000 C 
ATOM     18  C   UNL     1       1.542  17.728  17.661  0.00  0.00    +0.000 C 
ATOM     19  O   UNL     1       0.400  18.546  17.389  0.00  0.00    +0.000 OA
ATOM     20  C   UNL     1      -0.811  17.820  17.630  0.00  0.00    +0.000 C 
ATOM     21  C   UNL     1      -0.868  17.276  19.070  0.00  0.00    +0.000 C 
ENDBRANCH  15  16
ENDBRANCH  14  15
ENDBRANCH  13  14
ENDBRANCH  11  13
ENDBRANCH   8  11
BRANCH   1  22
ATOM     22  C   UNL     1       2.037   6.593  18.618  0.00  0.00    +0.000 C 
BRANCH  22  24
ATOM     23  C   UNL     1       1.626   4.318  17.714  0.00  0.00    +0.000 C 
ATOM     24  C   UNL     1       2.593   5.183  18.493  0.00  0.00    +0.000 C 
ENDBRANCH  22  24
ENDBRANCH   1  22
BRANCH   8  25
ATOM     25  C   UNL     1      -0.273  12.321  21.718  0.00  0.00    +0.000 C 
BRANCH  25  26
ATOM     26  C   UNL     1      -1.751  12.877  21.754  0.00  0.00    +0.000 C 
ATOM     27  C   UNL     1      -1.710  14.421  21.715  0.00  0.00    +0.000 C 
ATOM     28  C   UNL     1      -3.071  15.033  22.050  0.00  0.00    +0.000 C 
ATOM     29  C   UNL     1      -4.032  14.652  20.923  0.00  0.00    +0.000 C 
ATOM     30  C   UNL     1      -4.143  13.110  20.822  0.00  0.00    +0.000 C 
ATOM     31  C   UNL     1      -5.085  12.776  19.663  0.00  0.00    +0.000 C 
ATOM     32  C   UNL     1      -4.734  12.606  22.163  0.00  0.00    +0.000 C 
ATOM     33  C   UNL     1      -3.787  12.967  23.332  0.00  0.00    +0.000 C 
ATOM     34  C   UNL     1      -4.348  12.445  24.662  0.00  0.00    +0.000 C 
ATOM     35  C   UNL     1      -3.623  14.500  23.382  0.00  0.00    +0.000 C 
ATOM     36  C   UNL     1      -2.411  12.328  23.056  0.00  0.00    +0.000 C 
ATOM     37  C   UNL     1      -2.723  12.458  20.607  0.00  0.00    +0.000 C 
ENDBRANCH  25  26
ENDBRANCH   8  25
TORSDOF 9
ENDMDL
MODEL 8
REMARK VINA RESULT:      -6.9      3.596      7.788
REMARK  Name = 
REMARK  12 active torsions:
REMARK  status: ('A' for Active; 'I' for Inactive)
REMARK    1  A    between atoms: C_1  and  C_2
REMARK    2  A    between atoms: C_2  and  C_3
REMARK    3  A    between atoms: C_3  and  C_4
REMARK    4  A    between atoms: C_11  and  C_12
REMARK    5  A    between atoms: C_11  and  N_25
REMARK    6  A    between atoms: C_12  and  C_13
REMARK    7  A    between atoms: C_17  and  C_18
REMARK    8  A    between atoms: C_20  and  C_21
REMARK    9  A    between atoms: N_25  and  C_26
REMARK   10  A    between atoms: C_26  and  C_27
REMARK   11  A    between atoms: C_27  and  C_28
REMARK   12  A    between atoms: C_28  and  N_29
REMARK                            x       y       z     vdW  Elec       q    Type
REMARK                         _______ _______ _______ _____ _____    ______ ____
ROOT
ATOM      1  C   UNL     1      -3.563  10.861  16.992  0.00  0.00    +0.000 C 
ATOM      2  O   UNL     1      -4.398  11.761  16.861  0.00  0.00    +0.000 OA
ATOM      3  N   UNL     1      -2.664  10.814  18.033  0.00  0.00    +0.000 N 
ATOM      4  C   UNL     1      -2.835  11.850  19.065  0.00  0.00    +0.000 C 
ATOM      5  C   UNL     1      -1.504  12.505  18.893  0.00  0.00    +0.000 C 
ATOM      6  O   UNL     1      -1.296  13.694  18.752  0.00  0.00    +0.000 OA
ATOM      7  C   UNL     1      -0.528  11.414  18.706  0.00  0.00    +0.000 C 
ATOM      8  C   UNL     1       0.674  11.253  19.305  0.00  0.00    +0.000 C 
ATOM      9  C   UNL     1      -1.311  10.419  17.913  0.00  0.00    +0.000 C 
ATOM     10  O   UNL     1      -0.869   9.460  17.316  0.00  0.00    +0.000 OA
ENDROOT
BRANCH   8  11
ATOM     11  N   UNL     1       1.604  10.263  18.959  0.00  0.00    +0.000 N 
ATOM     12  H   UNL     1       2.535  10.642  18.788  0.00  0.00    +0.000 HD
BRANCH  11  13
ATOM     13  C   UNL     1       1.607   8.914  19.513  0.00  0.00    +0.000 C 
BRANCH  13  14
ATOM     14  C   UNL     1       2.315   7.995  18.519  0.00  0.00    +0.000 C 
BRANCH  14  15
ATOM     15  C   UNL     1       2.598   6.594  19.082  0.00  0.00    +0.000 C 
BRANCH  15  16
ATOM     16  N   UNL     1       2.775   5.597  18.010  0.00  0.00    +0.000 NA
ATOM     17  C   UNL     1       4.144   5.559  17.447  0.00  0.00    +0.000 C 
ATOM     18  C   UNL     1       5.182   4.911  18.377  0.00  0.00    +0.000 C 
ATOM     19  O   UNL     1       4.795   3.581  18.735  0.00  0.00    +0.000 OA
ATOM     20  C   UNL     1       3.506   3.579  19.361  0.00  0.00    +0.000 C 
ATOM     21  C   UNL     1       2.438   4.226  18.459  0.00  0.00    +0.000 C 
ENDBRANCH  15  16
ENDBRANCH  14  15
ENDBRANCH  13  14
ENDBRANCH  11  13
ENDBRANCH   8  11
BRANCH   1  22
ATOM     22  C   UNL     1      -3.485   9.779  15.935  0.00  0.00    +0.000 C 
BRANCH  22  24
ATOM     23  C   UNL     1      -3.909   9.921  13.494  0.00  0.00    +0.000 C 
ATOM     24  C   UNL     1      -3.011  10.380  14.622  0.00  0.00    +0.000 C 
ENDBRANCH  22  24
ENDBRANCH   1  22
BRANCH   8  25
ATOM     25  C   UNL     1       1.217  12.188  20.389  0.00  0.00    +0.000 C 
BRANCH  25  26
ATOM     26  C   UNL     1       1.894  13.554  19.978  0.00  0.00    +0.000 C 
ATOM     27  C   UNL     1       2.191  13.534  18.462  0.00  0.00    +0.000 C 
ATOM     28  C   UNL     1       3.112  14.684  18.048  0.00  0.00    +0.000 C 
ATOM     29  C   UNL     1       2.340  15.986  18.265  0.00  0.00    +0.000 C 
ATOM     30  C   UNL     1       1.941  16.122  19.756  0.00  0.00    +0.000 C 
ATOM     31  C   UNL     1       1.144  17.418  19.918  0.00  0.00    +0.000 C 
ATOM     32  C   UNL     1       3.255  16.187  20.575  0.00  0.00    +0.000 C 
ATOM     33  C   UNL     1       4.065  14.883  20.388  0.00  0.00    +0.000 C 
ATOM     34  C   UNL     1       5.355  14.924  21.220  0.00  0.00    +0.000 C 
ATOM     35  C   UNL     1       4.397  14.716  18.891  0.00  0.00    +0.000 C 
ATOM     36  C   UNL     1       3.187  13.698  20.838  0.00  0.00    +0.000 C 
ATOM     37  C   UNL     1       1.100  14.874  20.228  0.00  0.00    +0.000 C 
ENDBRANCH  25  26
ENDBRANCH   8  25
TORSDOF 9
ENDMDL
MODEL 9
REMARK VINA RESULT:      -6.9      3.819      7.975
REMARK  Name = 
REMARK  12 active torsions:
REMARK  status: ('A' for Active; 'I' for Inactive)
REMARK    1  A    between atoms: C_1  and  C_2
REMARK    2  A    between atoms: C_2  and  C_3
REMARK    3  A    between atoms: C_3  and  C_4
REMARK    4  A    between atoms: C_11  and  C_12
REMARK    5  A    between atoms: C_11  and  N_25
REMARK    6  A    between atoms: C_12  and  C_13
REMARK    7  A    between atoms: C_17  and  C_18
REMARK    8  A    between atoms: C_20  and  C_21
REMARK    9  A    between atoms: N_25  and  C_26
REMARK   10  A    between atoms: C_26  and  C_27
REMARK   11  A    between atoms: C_27  and  C_28
REMARK   12  A    between atoms: C_28  and  N_29
REMARK                            x       y       z     vdW  Elec       q    Type
REMARK                         _______ _______ _______ _____ _____    ______ ____
ROOT
ATOM      1  C   UNL     1      -4.743  12.472  19.171  0.00  0.00    +0.000 C 
ATOM      2  O   UNL     1      -5.375  13.376  19.727  0.00  0.00    +0.000 OA
ATOM      3  N   UNL     1      -3.486  12.078  19.569  0.00  0.00    +0.000 N 
ATOM      4  C   UNL     1      -2.978  12.723  20.791  0.00  0.00    +0.000 C 
ATOM      5  C   UNL     1      -1.789  13.382  20.172  0.00  0.00    +0.000 C 
ATOM      6  O   UNL     1      -1.470  14.549  20.283  0.00  0.00    +0.000 OA
ATOM      7  C   UNL     1      -1.215  12.400  19.231  0.00  0.00    +0.000 C 
ATOM      8  C   UNL     1       0.080  12.037  19.084  0.00  0.00    +0.000 C 
ATOM      9  C   UNL     1      -2.435  11.727  18.690  0.00  0.00    +0.000 C 
ATOM     10  O   UNL     1      -2.494  11.010  17.714  0.00  0.00    +0.000 OA
ENDROOT
BRANCH   8  11
ATOM     11  N   UNL     1       0.556  11.204  18.064  0.00  0.00    +0.000 N 
ATOM     12  H   UNL     1       1.309  11.633  17.525  0.00  0.00    +0.000 HD
BRANCH  11  13
ATOM     13  C   UNL     1       0.663   9.753  18.175  0.00  0.00    +0.000 C 
BRANCH  13  14
ATOM     14  C   UNL     1       2.137   9.375  18.038  0.00  0.00    +0.000 C 
BRANCH  14  15
ATOM     15  C   UNL     1       2.353   7.901  17.663  0.00  0.00    +0.000 C 
BRANCH  15  16
ATOM     16  N   UNL     1       3.300   7.235  18.577  0.00  0.00    +0.000 NA
ATOM     17  C   UNL     1       2.683   6.180  19.414  0.00  0.00    +0.000 C 
ATOM     18  C   UNL     1       2.344   4.894  18.645  0.00  0.00    +0.000 C 
ATOM     19  O   UNL     1       3.504   4.352  18.005  0.00  0.00    +0.000 OA
ATOM     20  C   UNL     1       4.088   5.315  17.119  0.00  0.00    +0.000 C 
ATOM     21  C   UNL     1       4.439   6.623  17.854  0.00  0.00    +0.000 C 
ENDBRANCH  15  16
ENDBRANCH  14  15
ENDBRANCH  13  14
ENDBRANCH  11  13
ENDBRANCH   8  11
BRANCH   1  22
ATOM     22  C   UNL     1      -5.352  11.793  17.962  0.00  0.00    +0.000 C 
BRANCH  22  24
ATOM     23  C   UNL     1      -6.792  10.150  19.141  0.00  0.00    +0.000 C 
ATOM     24  C   UNL     1      -6.785  11.388  18.270  0.00  0.00    +0.000 C 
ENDBRANCH  22  24
ENDBRANCH   1  22
BRANCH   8  25
ATOM     25  C   UNL     1       1.216  12.562  19.967  0.00  0.00    +0.000 C 
BRANCH  25  26
ATOM     26  C   UNL     1       2.060  13.811  19.497  0.00  0.00    +0.000 C 
ATOM     27  C   UNL     1       3.093  13.355  18.444  0.00  0.00    +0.000 C 
ATOM     28  C   UNL     1       4.139  14.438  18.169  0.00  0.00    +0.000 C 
ATOM     29  C   UNL     1       3.416  15.611  17.506  0.00  0.00    +0.000 C 
ATOM     30  C   UNL     1       2.311  16.152  18.448  0.00  0.00    +0.000 C 
ATOM     31  C   UNL     1       1.594  17.299  17.732  0.00  0.00    +0.000 C 
ATOM     32  C   UNL     1       3.017  16.669  19.727  0.00  0.00    +0.000 C 
ATOM     33  C   UNL     1       3.758  15.510  20.433  0.00  0.00    +0.000 C 
ATOM     34  C   UNL     1       4.436  16.005  21.719  0.00  0.00    +0.000 C 
ATOM     35  C   UNL     1       4.806  14.928  19.463  0.00  0.00    +0.000 C 
ATOM     36  C   UNL     1       2.729  14.412  20.771  0.00  0.00    +0.000 C 
ATOM     37  C   UNL     1       1.301  15.008  18.844  0.00  0.00    +0.000 C 
ENDBRANCH  25  26
ENDBRANCH   8  25
TORSDOF 9
ENDMDL
