MODEL 1
REMARK VINA RESULT:      -7.8      0.000      0.000
REMARK  Name = 
REMARK  6 active torsions:
REMARK  status: ('A' for Active; 'I' for Inactive)
REMARK    1  A    between atoms: C_1  and  C_2
REMARK    2  A    between atoms: C_2  and  C_3
REMARK    3  A    between atoms: C_3  and  N_4
REMARK    4  A    between atoms: N_13  and  C_14
REMARK    5  A    between atoms: C_17  and  C_18
REMARK    6  A    between atoms: C_20  and  C_21
REMARK                            x       y       z     vdW  Elec       q    Type
REMARK                         _______ _______ _______ _____ _____    ______ ____
ROOT
ATOM      1  C   UNL     1       2.200   3.998  18.005  0.00  0.00    +0.000 C 
ATOM      2  C   UNL     1       2.966   5.063  18.779  0.00  0.00    +0.000 C 
ATOM      3  O   UNL     1       3.375   6.099  17.882  0.00  0.00    +0.000 OA
ATOM      4  C   UNL     1       2.941   7.305  18.345  0.00  0.00    +0.000 C 
ATOM      5  O   UNL     1       3.323   8.343  17.826  0.00  0.00    +0.000 OA
ATOM      6  N   UNL     1       2.132   7.140  19.429  0.00  0.00    +0.000 N 
ATOM      7  C   UNL     1       2.052   5.804  19.723  0.00  0.00    +0.000 C 
ATOM      8  O   UNL     1       1.383   5.250  20.586  0.00  0.00    +0.000 OA
ENDROOT
BRANCH   6   9
ATOM      9  C   UNL     1       1.510   8.195  20.159  0.00  0.00    +0.000 A 
ATOM     10  C   UNL     1       1.539   8.231  21.559  0.00  0.00    +0.000 A 
ATOM     11  C   UNL     1       0.884   9.237  22.279  0.00  0.00    +0.000 A 
ATOM     12  C   UNL     1       0.162  10.240  21.623  0.00  0.00    +0.000 A 
ATOM     13  C   UNL     1       0.115  10.242  20.223  0.00  0.00    +0.000 A 
ATOM     14  C   UNL     1       0.812   9.228  19.513  0.00  0.00    +0.000 A 
BRANCH  13  15
ATOM     15  C   UNL     1      -0.661  11.255  19.412  0.00  0.00    +0.000 C 
ATOM     16  F   UNL     1      -1.951  11.430  19.787  0.00  0.00    +0.000 F 
ATOM     17  F   UNL     1      -0.087  12.488  19.453  0.00  0.00    +0.000 F 
ATOM     18  F   UNL     1      -0.705  10.909  18.095  0.00  0.00    +0.000 F 
ENDBRANCH  13  15
BRANCH  12  19
ATOM     19  C   UNL     1      -0.506  11.221  22.434  0.00  0.00    +0.000 C 
ATOM     20  N   UNL     1      -1.063  11.982  23.108  0.00  0.00    +0.000 NA
ENDBRANCH  12  19
ENDBRANCH   6   9
BRANCH   2  21
ATOM     21  C   UNL     1       4.163   4.541  19.580  0.00  0.00    +0.000 C 
BRANCH  21  22
ATOM     22  N   UNL     1       5.426   4.772  18.902  0.00  0.00    +0.000 N 
ATOM     23  C   UNL     1       5.775   4.336  17.656  0.00  0.00    +0.000 A 
ATOM     24  C   UNL     1       7.094   4.672  17.527  0.00  0.00    +0.000 A 
ATOM     25  F   UNL     1       7.865   4.407  16.514  0.00  0.00    +0.000 F 
ATOM     26  C   UNL     1       7.451   5.341  18.701  0.00  0.00    +0.000 A 
ATOM     27  N   UNL     1       6.415   5.430  19.545  0.00  0.00    +0.000 NA
ENDBRANCH  21  22
ENDBRANCH   2  21
TORSDOF 5
ENDMDL
MODEL 2
REMARK VINA RESULT:      -7.6      3.427      7.708
REMARK  Name = 
REMARK  6 active torsions:
REMARK  status: ('A' for Active; 'I' for Inactive)
REMARK    1  A    between atoms: C_1  and  C_2
REMARK    2  A    between atoms: C_2  and  C_3
REMARK    3  A    between atoms: C_3  and  N_4
REMARK    4  A    between atoms: N_13  and  C_14
REMARK    5  A    between atoms: C_17  and  C_18
REMARK    6  A    between atoms: C_20  and  C_21
REMARK                            x       y       z     vdW  Elec       q    Type
REMARK                         _______ _______ _______ _____ _____    ______ ____
ROOT
ATOM      1  C   UNL     1       1.261  11.181  20.598  0.00  0.00    +0.000 C 
ATOM      2  C   UNL     1       0.743   9.937  19.885  0.00  0.00    +0.000 C 
ATOM      3  O   UNL     1       1.261   9.905  18.552  0.00  0.00    +0.000 OA
ATOM      4  C   UNL     1       1.889   8.716  18.332  0.00  0.00    +0.000 C 
ATOM      5  O   UNL     1       2.255   8.406  17.208  0.00  0.00    +0.000 OA
ATOM      6  N   UNL     1       1.960   7.991  19.484  0.00  0.00    +0.000 N 
ATOM      7  C   UNL     1       1.337   8.686  20.485  0.00  0.00    +0.000 C 
ATOM      8  O   UNL     1       1.238   8.397  21.670  0.00  0.00    +0.000 OA
ENDROOT
BRANCH   6   9
ATOM      9  C   UNL     1       2.551   6.699  19.606  0.00  0.00    +0.000 A 
ATOM     10  C   UNL     1       3.894   6.475  19.277  0.00  0.00    +0.000 A 
ATOM     11  C   UNL     1       4.462   5.197  19.347  0.00  0.00    +0.000 A 
ATOM     12  C   UNL     1       3.700   4.090  19.736  0.00  0.00    +0.000 A 
ATOM     13  C   UNL     1       2.354   4.274  20.078  0.00  0.00    +0.000 A 
ATOM     14  C   UNL     1       1.808   5.584  20.029  0.00  0.00    +0.000 A 
BRANCH  13  15
ATOM     15  C   UNL     1       1.430   3.147  20.478  0.00  0.00    +0.000 C 
ATOM     16  F   UNL     1       1.616   2.663  21.730  0.00  0.00    +0.000 F 
ATOM     17  F   UNL     1       0.121   3.512  20.408  0.00  0.00    +0.000 F 
ATOM     18  F   UNL     1       1.563   2.076  19.647  0.00  0.00    +0.000 F 
ENDBRANCH  13  15
BRANCH  12  19
ATOM     19  C   UNL     1       4.348   2.807  19.754  0.00  0.00    +0.000 C 
ATOM     20  N   UNL     1       4.852   1.765  19.804  0.00  0.00    +0.000 NA
ENDBRANCH  12  19
ENDBRANCH   6   9
BRANCH   2  21
ATOM     21  C   UNL     1      -0.781   9.789  19.874  0.00  0.00    +0.000 C 
BRANCH  21  22
ATOM     22  N   UNL     1      -1.385  10.370  18.689  0.00  0.00    +0.000 N 
ATOM     23  C   UNL     1      -1.736   9.712  17.545  0.00  0.00    +0.000 A 
ATOM     24  C   UNL     1      -2.120  10.699  16.680  0.00  0.00    +0.000 A 
ATOM     25  F   UNL     1      -2.491  10.542  15.444  0.00  0.00    +0.000 F 
ATOM     26  C   UNL     1      -2.019  11.903  17.381  0.00  0.00    +0.000 A 
ATOM     27  N   UNL     1      -1.590  11.704  18.633  0.00  0.00    +0.000 NA
ENDBRANCH  21  22
ENDBRANCH   2  21
TORSDOF 5
ENDMDL
MODEL 3
REMARK VINA RESULT:      -7.6      2.666      3.965
REMARK  Name = 
REMARK  6 active torsions:
REMARK  status: ('A' for Active; 'I' for Inactive)
REMARK    1  A    between atoms: C_1  and  C_2
REMARK    2  A    between atoms: C_2  and  C_3
REMARK    3  A    between atoms: C_3  and  N_4
REMARK    4  A    between atoms: N_13  and  C_14
REMARK    5  A    between atoms: C_17  and  C_18
REMARK    6  A    between atoms: C_20  and  C_21
REMARK                            x       y       z     vdW  Elec       q    Type
REMARK                         _______ _______ _______ _____ _____    ______ ____
ROOT
ATOM      1  C   UNL     1       6.438   5.158  18.032  0.00  0.00    +0.000 C 
ATOM      2  C   UNL     1       4.927   4.969  18.029  0.00  0.00    +0.000 C 
ATOM      3  O   UNL     1       4.491   4.606  19.342  0.00  0.00    +0.000 OA
ATOM      4  C   UNL     1       3.516   5.464  19.757  0.00  0.00    +0.000 C 
ATOM      5  O   UNL     1       2.884   5.238  20.777  0.00  0.00    +0.000 OA
ATOM      6  N   UNL     1       3.362   6.482  18.864  0.00  0.00    +0.000 N 
ATOM      7  C   UNL     1       4.220   6.285  17.814  0.00  0.00    +0.000 C 
ATOM      8  O   UNL     1       4.419   7.004  16.844  0.00  0.00    +0.000 OA
ENDROOT
BRANCH   6   9
ATOM      9  C   UNL     1       2.426   7.550  18.989  0.00  0.00    +0.000 A 
ATOM     10  C   UNL     1       2.043   8.319  17.882  0.00  0.00    +0.000 A 
ATOM     11  C   UNL     1       1.164   9.402  18.013  0.00  0.00    +0.000 A 
ATOM     12  C   UNL     1       0.647   9.764  19.262  0.00  0.00    +0.000 A 
ATOM     13  C   UNL     1       1.002   9.015  20.390  0.00  0.00    +0.000 A 
ATOM     14  C   UNL     1       1.871   7.903  20.230  0.00  0.00    +0.000 A 
BRANCH  13  15
ATOM     15  C   UNL     1       0.531   9.337  21.791  0.00  0.00    +0.000 C 
ATOM     16  F   UNL     1       1.351   8.922  22.787  0.00  0.00    +0.000 F 
ATOM     17  F   UNL     1       0.361  10.674  21.977  0.00  0.00    +0.000 F 
ATOM     18  F   UNL     1      -0.679   8.768  22.051  0.00  0.00    +0.000 F 
ENDBRANCH  13  15
BRANCH  12  19
ATOM     19  C   UNL     1      -0.226  10.905  19.317  0.00  0.00    +0.000 C 
ATOM     20  N   UNL     1      -0.931  11.825  19.320  0.00  0.00    +0.000 NA
ENDBRANCH  12  19
ENDBRANCH   6   9
BRANCH   2  21
ATOM     21  C   UNL     1       4.404   3.968  16.994  0.00  0.00    +0.000 C 
BRANCH  21  22
ATOM     22  N   UNL     1       3.367   3.107  17.531  0.00  0.00    +0.000 N 
ATOM     23  C   UNL     1       2.022   3.347  17.524  0.00  0.00    +0.000 A 
ATOM     24  C   UNL     1       1.484   2.332  18.267  0.00  0.00    +0.000 A 
ATOM     25  F   UNL     1       0.230   2.179  18.573  0.00  0.00    +0.000 F 
ATOM     26  C   UNL     1       2.548   1.507  18.641  0.00  0.00    +0.000 A 
ATOM     27  N   UNL     1       3.712   1.966  18.166  0.00  0.00    +0.000 NA
ENDBRANCH  21  22
ENDBRANCH   2  21
TORSDOF 5
ENDMDL
MODEL 4
REMARK VINA RESULT:      -7.6      2.753      3.730
REMARK  Name = 
REMARK  6 active torsions:
REMARK  status: ('A' for Active; 'I' for Inactive)
REMARK    1  A    between atoms: C_1  and  C_2
REMARK    2  A    between atoms: C_2  and  C_3
REMARK    3  A    between atoms: C_3  and  N_4
REMARK    4  A    between atoms: N_13  and  C_14
REMARK    5  A    between atoms: C_17  and  C_18
REMARK    6  A    between atoms: C_20  and  C_21
REMARK                            x       y       z     vdW  Elec       q    Type
REMARK                         _______ _______ _______ _____ _____    ______ ____
ROOT
ATOM      1  C   UNL     1       4.153   3.397  15.929  0.00  0.00    +0.000 C 
ATOM      2  C   UNL     1       3.868   3.439  17.425  0.00  0.00    +0.000 C 
ATOM      3  O   UNL     1       5.000   3.984  18.109  0.00  0.00    +0.000 OA
ATOM      4  C   UNL     1       4.609   5.037  18.880  0.00  0.00    +0.000 C 
ATOM      5  O   UNL     1       5.383   5.542  19.679  0.00  0.00    +0.000 OA
ATOM      6  N   UNL     1       3.300   5.338  18.651  0.00  0.00    +0.000 N 
ATOM      7  C   UNL     1       2.793   4.450  17.739  0.00  0.00    +0.000 C 
ATOM      8  O   UNL     1       1.677   4.424  17.237  0.00  0.00    +0.000 OA
ENDROOT
BRANCH   6   9
ATOM      9  C   UNL     1       2.573   6.383  19.293  0.00  0.00    +0.000 A 
ATOM     10  C   UNL     1       1.992   6.201  20.555  0.00  0.00    +0.000 A 
ATOM     11  C   UNL     1       1.233   7.209  21.164  0.00  0.00    +0.000 A 
ATOM     12  C   UNL     1       1.015   8.434  20.523  0.00  0.00    +0.000 A 
ATOM     13  C   UNL     1       1.585   8.656  19.263  0.00  0.00    +0.000 A 
ATOM     14  C   UNL     1       2.375   7.631  18.678  0.00  0.00    +0.000 A 
BRANCH  13  15
ATOM     15  C   UNL     1       1.387   9.926  18.467  0.00  0.00    +0.000 C 
ATOM     16  F   UNL     1       1.591  11.076  19.153  0.00  0.00    +0.000 F 
ATOM     17  F   UNL     1       2.211   9.982  17.385  0.00  0.00    +0.000 F 
ATOM     18  F   UNL     1       0.120  10.011  17.974  0.00  0.00    +0.000 F 
ENDBRANCH  13  15
BRANCH  12  19
ATOM     19  C   UNL     1       0.201   9.406  21.202  0.00  0.00    +0.000 C 
ATOM     20  N   UNL     1      -0.477  10.158  21.763  0.00  0.00    +0.000 NA
ENDBRANCH  12  19
ENDBRANCH   6   9
BRANCH   2  21
ATOM     21  C   UNL     1       3.461   2.098  18.042  0.00  0.00    +0.000 C 
BRANCH  21  22
ATOM     22  N   UNL     1       2.977   2.238  19.403  0.00  0.00    +0.000 N 
ATOM     23  C   UNL     1       1.672   2.305  19.803  0.00  0.00    +0.000 A 
ATOM     24  C   UNL     1       1.732   2.582  21.141  0.00  0.00    +0.000 A 
ATOM     25  F   UNL     1       0.723   2.784  21.935  0.00  0.00    +0.000 F 
ATOM     26  C   UNL     1       3.088   2.620  21.478  0.00  0.00    +0.000 A 
ATOM     27  N   UNL     1       3.862   2.381  20.413  0.00  0.00    +0.000 NA
ENDBRANCH  21  22
ENDBRANCH   2  21
TORSDOF 5
ENDMDL
MODEL 5
REMARK VINA RESULT:      -7.5      2.958      4.080
REMARK  Name = 
REMARK  6 active torsions:
REMARK  status: ('A' for Active; 'I' for Inactive)
REMARK    1  A    between atoms: C_1  and  C_2
REMARK    2  A    between atoms: C_2  and  C_3
REMARK    3  A    between atoms: C_3  and  N_4
REMARK    4  A    between atoms: N_13  and  C_14
REMARK    5  A    between atoms: C_17  and  C_18
REMARK    6  A    between atoms: C_20  and  C_21
REMARK                            x       y       z     vdW  Elec       q    Type
REMARK                         _______ _______ _______ _____ _____    ______ ____
ROOT
ATOM      1  C   UNL     1       6.853   4.267  16.734  0.00  0.00    +0.000 C 
ATOM      2  C   UNL     1       5.533   4.912  16.332  0.00  0.00    +0.000 C 
ATOM      3  O   UNL     1       4.482   3.948  16.441  0.00  0.00    +0.000 OA
ATOM      4  C   UNL     1       3.488   4.440  17.234  0.00  0.00    +0.000 C 
ATOM      5  O   UNL     1       2.420   3.854  17.325  0.00  0.00    +0.000 OA
ATOM      6  N   UNL     1       3.864   5.624  17.795  0.00  0.00    +0.000 N 
ATOM      7  C   UNL     1       5.114   5.953  17.342  0.00  0.00    +0.000 C 
ATOM      8  O   UNL     1       5.814   6.907  17.654  0.00  0.00    +0.000 OA
ENDROOT
BRANCH   6   9
ATOM      9  C   UNL     1       3.061   6.407  18.674  0.00  0.00    +0.000 A 
ATOM     10  C   UNL     1       2.656   5.920  19.924  0.00  0.00    +0.000 A 
ATOM     11  C   UNL     1       1.824   6.668  20.767  0.00  0.00    +0.000 A 
ATOM     12  C   UNL     1       1.354   7.928  20.382  0.00  0.00    +0.000 A 
ATOM     13  C   UNL     1       1.741   8.452  19.143  0.00  0.00    +0.000 A 
ATOM     14  C   UNL     1       2.610   7.689  18.318  0.00  0.00    +0.000 A 
BRANCH  13  15
ATOM     15  C   UNL     1       1.267   9.786  18.612  0.00  0.00    +0.000 C 
ATOM     16  F   UNL     1       1.382  10.826  19.473  0.00  0.00    +0.000 F 
ATOM     17  F   UNL     1       1.939  10.155  17.487  0.00  0.00    +0.000 F 
ATOM     18  F   UNL     1      -0.049   9.743  18.262  0.00  0.00    +0.000 F 
ENDBRANCH  13  15
BRANCH  12  19
ATOM     19  C   UNL     1       0.480   8.620  21.291  0.00  0.00    +0.000 C 
ATOM     20  N   UNL     1      -0.235   9.142  22.038  0.00  0.00    +0.000 NA
ENDBRANCH  12  19
ENDBRANCH   6   9
BRANCH   2  21
ATOM     21  C   UNL     1       5.528   5.559  14.944  0.00  0.00    +0.000 C 
BRANCH  21  22
ATOM     22  N   UNL     1       5.839   4.611  13.890  0.00  0.00    +0.000 N 
ATOM     23  C   UNL     1       7.050   4.433  13.284  0.00  0.00    +0.000 A 
ATOM     24  C   UNL     1       6.804   3.548  12.271  0.00  0.00    +0.000 A 
ATOM     25  F   UNL     1       7.662   3.121  11.391  0.00  0.00    +0.000 F 
ATOM     26  C   UNL     1       5.452   3.206  12.360  0.00  0.00    +0.000 A 
ATOM     27  N   UNL     1       4.856   3.840  13.377  0.00  0.00    +0.000 NA
ENDBRANCH  21  22
ENDBRANCH   2  21
TORSDOF 5
ENDMDL
MODEL 6
REMARK VINA RESULT:      -7.4      3.009      4.050
REMARK  Name = 
REMARK  6 active torsions:
REMARK  status: ('A' for Active; 'I' for Inactive)
REMARK    1  A    between atoms: C_1  and  C_2
REMARK    2  A    between atoms: C_2  and  C_3
REMARK    3  A    between atoms: C_3  and  N_4
REMARK    4  A    between atoms: N_13  and  C_14
REMARK    5  A    between atoms: C_17  and  C_18
REMARK    6  A    between atoms: C_20  and  C_21
REMARK                            x       y       z     vdW  Elec       q    Type
REMARK                         _______ _______ _______ _____ _____    ______ ____
ROOT
ATOM      1  C   UNL     1       6.931   4.406  16.631  0.00  0.00    +0.000 C 
ATOM      2  C   UNL     1       5.597   5.040  16.260  0.00  0.00    +0.000 C 
ATOM      3  O   UNL     1       4.565   4.053  16.338  0.00  0.00    +0.000 OA
ATOM      4  C   UNL     1       3.566   4.495  17.153  0.00  0.00    +0.000 C 
ATOM      5  O   UNL     1       2.510   3.886  17.228  0.00  0.00    +0.000 OA
ATOM      6  N   UNL     1       3.923   5.664  17.756  0.00  0.00    +0.000 N 
ATOM      7  C   UNL     1       5.164   6.034  17.309  0.00  0.00    +0.000 C 
ATOM      8  O   UNL     1       5.847   6.989  17.654  0.00  0.00    +0.000 OA
ENDROOT
BRANCH   6   9
ATOM      9  C   UNL     1       3.110   6.399  18.668  0.00  0.00    +0.000 A 
ATOM     10  C   UNL     1       2.749   5.871  19.914  0.00  0.00    +0.000 A 
ATOM     11  C   UNL     1       1.908   6.569  20.790  0.00  0.00    +0.000 A 
ATOM     12  C   UNL     1       1.384   7.819  20.442  0.00  0.00    +0.000 A 
ATOM     13  C   UNL     1       1.727   8.383  19.207  0.00  0.00    +0.000 A 
ATOM     14  C   UNL     1       2.605   7.671  18.349  0.00  0.00    +0.000 A 
BRANCH  13  15
ATOM     15  C   UNL     1       1.193   9.710  18.715  0.00  0.00    +0.000 C 
ATOM     16  F   UNL     1      -0.147   9.759  18.522  0.00  0.00    +0.000 F 
ATOM     17  F   UNL     1       1.487  10.726  19.571  0.00  0.00    +0.000 F 
ATOM     18  F   UNL     1       1.749  10.057  17.521  0.00  0.00    +0.000 F 
ENDBRANCH  13  15
BRANCH  12  19
ATOM     19  C   UNL     1       0.505   8.459  21.383  0.00  0.00    +0.000 C 
ATOM     20  N   UNL     1      -0.200   8.942  22.165  0.00  0.00    +0.000 NA
ENDBRANCH  12  19
ENDBRANCH   6   9
BRANCH   2  21
ATOM     21  C   UNL     1       5.572   5.738  14.897  0.00  0.00    +0.000 C 
BRANCH  21  22
ATOM     22  N   UNL     1       5.995   4.863  13.819  0.00  0.00    +0.000 N 
ATOM     23  C   UNL     1       5.286   3.827  13.283  0.00  0.00    +0.000 A 
ATOM     24  C   UNL     1       6.153   3.225  12.414  0.00  0.00    +0.000 A 
ATOM     25  F   UNL     1       5.925   2.156  11.708  0.00  0.00    +0.000 F 
ATOM     26  C   UNL     1       7.332   3.974  12.446  0.00  0.00    +0.000 A 
ATOM     27  N   UNL     1       7.232   5.005  13.293  0.00  0.00    +0.000 NA
ENDBRANCH  21  22
ENDBRANCH   2  21
TORSDOF 5
ENDMDL
MODEL 7
REMARK VINA RESULT:      -7.4      0.806      1.230
REMARK  Name = 
REMARK  6 active torsions:
REMARK  status: ('A' for Active; 'I' for Inactive)
REMARK    1  A    between atoms: C_1  and  C_2
REMARK    2  A    between atoms: C_2  and  C_3
REMARK    3  A    between atoms: C_3  and  N_4
REMARK    4  A    between atoms: N_13  and  C_14
REMARK    5  A    between atoms: C_17  and  C_18
REMARK    6  A    between atoms: C_20  and  C_21
REMARK                            x       y       z     vdW  Elec       q    Type
REMARK                         _______ _______ _______ _____ _____    ______ ____
ROOT
ATOM      1  C   UNL     1       2.369   4.169  18.082  0.00  0.00    +0.000 C 
ATOM      2  C   UNL     1       3.095   5.365  18.686  0.00  0.00    +0.000 C 
ATOM      3  O   UNL     1       3.242   6.382  17.691  0.00  0.00    +0.000 OA
ATOM      4  C   UNL     1       2.728   7.556  18.154  0.00  0.00    +0.000 C 
ATOM      5  O   UNL     1       2.901   8.596  17.536  0.00  0.00    +0.000 OA
ATOM      6  N   UNL     1       2.104   7.367  19.350  0.00  0.00    +0.000 N 
ATOM      7  C   UNL     1       2.234   6.054  19.716  0.00  0.00    +0.000 C 
ATOM      8  O   UNL     1       1.766   5.482  20.692  0.00  0.00    +0.000 OA
ENDROOT
BRANCH   6   9
ATOM      9  C   UNL     1       1.462   8.387  20.112  0.00  0.00    +0.000 A 
ATOM     10  C   UNL     1       1.509   8.393  21.512  0.00  0.00    +0.000 A 
ATOM     11  C   UNL     1       0.835   9.364  22.264  0.00  0.00    +0.000 A 
ATOM     12  C   UNL     1       0.074  10.359  21.639  0.00  0.00    +0.000 A 
ATOM     13  C   UNL     1       0.008  10.389  20.241  0.00  0.00    +0.000 A 
ATOM     14  C   UNL     1       0.724   9.413  19.499  0.00  0.00    +0.000 A 
BRANCH  13  15
ATOM     15  C   UNL     1      -0.810  11.396  19.463  0.00  0.00    +0.000 C 
ATOM     16  F   UNL     1      -0.963  11.122  18.145  0.00  0.00    +0.000 F 
ATOM     17  F   UNL     1      -2.066  11.531  19.967  0.00  0.00    +0.000 F 
ATOM     18  F   UNL     1      -0.252  12.638  19.517  0.00  0.00    +0.000 F 
ENDBRANCH  13  15
BRANCH  12  19
ATOM     19  C   UNL     1      -0.611  11.301  22.481  0.00  0.00    +0.000 C 
ATOM     20  N   UNL     1      -1.181  12.030  23.179  0.00  0.00    +0.000 NA
ENDBRANCH  12  19
ENDBRANCH   6   9
BRANCH   2  21
ATOM     21  C   UNL     1       4.447   5.041  19.328  0.00  0.00    +0.000 C 
BRANCH  21  22
ATOM     22  N   UNL     1       5.559   5.275  18.425  0.00  0.00    +0.000 N 
ATOM     23  C   UNL     1       6.333   6.399  18.358  0.00  0.00    +0.000 A 
ATOM     24  C   UNL     1       7.136   6.203  17.269  0.00  0.00    +0.000 A 
ATOM     25  F   UNL     1       8.008   7.040  16.790  0.00  0.00    +0.000 F 
ATOM     26  C   UNL     1       6.824   4.936  16.768  0.00  0.00    +0.000 A 
ATOM     27  N   UNL     1       5.868   4.346  17.495  0.00  0.00    +0.000 NA
ENDBRANCH  21  22
ENDBRANCH   2  21
TORSDOF 5
ENDMDL
MODEL 8
REMARK VINA RESULT:      -7.2      2.160      3.036
REMARK  Name = 
REMARK  6 active torsions:
REMARK  status: ('A' for Active; 'I' for Inactive)
REMARK    1  A    between atoms: C_1  and  C_2
REMARK    2  A    between atoms: C_2  and  C_3
REMARK    3  A    between atoms: C_3  and  N_4
REMARK    4  A    between atoms: N_13  and  C_14
REMARK    5  A    between atoms: C_17  and  C_18
REMARK    6  A    between atoms: C_20  and  C_21
REMARK                            x       y       z     vdW  Elec       q    Type
REMARK                         _______ _______ _______ _____ _____    ______ ____
ROOT
ATOM      1  C   UNL     1       4.286   2.791  19.825  0.00  0.00    +0.000 C 
ATOM      2  C   UNL     1       4.100   3.732  18.641  0.00  0.00    +0.000 C 
ATOM      3  O   UNL     1       2.843   3.462  18.014  0.00  0.00    +0.000 OA
ATOM      4  C   UNL     1       2.114   4.610  17.934  0.00  0.00    +0.000 C 
ATOM      5  O   UNL     1       1.081   4.645  17.282  0.00  0.00    +0.000 OA
ATOM      6  N   UNL     1       2.737   5.621  18.602  0.00  0.00    +0.000 N 
ATOM      7  C   UNL     1       3.922   5.156  19.107  0.00  0.00    +0.000 C 
ATOM      8  O   UNL     1       4.735   5.740  19.810  0.00  0.00    +0.000 OA
ENDROOT
BRANCH   6   9
ATOM      9  C   UNL     1       2.247   6.956  18.715  0.00  0.00    +0.000 A 
ATOM     10  C   UNL     1       2.410   7.884  17.678  0.00  0.00    +0.000 A 
ATOM     11  C   UNL     1       1.977   9.209  17.807  0.00  0.00    +0.000 A 
ATOM     12  C   UNL     1       1.376   9.659  18.988  0.00  0.00    +0.000 A 
ATOM     13  C   UNL     1       1.190   8.759  20.045  0.00  0.00    +0.000 A 
ATOM     14  C   UNL     1       1.610   7.413  19.880  0.00  0.00    +0.000 A 
BRANCH  13  15
ATOM     15  C   UNL     1       0.585   9.144  21.377  0.00  0.00    +0.000 C 
ATOM     16  F   UNL     1       1.361   9.933  22.159  0.00  0.00    +0.000 F 
ATOM     17  F   UNL     1      -0.594   9.807  21.227  0.00  0.00    +0.000 F 
ATOM     18  F   UNL     1       0.301   8.045  22.130  0.00  0.00    +0.000 F 
ENDBRANCH  13  15
BRANCH  12  19
ATOM     19  C   UNL     1       0.985  11.041  19.053  0.00  0.00    +0.000 C 
ATOM     20  N   UNL     1       0.708  12.166  19.094  0.00  0.00    +0.000 NA
ENDBRANCH  12  19
ENDBRANCH   6   9
BRANCH   2  21
ATOM     21  C   UNL     1       5.233   3.702  17.611  0.00  0.00    +0.000 C 
BRANCH  21  22
ATOM     22  N   UNL     1       6.204   4.760  17.824  0.00  0.00    +0.000 N 
ATOM     23  C   UNL     1       6.291   5.938  17.138  0.00  0.00    +0.000 A 
ATOM     24  C   UNL     1       7.439   6.523  17.597  0.00  0.00    +0.000 A 
ATOM     25  F   UNL     1       7.953   7.645  17.187  0.00  0.00    +0.000 F 
ATOM     26  C   UNL     1       7.955   5.671  18.577  0.00  0.00    +0.000 A 
ATOM     27  N   UNL     1       7.181   4.591  18.742  0.00  0.00    +0.000 NA
ENDBRANCH  21  22
ENDBRANCH   2  21
TORSDOF 5
ENDMDL
MODEL 9
REMARK VINA RESULT:      -7.1      2.004      2.574
REMARK  Name = 
REMARK  6 active torsions:
REMARK  status: ('A' for Active; 'I' for Inactive)
REMARK    1  A    between atoms: C_1  and  C_2
REMARK    2  A    between atoms: C_2  and  C_3
REMARK    3  A    between atoms: C_3  and  N_4
REMARK    4  A    between atoms: N_13  and  C_14
REMARK    5  A    between atoms: C_17  and  C_18
REMARK    6  A    between atoms: C_20  and  C_21
REMARK                            x       y       z     vdW  Elec       q    Type
REMARK                         _______ _______ _______ _____ _____    ______ ____
ROOT
ATOM      1  C   UNL     1       2.931   3.322  17.249  0.00  0.00    +0.000 C 
ATOM      2  C   UNL     1       3.568   4.474  18.015  0.00  0.00    +0.000 C 
ATOM      3  O   UNL     1       4.190   5.372  17.091  0.00  0.00    +0.000 OA
ATOM      4  C   UNL     1       3.720   6.635  17.291  0.00  0.00    +0.000 C 
ATOM      5  O   UNL     1       4.240   7.586  16.727  0.00  0.00    +0.000 OA
ATOM      6  N   UNL     1       2.703   6.631  18.198  0.00  0.00    +0.000 N 
ATOM      7  C   UNL     1       2.512   5.350  18.645  0.00  0.00    +0.000 C 
ATOM      8  O   UNL     1       1.662   4.928  19.418  0.00  0.00    +0.000 OA
ENDROOT
BRANCH   6   9
ATOM      9  C   UNL     1       1.990   7.784  18.639  0.00  0.00    +0.000 A 
ATOM     10  C   UNL     1       1.653   8.817  17.754  0.00  0.00    +0.000 A 
ATOM     11  C   UNL     1       0.998   9.974  18.195  0.00  0.00    +0.000 A 
ATOM     12  C   UNL     1       0.669  10.146  19.544  0.00  0.00    +0.000 A 
ATOM     13  C   UNL     1       0.985   9.133  20.458  0.00  0.00    +0.000 A 
ATOM     14  C   UNL     1       1.621   7.955  19.983  0.00  0.00    +0.000 A 
BRANCH  13  15
ATOM     15  C   UNL     1       0.707   9.227  21.941  0.00  0.00    +0.000 C 
ATOM     16  F   UNL     1       1.629   8.638  22.741  0.00  0.00    +0.000 F 
ATOM     17  F   UNL     1       0.615  10.518  22.361  0.00  0.00    +0.000 F 
ATOM     18  F   UNL     1      -0.482   8.645  22.263  0.00  0.00    +0.000 F 
ENDBRANCH  13  15
BRANCH  12  19
ATOM     19  C   UNL     1       0.024  11.374  19.922  0.00  0.00    +0.000 C 
ATOM     20  N   UNL     1      -0.519  12.361  20.194  0.00  0.00    +0.000 NA
ENDBRANCH  12  19
ENDBRANCH   6   9
BRANCH   2  21
ATOM     21  C   UNL     1       4.557   4.054  19.106  0.00  0.00    +0.000 C 
BRANCH  21  22
ATOM     22  N   UNL     1       5.898   4.552  18.859  0.00  0.00    +0.000 N 
ATOM     23  C   UNL     1       6.500   5.613  19.473  0.00  0.00    +0.000 A 
ATOM     24  C   UNL     1       7.682   5.777  18.804  0.00  0.00    +0.000 A 
ATOM     25  F   UNL     1       8.568   6.706  19.014  0.00  0.00    +0.000 F 
ATOM     26  C   UNL     1       7.740   4.761  17.846  0.00  0.00    +0.000 A 
ATOM     27  N   UNL     1       6.651   3.984  17.893  0.00  0.00    +0.000 NA
ENDBRANCH  21  22
ENDBRANCH   2  21
TORSDOF 5
ENDMDL
