MODEL 1
REMARK VINA RESULT:      -8.2      0.000      0.000
REMARK  Name = 
REMARK  5 active torsions:
REMARK  status: ('A' for Active; 'I' for Inactive)
REMARK    1  A    between atoms: C_1  and  C_2
REMARK    2  A    between atoms: C_3  and  C_4
REMARK    3  A    between atoms: N_6  and  C_7
REMARK    4  A    between atoms: C_12  and  C_13
REMARK    5  A    between atoms: C_19  and  C_20
REMARK                            x       y       z     vdW  Elec       q    Type
REMARK                         _______ _______ _______ _____ _____    ______ ____
ROOT
ATOM      1  C   UNL     1       2.143   3.356  22.162  0.00  0.00    +0.000 C 
ATOM      2  C   UNL     1       2.906   3.484  20.862  0.00  0.00    +0.000 C 
ATOM      3  C   UNL     1       2.937   4.548  20.009  0.00  0.00    +0.000 C 
ATOM      4  C   UNL     1       3.908   4.483  18.805  0.00  0.00    +0.000 C 
ATOM      5  C   UNL     1       5.345   4.841  19.324  0.00  0.00    +0.000 C 
ATOM      6  C   UNL     1       6.044   5.564  18.183  0.00  0.00    +0.000 C 
ATOM      7  C   UNL     1       4.930   6.399  17.594  0.00  0.00    +0.000 C 
ATOM      8  C   UNL     1       3.742   5.440  17.580  0.00  0.00    +0.000 C 
ATOM      9  C   UNL     1       3.882   3.026  18.241  0.00  0.00    +0.000 C 
ATOM     10  C   UNL     1       4.144   2.027  19.341  0.00  0.00    +0.000 C 
ATOM     11  O   UNL     1       4.703   0.953  19.136  0.00  0.00    +0.000 OA
ATOM     12  N   UNL     1       3.628   2.342  20.567  0.00  0.00    +0.000 N 
ATOM     13  H   UNL     1       3.677   1.594  21.251  0.00  0.00    +0.000 HD
ENDROOT
BRANCH   9  14
ATOM     14  C   UNL     1       2.577   2.689  17.523  0.00  0.00    +0.000 C 
ATOM     15  N   UNL     1       1.871   1.642  18.039  0.00  0.00    +0.000 N 
ATOM     16  O   UNL     1       2.177   3.250  16.508  0.00  0.00    +0.000 OA
ATOM     17  H   UNL     1       2.066   1.256  18.957  0.00  0.00    +0.000 HD
ATOM     18  H   UNL     1       0.973   1.444  17.616  0.00  0.00    +0.000 HD
ENDBRANCH   9  14
BRANCH   3  19
ATOM     19  C   UNL     1       1.944   5.661  20.264  0.00  0.00    +0.000 C 
ATOM     20  O   UNL     1       0.751   5.384  20.385  0.00  0.00    +0.000 OA
ATOM     21  N   UNL     1       2.426   6.952  20.270  0.00  0.00    +0.000 N 
ATOM     22  H   UNL     1       3.374   7.108  19.979  0.00  0.00    +0.000 HD
BRANCH  21  23
ATOM     23  C   UNL     1       1.635   8.120  20.417  0.00  0.00    +0.000 A 
ATOM     24  C   UNL     1       1.097   8.465  21.668  0.00  0.00    +0.000 A 
ATOM     25  C   UNL     1       0.318   9.615  21.821  0.00  0.00    +0.000 A 
ATOM     26  C   UNL     1       0.066  10.437  20.732  0.00  0.00    +0.000 A 
ATOM     27  C   UNL     1       0.601  10.114  19.487  0.00  0.00    +0.000 A 
ATOM     28  C   UNL     1       1.390   8.961  19.315  0.00  0.00    +0.000 A 
ATOM     29  C   UNL     1       1.874   8.655  17.922  0.00  0.00    +0.000 C 
ENDBRANCH  21  23
ENDBRANCH   3  19
TORSDOF 3
ENDMDL
MODEL 2
REMARK VINA RESULT:      -7.5      8.277     11.712
REMARK  Name = 
REMARK  5 active torsions:
REMARK  status: ('A' for Active; 'I' for Inactive)
REMARK    1  A    between atoms: C_1  and  C_2
REMARK    2  A    between atoms: C_3  and  C_4
REMARK    3  A    between atoms: N_6  and  C_7
REMARK    4  A    between atoms: C_12  and  C_13
REMARK    5  A    between atoms: C_19  and  C_20
REMARK                            x       y       z     vdW  Elec       q    Type
REMARK                         _______ _______ _______ _____ _____    ______ ____
ROOT
ATOM      1  C   UNL     1      -6.414  14.859  19.761  0.00  0.00    +0.000 C 
ATOM      2  C   UNL     1      -5.510  14.547  20.934  0.00  0.00    +0.000 C 
ATOM      3  C   UNL     1      -4.567  13.568  21.029  0.00  0.00    +0.000 C 
ATOM      4  C   UNL     1      -3.673  13.542  22.293  0.00  0.00    +0.000 C 
ATOM      5  C   UNL     1      -2.551  14.623  22.113  0.00  0.00    +0.000 C 
ATOM      6  C   UNL     1      -1.316  14.079  22.817  0.00  0.00    +0.000 C 
ATOM      7  C   UNL     1      -1.379  12.604  22.493  0.00  0.00    +0.000 C 
ATOM      8  C   UNL     1      -2.856  12.266  22.679  0.00  0.00    +0.000 C 
ATOM      9  C   UNL     1      -4.569  13.889  23.525  0.00  0.00    +0.000 C 
ATOM     10  C   UNL     1      -5.321  15.175  23.287  0.00  0.00    +0.000 C 
ATOM     11  O   UNL     1      -5.629  15.936  24.201  0.00  0.00    +0.000 OA
ATOM     12  N   UNL     1      -5.732  15.396  22.003  0.00  0.00    +0.000 N 
ATOM     13  H   UNL     1      -6.366  16.182  21.891  0.00  0.00    +0.000 HD
ENDROOT
BRANCH   9  14
ATOM     14  C   UNL     1      -5.543  12.769  23.888  0.00  0.00    +0.000 C 
ATOM     15  N   UNL     1      -5.264  12.092  25.038  0.00  0.00    +0.000 N 
ATOM     16  O   UNL     1      -6.490  12.420  23.192  0.00  0.00    +0.000 OA
ATOM     17  H   UNL     1      -4.602  12.439  25.725  0.00  0.00    +0.000 HD
ATOM     18  H   UNL     1      -5.932  11.389  25.328  0.00  0.00    +0.000 HD
ENDBRANCH   9  14
BRANCH   3  19
ATOM     19  C   UNL     1      -4.541  12.530  19.928  0.00  0.00    +0.000 C 
ATOM     20  O   UNL     1      -5.415  11.663  19.901  0.00  0.00    +0.000 OA
ATOM     21  N   UNL     1      -3.483  12.566  19.046  0.00  0.00    +0.000 N 
ATOM     22  H   UNL     1      -2.718  13.184  19.245  0.00  0.00    +0.000 HD
BRANCH  21  23
ATOM     23  C   UNL     1      -3.256  11.632  18.002  0.00  0.00    +0.000 A 
ATOM     24  C   UNL     1      -4.116  11.578  16.893  0.00  0.00    +0.000 A 
ATOM     25  C   UNL     1      -3.897  10.663  15.860  0.00  0.00    +0.000 A 
ATOM     26  C   UNL     1      -2.819   9.790  15.918  0.00  0.00    +0.000 A 
ATOM     27  C   UNL     1      -1.951   9.839  17.006  0.00  0.00    +0.000 A 
ATOM     28  C   UNL     1      -2.154  10.757  18.054  0.00  0.00    +0.000 A 
ATOM     29  C   UNL     1      -1.204  10.696  19.221  0.00  0.00    +0.000 C 
ENDBRANCH  21  23
ENDBRANCH   3  19
TORSDOF 3
ENDMDL
MODEL 3
REMARK VINA RESULT:      -7.3      2.422      3.879
REMARK  Name = 
REMARK  5 active torsions:
REMARK  status: ('A' for Active; 'I' for Inactive)
REMARK    1  A    between atoms: C_1  and  C_2
REMARK    2  A    between atoms: C_3  and  C_4
REMARK    3  A    between atoms: N_6  and  C_7
REMARK    4  A    between atoms: C_12  and  C_13
REMARK    5  A    between atoms: C_19  and  C_20
REMARK                            x       y       z     vdW  Elec       q    Type
REMARK                         _______ _______ _______ _____ _____    ______ ____
ROOT
ATOM      1  C   UNL     1       4.243   7.258  15.836  0.00  0.00    +0.000 C 
ATOM      2  C   UNL     1       4.673   6.018  16.588  0.00  0.00    +0.000 C 
ATOM      3  C   UNL     1       4.007   5.369  17.585  0.00  0.00    +0.000 C 
ATOM      4  C   UNL     1       4.599   4.034  18.101  0.00  0.00    +0.000 C 
ATOM      5  C   UNL     1       4.204   2.906  17.086  0.00  0.00    +0.000 C 
ATOM      6  C   UNL     1       4.019   1.637  17.906  0.00  0.00    +0.000 C 
ATOM      7  C   UNL     1       3.365   2.156  19.166  0.00  0.00    +0.000 C 
ATOM      8  C   UNL     1       4.150   3.428  19.472  0.00  0.00    +0.000 C 
ATOM      9  C   UNL     1       6.152   4.188  18.167  0.00  0.00    +0.000 C 
ATOM     10  C   UNL     1       6.693   4.668  16.843  0.00  0.00    +0.000 C 
ATOM     11  O   UNL     1       7.812   4.364  16.439  0.00  0.00    +0.000 OA
ATOM     12  N   UNL     1       5.902   5.551  16.161  0.00  0.00    +0.000 N 
ATOM     13  H   UNL     1       6.346   5.980  15.356  0.00  0.00    +0.000 HD
ENDROOT
BRANCH   9  14
ATOM     14  C   UNL     1       6.612   5.113  19.291  0.00  0.00    +0.000 C 
ATOM     15  N   UNL     1       7.954   5.128  19.534  0.00  0.00    +0.000 N 
ATOM     16  O   UNL     1       5.859   5.772  20.001  0.00  0.00    +0.000 OA
ATOM     17  H   UNL     1       8.627   4.737  18.883  0.00  0.00    +0.000 HD
ATOM     18  H   UNL     1       8.285   5.782  20.232  0.00  0.00    +0.000 HD
ENDBRANCH   9  14
BRANCH   3  19
ATOM     19  C   UNL     1       2.794   6.062  18.166  0.00  0.00    +0.000 C 
ATOM     20  O   UNL     1       1.674   5.755  17.757  0.00  0.00    +0.000 OA
ATOM     21  N   UNL     1       3.016   7.068  19.081  0.00  0.00    +0.000 N 
ATOM     22  H   UNL     1       3.958   7.385  19.222  0.00  0.00    +0.000 HD
BRANCH  21  23
ATOM     23  C   UNL     1       2.009   7.874  19.671  0.00  0.00    +0.000 A 
ATOM     24  C   UNL     1       1.451   7.525  20.911  0.00  0.00    +0.000 A 
ATOM     25  C   UNL     1       0.460   8.315  21.501  0.00  0.00    +0.000 A 
ATOM     26  C   UNL     1       0.013   9.463  20.863  0.00  0.00    +0.000 A 
ATOM     27  C   UNL     1       0.565   9.830  19.637  0.00  0.00    +0.000 A 
ATOM     28  C   UNL     1       1.566   9.047  19.030  0.00  0.00    +0.000 A 
ATOM     29  C   UNL     1       2.059   9.483  17.676  0.00  0.00    +0.000 C 
ENDBRANCH  21  23
ENDBRANCH   3  19
TORSDOF 3
ENDMDL
MODEL 4
REMARK VINA RESULT:      -7.1      1.202      1.849
REMARK  Name = 
REMARK  5 active torsions:
REMARK  status: ('A' for Active; 'I' for Inactive)
REMARK    1  A    between atoms: C_1  and  C_2
REMARK    2  A    between atoms: C_3  and  C_4
REMARK    3  A    between atoms: N_6  and  C_7
REMARK    4  A    between atoms: C_12  and  C_13
REMARK    5  A    between atoms: C_19  and  C_20
REMARK                            x       y       z     vdW  Elec       q    Type
REMARK                         _______ _______ _______ _____ _____    ______ ____
ROOT
ATOM      1  C   UNL     1       1.782   4.815  21.283  0.00  0.00    +0.000 C 
ATOM      2  C   UNL     1       2.929   4.546  20.334  0.00  0.00    +0.000 C 
ATOM      3  C   UNL     1       3.333   5.301  19.273  0.00  0.00    +0.000 C 
ATOM      4  C   UNL     1       4.628   4.879  18.536  0.00  0.00    +0.000 C 
ATOM      5  C   UNL     1       5.850   5.386  19.378  0.00  0.00    +0.000 C 
ATOM      6  C   UNL     1       6.944   5.733  18.379  0.00  0.00    +0.000 C 
ATOM      7  C   UNL     1       6.163   6.344  17.239  0.00  0.00    +0.000 C 
ATOM      8  C   UNL     1       4.955   5.420  17.105  0.00  0.00    +0.000 C 
ATOM      9  C   UNL     1       4.643   3.320  18.440  0.00  0.00    +0.000 C 
ATOM     10  C   UNL     1       4.442   2.704  19.802  0.00  0.00    +0.000 C 
ATOM     11  O   UNL     1       4.931   1.621  20.113  0.00  0.00    +0.000 OA
ATOM     12  N   UNL     1       3.594   3.373  20.639  0.00  0.00    +0.000 N 
ATOM     13  H   UNL     1       3.349   2.868  21.485  0.00  0.00    +0.000 HD
ENDROOT
BRANCH   9  14
ATOM     14  C   UNL     1       3.610   2.774  17.456  0.00  0.00    +0.000 C 
ATOM     15  N   UNL     1       3.098   1.546  17.756  0.00  0.00    +0.000 N 
ATOM     16  O   UNL     1       3.275   3.334  16.417  0.00  0.00    +0.000 OA
ATOM     17  H   UNL     1       3.213   1.119  18.669  0.00  0.00    +0.000 HD
ATOM     18  H   UNL     1       2.367   1.196  17.151  0.00  0.00    +0.000 HD
ENDBRANCH   9  14
BRANCH   3  19
ATOM     19  C   UNL     1       2.424   6.434  18.850  0.00  0.00    +0.000 C 
ATOM     20  O   UNL     1       1.815   6.347  17.783  0.00  0.00    +0.000 OA
ATOM     21  N   UNL     1       2.383   7.551  19.656  0.00  0.00    +0.000 N 
ATOM     22  H   UNL     1       3.047   7.622  20.406  0.00  0.00    +0.000 HD
BRANCH  21  23
ATOM     23  C   UNL     1       1.650   8.733  19.379  0.00  0.00    +0.000 A 
ATOM     24  C   UNL     1       1.903   9.474  18.213  0.00  0.00    +0.000 A 
ATOM     25  C   UNL     1       1.184  10.638  17.932  0.00  0.00    +0.000 A 
ATOM     26  C   UNL     1       0.201  11.079  18.807  0.00  0.00    +0.000 A 
ATOM     27  C   UNL     1      -0.070  10.349  19.963  0.00  0.00    +0.000 A 
ATOM     28  C   UNL     1       0.643   9.173  20.261  0.00  0.00    +0.000 A 
ATOM     29  C   UNL     1       0.329   8.484  21.562  0.00  0.00    +0.000 C 
ENDBRANCH  21  23
ENDBRANCH   3  19
TORSDOF 3
ENDMDL
MODEL 5
REMARK VINA RESULT:      -7.0      1.809      3.402
REMARK  Name = 
REMARK  5 active torsions:
REMARK  status: ('A' for Active; 'I' for Inactive)
REMARK    1  A    between atoms: C_1  and  C_2
REMARK    2  A    between atoms: C_3  and  C_4
REMARK    3  A    between atoms: N_6  and  C_7
REMARK    4  A    between atoms: C_12  and  C_13
REMARK    5  A    between atoms: C_19  and  C_20
REMARK                            x       y       z     vdW  Elec       q    Type
REMARK                         _______ _______ _______ _____ _____    ______ ____
ROOT
ATOM      1  C   UNL     1       3.649   7.746  17.595  0.00  0.00    +0.000 C 
ATOM      2  C   UNL     1       3.446   6.269  17.853  0.00  0.00    +0.000 C 
ATOM      3  C   UNL     1       2.715   5.684  18.844  0.00  0.00    +0.000 C 
ATOM      4  C   UNL     1       2.552   4.144  18.811  0.00  0.00    +0.000 C 
ATOM      5  C   UNL     1       1.435   3.799  17.765  0.00  0.00    +0.000 C 
ATOM      6  C   UNL     1       0.726   2.559  18.290  0.00  0.00    +0.000 C 
ATOM      7  C   UNL     1       0.692   2.809  19.781  0.00  0.00    +0.000 C 
ATOM      8  C   UNL     1       2.087   3.354  20.077  0.00  0.00    +0.000 C 
ATOM      9  C   UNL     1       3.917   3.523  18.372  0.00  0.00    +0.000 C 
ATOM     10  C   UNL     1       4.397   4.153  17.088  0.00  0.00    +0.000 C 
ATOM     11  O   UNL     1       5.075   3.540  16.267  0.00  0.00    +0.000 OA
ATOM     12  N   UNL     1       4.120   5.483  16.936  0.00  0.00    +0.000 N 
ATOM     13  H   UNL     1       4.582   5.923  16.147  0.00  0.00    +0.000 HD
ENDROOT
BRANCH   9  14
ATOM     14  C   UNL     1       4.995   3.635  19.448  0.00  0.00    +0.000 C 
ATOM     15  N   UNL     1       5.197   2.516  20.202  0.00  0.00    +0.000 N 
ATOM     16  O   UNL     1       5.621   4.659  19.702  0.00  0.00    +0.000 OA
ATOM     17  H   UNL     1       4.832   1.609  19.933  0.00  0.00    +0.000 HD
ATOM     18  H   UNL     1       5.950   2.550  20.878  0.00  0.00    +0.000 HD
ENDBRANCH   9  14
BRANCH   3  19
ATOM     19  C   UNL     1       2.206   6.586  19.946  0.00  0.00    +0.000 C 
ATOM     20  O   UNL     1       2.245   6.191  21.111  0.00  0.00    +0.000 OA
ATOM     21  N   UNL     1       1.647   7.790  19.574  0.00  0.00    +0.000 N 
ATOM     22  H   UNL     1       1.482   7.958  18.598  0.00  0.00    +0.000 HD
BRANCH  21  23
ATOM     23  C   UNL     1       1.053   8.725  20.460  0.00  0.00    +0.000 A 
ATOM     24  C   UNL     1       1.147   8.549  21.850  0.00  0.00    +0.000 A 
ATOM     25  C   UNL     1       0.566   9.466  22.730  0.00  0.00    +0.000 A 
ATOM     26  C   UNL     1      -0.114  10.571  22.238  0.00  0.00    +0.000 A 
ATOM     27  C   UNL     1      -0.206  10.766  20.861  0.00  0.00    +0.000 A 
ATOM     28  C   UNL     1       0.376   9.853  19.960  0.00  0.00    +0.000 A 
ATOM     29  C   UNL     1       0.172  10.108  18.490  0.00  0.00    +0.000 C 
ENDBRANCH  21  23
ENDBRANCH   3  19
TORSDOF 3
ENDMDL
MODEL 6
REMARK VINA RESULT:      -7.0      2.484      4.144
REMARK  Name = 
REMARK  5 active torsions:
REMARK  status: ('A' for Active; 'I' for Inactive)
REMARK    1  A    between atoms: C_1  and  C_2
REMARK    2  A    between atoms: C_3  and  C_4
REMARK    3  A    between atoms: N_6  and  C_7
REMARK    4  A    between atoms: C_12  and  C_13
REMARK    5  A    between atoms: C_19  and  C_20
REMARK                            x       y       z     vdW  Elec       q    Type
REMARK                         _______ _______ _______ _____ _____    ______ ____
ROOT
ATOM      1  C   UNL     1       4.584   7.103  15.483  0.00  0.00    +0.000 C 
ATOM      2  C   UNL     1       4.902   5.939  16.396  0.00  0.00    +0.000 C 
ATOM      3  C   UNL     1       4.139   5.433  17.406  0.00  0.00    +0.000 C 
ATOM      4  C   UNL     1       4.629   4.143  18.108  0.00  0.00    +0.000 C 
ATOM      5  C   UNL     1       4.251   2.924  17.196  0.00  0.00    +0.000 C 
ATOM      6  C   UNL     1       3.950   1.764  18.135  0.00  0.00    +0.000 C 
ATOM      7  C   UNL     1       3.237   2.448  19.279  0.00  0.00    +0.000 C 
ATOM      8  C   UNL     1       4.060   3.714  19.500  0.00  0.00    +0.000 C 
ATOM      9  C   UNL     1       6.180   4.240  18.270  0.00  0.00    +0.000 C 
ATOM     10  C   UNL     1       6.832   4.546  16.944  0.00  0.00    +0.000 C 
ATOM     11  O   UNL     1       7.961   4.153  16.659  0.00  0.00    +0.000 OA
ATOM     12  N   UNL     1       6.133   5.377  16.114  0.00  0.00    +0.000 N 
ATOM     13  H   UNL     1       6.652   5.695  15.301  0.00  0.00    +0.000 HD
ENDROOT
BRANCH   9  14
ATOM     14  C   UNL     1       6.606   5.268  19.316  0.00  0.00    +0.000 C 
ATOM     15  N   UNL     1       7.928   5.257  19.653  0.00  0.00    +0.000 N 
ATOM     16  O   UNL     1       5.839   6.031  19.893  0.00  0.00    +0.000 OA
ATOM     17  H   UNL     1       8.624   4.769  19.099  0.00  0.00    +0.000 HD
ATOM     18  H   UNL     1       8.241   5.971  20.298  0.00  0.00    +0.000 HD
ENDBRANCH   9  14
BRANCH   3  19
ATOM     19  C   UNL     1       2.924   6.236  17.818  0.00  0.00    +0.000 C 
ATOM     20  O   UNL     1       1.802   5.791  17.577  0.00  0.00    +0.000 OA
ATOM     21  N   UNL     1       3.143   7.475  18.380  0.00  0.00    +0.000 N 
ATOM     22  H   UNL     1       4.076   7.844  18.372  0.00  0.00    +0.000 HD
BRANCH  21  23
ATOM     23  C   UNL     1       2.129   8.393  18.755  0.00  0.00    +0.000 A 
ATOM     24  C   UNL     1       1.756   9.436  17.892  0.00  0.00    +0.000 A 
ATOM     25  C   UNL     1       0.756  10.343  18.253  0.00  0.00    +0.000 A 
ATOM     26  C   UNL     1       0.115  10.224  19.478  0.00  0.00    +0.000 A 
ATOM     27  C   UNL     1       0.466   9.188  20.341  0.00  0.00    +0.000 A 
ATOM     28  C   UNL     1       1.469   8.263  19.992  0.00  0.00    +0.000 A 
ATOM     29  C   UNL     1       1.828   7.216  21.012  0.00  0.00    +0.000 C 
ENDBRANCH  21  23
ENDBRANCH   3  19
TORSDOF 3
ENDMDL
MODEL 7
REMARK VINA RESULT:      -6.8      3.332      7.940
REMARK  Name = 
REMARK  5 active torsions:
REMARK  status: ('A' for Active; 'I' for Inactive)
REMARK    1  A    between atoms: C_1  and  C_2
REMARK    2  A    between atoms: C_3  and  C_4
REMARK    3  A    between atoms: N_6  and  C_7
REMARK    4  A    between atoms: C_12  and  C_13
REMARK    5  A    between atoms: C_19  and  C_20
REMARK                            x       y       z     vdW  Elec       q    Type
REMARK                         _______ _______ _______ _____ _____    ______ ____
ROOT
ATOM      1  C   UNL     1       2.592  11.882  17.822  0.00  0.00    +0.000 C 
ATOM      2  C   UNL     1       1.478  11.580  18.800  0.00  0.00    +0.000 C 
ATOM      3  C   UNL     1       1.040  10.360  19.221  0.00  0.00    +0.000 C 
ATOM      4  C   UNL     1      -0.032  10.321  20.337  0.00  0.00    +0.000 C 
ATOM      5  C   UNL     1       0.692  10.547  21.710  0.00  0.00    +0.000 C 
ATOM      6  C   UNL     1      -0.077   9.733  22.740  0.00  0.00    +0.000 C 
ATOM      7  C   UNL     1      -0.438   8.486  21.966  0.00  0.00    +0.000 C 
ATOM      8  C   UNL     1      -0.871   9.029  20.607  0.00  0.00    +0.000 C 
ATOM      9  C   UNL     1      -1.055  11.470  20.066  0.00  0.00    +0.000 C 
ATOM     10  C   UNL     1      -0.338  12.787  19.900  0.00  0.00    +0.000 C 
ATOM     11  O   UNL     1      -0.848  13.858  20.219  0.00  0.00    +0.000 OA
ATOM     12  N   UNL     1       0.876  12.731  19.274  0.00  0.00    +0.000 N 
ATOM     13  H   UNL     1       1.269  13.635  19.032  0.00  0.00    +0.000 HD
ENDROOT
BRANCH   9  14
ATOM     14  C   UNL     1      -1.948  11.199  18.857  0.00  0.00    +0.000 C 
ATOM     15  N   UNL     1      -2.886  12.152  18.589  0.00  0.00    +0.000 N 
ATOM     16  O   UNL     1      -1.908  10.179  18.178  0.00  0.00    +0.000 OA
ATOM     17  H   UNL     1      -2.857  13.075  19.009  0.00  0.00    +0.000 HD
ATOM     18  H   UNL     1      -3.445  12.021  17.756  0.00  0.00    +0.000 HD
ENDBRANCH   9  14
BRANCH   3  19
ATOM     19  C   UNL     1       1.573   9.148  18.488  0.00  0.00    +0.000 C 
ATOM     20  O   UNL     1       1.241   8.961  17.317  0.00  0.00    +0.000 OA
ATOM     21  N   UNL     1       2.353   8.266  19.203  0.00  0.00    +0.000 N 
ATOM     22  H   UNL     1       2.424   8.389  20.197  0.00  0.00    +0.000 HD
BRANCH  21  23
ATOM     23  C   UNL     1       2.874   7.044  18.704  0.00  0.00    +0.000 A 
ATOM     24  C   UNL     1       3.744   7.038  17.601  0.00  0.00    +0.000 A 
ATOM     25  C   UNL     1       4.264   5.840  17.105  0.00  0.00    +0.000 A 
ATOM     26  C   UNL     1       3.925   4.632  17.700  0.00  0.00    +0.000 A 
ATOM     27  C   UNL     1       3.072   4.623  18.802  0.00  0.00    +0.000 A 
ATOM     28  C   UNL     1       2.542   5.821  19.317  0.00  0.00    +0.000 A 
ATOM     29  C   UNL     1       1.578   5.712  20.469  0.00  0.00    +0.000 C 
ENDBRANCH  21  23
ENDBRANCH   3  19
TORSDOF 3
ENDMDL
MODEL 8
REMARK VINA RESULT:      -6.7      2.215      3.676
REMARK  Name = 
REMARK  5 active torsions:
REMARK  status: ('A' for Active; 'I' for Inactive)
REMARK    1  A    between atoms: C_1  and  C_2
REMARK    2  A    between atoms: C_3  and  C_4
REMARK    3  A    between atoms: N_6  and  C_7
REMARK    4  A    between atoms: C_12  and  C_13
REMARK    5  A    between atoms: C_19  and  C_20
REMARK                            x       y       z     vdW  Elec       q    Type
REMARK                         _______ _______ _______ _____ _____    ______ ____
ROOT
ATOM      1  C   UNL     1       3.078   8.427  17.399  0.00  0.00    +0.000 C 
ATOM      2  C   UNL     1       3.363   6.951  17.572  0.00  0.00    +0.000 C 
ATOM      3  C   UNL     1       2.898   6.116  18.544  0.00  0.00    +0.000 C 
ATOM      4  C   UNL     1       3.228   4.608  18.423  0.00  0.00    +0.000 C 
ATOM      5  C   UNL     1       2.232   3.978  17.387  0.00  0.00    +0.000 C 
ATOM      6  C   UNL     1       1.973   2.553  17.854  0.00  0.00    +0.000 C 
ATOM      7  C   UNL     1       1.927   2.705  19.358  0.00  0.00    +0.000 C 
ATOM      8  C   UNL     1       3.091   3.649  19.651  0.00  0.00    +0.000 C 
ATOM      9  C   UNL     1       4.698   4.475  17.913  0.00  0.00    +0.000 C 
ATOM     10  C   UNL     1       4.899   5.287  16.657  0.00  0.00    +0.000 C 
ATOM     11  O   UNL     1       5.699   4.962  15.783  0.00  0.00    +0.000 OA
ATOM     12  N   UNL     1       4.210   6.466  16.593  0.00  0.00    +0.000 N 
ATOM     13  H   UNL     1       4.475   7.068  15.820  0.00  0.00    +0.000 HD
ENDROOT
BRANCH   9  14
ATOM     14  C   UNL     1       5.732   4.869  18.965  0.00  0.00    +0.000 C 
ATOM     15  N   UNL     1       7.006   4.442  18.734  0.00  0.00    +0.000 N 
ATOM     16  O   UNL     1       5.473   5.474  20.001  0.00  0.00    +0.000 OA
ATOM     17  H   UNL     1       7.303   4.088  17.830  0.00  0.00    +0.000 HD
ATOM     18  H   UNL     1       7.716   4.747  19.387  0.00  0.00    +0.000 HD
ENDBRANCH   9  14
BRANCH   3  19
ATOM     19  C   UNL     1       2.178   6.755  19.712  0.00  0.00    +0.000 C 
ATOM     20  O   UNL     1       1.820   6.049  20.655  0.00  0.00    +0.000 OA
ATOM     21  N   UNL     1       1.891   8.100  19.622  0.00  0.00    +0.000 N 
ATOM     22  H   UNL     1       2.049   8.563  18.746  0.00  0.00    +0.000 HD
BRANCH  21  23
ATOM     23  C   UNL     1       1.160   8.846  20.582  0.00  0.00    +0.000 A 
ATOM     24  C   UNL     1       1.372   8.642  21.955  0.00  0.00    +0.000 A 
ATOM     25  C   UNL     1       0.658   9.375  22.907  0.00  0.00    +0.000 A 
ATOM     26  C   UNL     1      -0.275  10.320  22.504  0.00  0.00    +0.000 A 
ATOM     27  C   UNL     1      -0.488  10.542  21.145  0.00  0.00    +0.000 A 
ATOM     28  C   UNL     1       0.225   9.815  20.173  0.00  0.00    +0.000 A 
ATOM     29  C   UNL     1      -0.116  10.073  18.729  0.00  0.00    +0.000 C 
ENDBRANCH  21  23
ENDBRANCH   3  19
TORSDOF 3
ENDMDL
MODEL 9
REMARK VINA RESULT:      -6.7      9.138     12.732
REMARK  Name = 
REMARK  5 active torsions:
REMARK  status: ('A' for Active; 'I' for Inactive)
REMARK    1  A    between atoms: C_1  and  C_2
REMARK    2  A    between atoms: C_3  and  C_4
REMARK    3  A    between atoms: N_6  and  C_7
REMARK    4  A    between atoms: C_12  and  C_13
REMARK    5  A    between atoms: C_19  and  C_20
REMARK                            x       y       z     vdW  Elec       q    Type
REMARK                         _______ _______ _______ _____ _____    ______ ____
ROOT
ATOM      1  C   UNL     1      -7.794  10.930  20.633  0.00  0.00    +0.000 C 
ATOM      2  C   UNL     1      -7.395  12.219  21.318  0.00  0.00    +0.000 C 
ATOM      3  C   UNL     1      -6.624  13.228  20.821  0.00  0.00    +0.000 C 
ATOM      4  C   UNL     1      -6.473  14.511  21.675  0.00  0.00    +0.000 C 
ATOM      5  C   UNL     1      -7.763  15.380  21.473  0.00  0.00    +0.000 C 
ATOM      6  C   UNL     1      -7.319  16.833  21.561  0.00  0.00    +0.000 C 
ATOM      7  C   UNL     1      -5.980  16.808  20.860  0.00  0.00    +0.000 C 
ATOM      8  C   UNL     1      -5.326  15.537  21.396  0.00  0.00    +0.000 C 
ATOM      9  C   UNL     1      -6.336  14.083  23.171  0.00  0.00    +0.000 C 
ATOM     10  C   UNL     1      -7.470  13.170  23.567  0.00  0.00    +0.000 C 
ATOM     11  O   UNL     1      -7.916  13.132  24.710  0.00  0.00    +0.000 OA
ATOM     12  N   UNL     1      -7.906  12.307  22.600  0.00  0.00    +0.000 N 
ATOM     13  H   UNL     1      -8.556  11.600  22.927  0.00  0.00    +0.000 HD
ENDROOT
BRANCH   9  14
ATOM     14  C   UNL     1      -4.994  13.421  23.480  0.00  0.00    +0.000 C 
ATOM     15  N   UNL     1      -4.244  14.026  24.445  0.00  0.00    +0.000 N 
ATOM     16  O   UNL     1      -4.546  12.447  22.885  0.00  0.00    +0.000 OA
ATOM     17  H   UNL     1      -4.629  14.724  25.073  0.00  0.00    +0.000 HD
ATOM     18  H   UNL     1      -3.381  13.567  24.708  0.00  0.00    +0.000 HD
ENDBRANCH   9  14
BRANCH   3  19
ATOM     19  C   UNL     1      -5.904  12.964  19.517  0.00  0.00    +0.000 C 
ATOM     20  O   UNL     1      -6.329  13.478  18.482  0.00  0.00    +0.000 OA
ATOM     21  N   UNL     1      -4.839  12.090  19.546  0.00  0.00    +0.000 N 
ATOM     22  H   UNL     1      -4.671  11.570  20.388  0.00  0.00    +0.000 HD
BRANCH  21  23
ATOM     23  C   UNL     1      -4.097  11.667  18.413  0.00  0.00    +0.000 A 
ATOM     24  C   UNL     1      -4.754  11.250  17.245  0.00  0.00    +0.000 A 
ATOM     25  C   UNL     1      -4.031  10.835  16.124  0.00  0.00    +0.000 A 
ATOM     26  C   UNL     1      -2.643  10.831  16.151  0.00  0.00    +0.000 A 
ATOM     27  C   UNL     1      -1.976  11.253  17.299  0.00  0.00    +0.000 A 
ATOM     28  C   UNL     1      -2.689  11.677  18.436  0.00  0.00    +0.000 A 
ATOM     29  C   UNL     1      -1.888  12.055  19.654  0.00  0.00    +0.000 C 
ENDBRANCH  21  23
ENDBRANCH   3  19
TORSDOF 3
ENDMDL
