MODEL 1
REMARK VINA RESULT:      -5.2      0.000      0.000
REMARK  Name = 
REMARK  3 active torsions:
REMARK  status: ('A' for Active; 'I' for Inactive)
REMARK    1  A    between atoms: C_2  and  C_3
REMARK    2  A    between atoms: C_3  and  C_4
REMARK    3  A    between atoms: N_6  and  C_7
REMARK                            x       y       z     vdW  Elec       q    Type
REMARK                         _______ _______ _______ _____ _____    ______ ____
ROOT
ATOM      1  C   UNL     1       6.182   6.242  17.081  0.00  0.00    +0.000 C 
ATOM      2  O   UNL     1       5.948   6.557  15.918  0.00  0.00    +0.000 OA
ATOM      3  N   UNL     1       5.347   5.430  17.828  0.00  0.00    +0.000 N 
ATOM      4  H   UNL     1       5.448   5.431  18.836  0.00  0.00    +0.000 HD
ENDROOT
BRANCH   3   5
ATOM      5  C   UNL     1       4.086   4.956  17.288  0.00  0.00    +0.000 C 
ATOM      6  C   UNL     1       3.921   3.446  17.418  0.00  0.00    +0.000 C 
ATOM      7  C   UNL     1       2.422   3.235  17.241  0.00  0.00    +0.000 C 
ATOM      8  C   UNL     1       1.757   4.500  17.780  0.00  0.00    +0.000 C 
ATOM      9  C   UNL     1       2.880   5.501  18.047  0.00  0.00    +0.000 C 
ENDBRANCH   3   5
BRANCH   1  10
ATOM     10  C   UNL     1       7.437   6.694  17.790  0.00  0.00    +0.000 C 
BRANCH  10  12
ATOM     11  N   UNL     1       7.689   5.371  20.036  0.00  0.00    +0.000 NA
ATOM     12  C   UNL     1       7.604   5.959  19.041  0.00  0.00    +0.000 C 
ENDBRANCH  10  12
ENDBRANCH   1  10
TORSDOF 3
ENDMDL
MODEL 2
REMARK VINA RESULT:      -5.1      2.189      2.843
REMARK  Name = 
REMARK  3 active torsions:
REMARK  status: ('A' for Active; 'I' for Inactive)
REMARK    1  A    between atoms: C_2  and  C_3
REMARK    2  A    between atoms: C_3  and  C_4
REMARK    3  A    between atoms: N_6  and  C_7
REMARK                            x       y       z     vdW  Elec       q    Type
REMARK                         _______ _______ _______ _____ _____    ______ ____
ROOT
ATOM      1  C   UNL     1       6.215   4.429  18.148  0.00  0.00    +0.000 C 
ATOM      2  O   UNL     1       6.199   4.737  19.337  0.00  0.00    +0.000 OA
ATOM      3  N   UNL     1       5.115   3.915  17.485  0.00  0.00    +0.000 N 
ATOM      4  H   UNL     1       5.262   3.436  16.605  0.00  0.00    +0.000 HD
ENDROOT
BRANCH   3   5
ATOM      5  C   UNL     1       3.877   3.642  18.191  0.00  0.00    +0.000 C 
ATOM      6  C   UNL     1       2.718   4.504  17.703  0.00  0.00    +0.000 C 
ATOM      7  C   UNL     1       1.486   3.764  18.208  0.00  0.00    +0.000 C 
ATOM      8  C   UNL     1       1.869   2.285  18.232  0.00  0.00    +0.000 C 
ATOM      9  C   UNL     1       3.371   2.221  17.958  0.00  0.00    +0.000 C 
ENDBRANCH   3   5
BRANCH   1  10
ATOM     10  C   UNL     1       7.446   4.620  17.295  0.00  0.00    +0.000 C 
BRANCH  10  12
ATOM     11  N   UNL     1       6.807   5.218  14.826  0.00  0.00    +0.000 NA
ATOM     12  C   UNL     1       7.065   4.960  15.926  0.00  0.00    +0.000 C 
ENDBRANCH  10  12
ENDBRANCH   1  10
TORSDOF 3
ENDMDL
MODEL 3
REMARK VINA RESULT:      -5.1      1.398      1.474
REMARK  Name = 
REMARK  3 active torsions:
REMARK  status: ('A' for Active; 'I' for Inactive)
REMARK    1  A    between atoms: C_2  and  C_3
REMARK    2  A    between atoms: C_3  and  C_4
REMARK    3  A    between atoms: N_6  and  C_7
REMARK                            x       y       z     vdW  Elec       q    Type
REMARK                         _______ _______ _______ _____ _____    ______ ____
ROOT
ATOM      1  C   UNL     1       6.113   4.344  16.803  0.00  0.00    +0.000 C 
ATOM      2  O   UNL     1       5.788   4.458  15.624  0.00  0.00    +0.000 OA
ATOM      3  N   UNL     1       5.272   3.828  17.772  0.00  0.00    +0.000 N 
ATOM      4  H   UNL     1       5.490   4.009  18.746  0.00  0.00    +0.000 HD
ENDROOT
BRANCH   3   5
ATOM      5  C   UNL     1       3.907   3.453  17.456  0.00  0.00    +0.000 C 
ATOM      6  C   UNL     1       3.399   2.301  18.315  0.00  0.00    +0.000 C 
ATOM      7  C   UNL     1       1.885   2.383  18.163  0.00  0.00    +0.000 C 
ATOM      8  C   UNL     1       1.568   3.861  17.945  0.00  0.00    +0.000 C 
ATOM      9  C   UNL     1       2.908   4.569  17.752  0.00  0.00    +0.000 C 
ENDBRANCH   3   5
BRANCH   1  10
ATOM     10  C   UNL     1       7.490   4.731  17.288  0.00  0.00    +0.000 C 
BRANCH  10  12
ATOM     11  N   UNL     1       7.347   5.449  19.803  0.00  0.00    +0.000 NA
ATOM     12  C   UNL     1       7.437   5.136  18.690  0.00  0.00    +0.000 C 
ENDBRANCH  10  12
ENDBRANCH   1  10
TORSDOF 3
ENDMDL
MODEL 4
REMARK VINA RESULT:      -5.0      3.155      4.874
REMARK  Name = 
REMARK  3 active torsions:
REMARK  status: ('A' for Active; 'I' for Inactive)
REMARK    1  A    between atoms: C_2  and  C_3
REMARK    2  A    between atoms: C_3  and  C_4
REMARK    3  A    between atoms: N_6  and  C_7
REMARK                            x       y       z     vdW  Elec       q    Type
REMARK                         _______ _______ _______ _____ _____    ______ ____
ROOT
ATOM      1  C   UNL     1       1.552   3.993  18.938  0.00  0.00    +0.000 C 
ATOM      2  O   UNL     1       1.065   3.389  17.986  0.00  0.00    +0.000 OA
ATOM      3  N   UNL     1       2.660   4.814  18.826  0.00  0.00    +0.000 N 
ATOM      4  H   UNL     1       3.166   5.059  19.669  0.00  0.00    +0.000 HD
ENDROOT
BRANCH   3   5
ATOM      5  C   UNL     1       3.363   4.954  17.565  0.00  0.00    +0.000 C 
ATOM      6  C   UNL     1       4.126   6.270  17.459  0.00  0.00    +0.000 C 
ATOM      7  C   UNL     1       5.120   6.016  16.333  0.00  0.00    +0.000 C 
ATOM      8  C   UNL     1       5.436   4.523  16.385  0.00  0.00    +0.000 C 
ATOM      9  C   UNL     1       4.458   3.906  17.385  0.00  0.00    +0.000 C 
ENDBRANCH   3   5
BRANCH   1  10
ATOM     10  C   UNL     1       0.951   3.912  20.321  0.00  0.00    +0.000 C 
BRANCH  10  12
ATOM     11  N   UNL     1       2.554   2.653  21.967  0.00  0.00    +0.000 NA
ATOM     12  C   UNL     1       1.848   3.190  21.221  0.00  0.00    +0.000 C 
ENDBRANCH  10  12
ENDBRANCH   1  10
TORSDOF 3
ENDMDL
MODEL 5
REMARK VINA RESULT:      -4.9      3.146      5.039
REMARK  Name = 
REMARK  3 active torsions:
REMARK  status: ('A' for Active; 'I' for Inactive)
REMARK    1  A    between atoms: C_2  and  C_3
REMARK    2  A    between atoms: C_3  and  C_4
REMARK    3  A    between atoms: N_6  and  C_7
REMARK                            x       y       z     vdW  Elec       q    Type
REMARK                         _______ _______ _______ _____ _____    ______ ____
ROOT
ATOM      1  C   UNL     1       1.593   3.681  18.756  0.00  0.00    +0.000 C 
ATOM      2  O   UNL     1       1.268   3.558  17.578  0.00  0.00    +0.000 OA
ATOM      3  N   UNL     1       2.734   4.351  19.159  0.00  0.00    +0.000 N 
ATOM      4  H   UNL     1       3.085   4.187  20.096  0.00  0.00    +0.000 HD
ENDROOT
BRANCH   3   5
ATOM      5  C   UNL     1       3.665   4.894  18.188  0.00  0.00    +0.000 C 
ATOM      6  C   UNL     1       3.419   6.370  17.897  0.00  0.00    +0.000 C 
ATOM      7  C   UNL     1       4.723   6.831  17.259  0.00  0.00    +0.000 C 
ATOM      8  C   UNL     1       5.818   5.964  17.878  0.00  0.00    +0.000 C 
ATOM      9  C   UNL     1       5.108   4.878  18.685  0.00  0.00    +0.000 C 
ENDBRANCH   3   5
BRANCH   1  10
ATOM     10  C   UNL     1       0.742   3.132  19.877  0.00  0.00    +0.000 C 
BRANCH  10  12
ATOM     11  N   UNL     1       2.110   2.975  22.106  0.00  0.00    +0.000 NA
ATOM     12  C   UNL     1       1.526   3.035  21.106  0.00  0.00    +0.000 C 
ENDBRANCH  10  12
ENDBRANCH   1  10
TORSDOF 3
ENDMDL
MODEL 6
REMARK VINA RESULT:      -4.8      3.472      4.363
REMARK  Name = 
REMARK  3 active torsions:
REMARK  status: ('A' for Active; 'I' for Inactive)
REMARK    1  A    between atoms: C_2  and  C_3
REMARK    2  A    between atoms: C_3  and  C_4
REMARK    3  A    between atoms: N_6  and  C_7
REMARK                            x       y       z     vdW  Elec       q    Type
REMARK                         _______ _______ _______ _____ _____    ______ ____
ROOT
ATOM      1  C   UNL     1       7.380   5.145  17.008  0.00  0.00    +0.000 C 
ATOM      2  O   UNL     1       8.116   4.180  17.193  0.00  0.00    +0.000 OA
ATOM      3  N   UNL     1       6.715   5.372  15.816  0.00  0.00    +0.000 N 
ATOM      4  H   UNL     1       6.353   6.301  15.634  0.00  0.00    +0.000 HD
ENDROOT
BRANCH   3   5
ATOM      5  C   UNL     1       6.912   4.501  14.673  0.00  0.00    +0.000 C 
ATOM      6  C   UNL     1       5.599   4.039  14.051  0.00  0.00    +0.000 C 
ATOM      7  C   UNL     1       6.009   3.559  12.665  0.00  0.00    +0.000 C 
ATOM      8  C   UNL     1       7.214   4.411  12.269  0.00  0.00    +0.000 C 
ATOM      9  C   UNL     1       7.613   5.203  13.513  0.00  0.00    +0.000 C 
ENDBRANCH   3   5
BRANCH   1  10
ATOM     10  C   UNL     1       7.111   6.159  18.095  0.00  0.00    +0.000 C 
BRANCH  10  12
ATOM     11  N   UNL     1       7.875   8.536  17.299  0.00  0.00    +0.000 NA
ATOM     12  C   UNL     1       7.555   7.485  17.671  0.00  0.00    +0.000 C 
ENDBRANCH  10  12
ENDBRANCH   1  10
TORSDOF 3
ENDMDL
MODEL 7
REMARK VINA RESULT:      -4.8      2.469      3.165
REMARK  Name = 
REMARK  3 active torsions:
REMARK  status: ('A' for Active; 'I' for Inactive)
REMARK    1  A    between atoms: C_2  and  C_3
REMARK    2  A    between atoms: C_3  and  C_4
REMARK    3  A    between atoms: N_6  and  C_7
REMARK                            x       y       z     vdW  Elec       q    Type
REMARK                         _______ _______ _______ _____ _____    ______ ____
ROOT
ATOM      1  C   UNL     1       4.347   4.403  17.237  0.00  0.00    +0.000 C 
ATOM      2  O   UNL     1       4.001   5.580  17.292  0.00  0.00    +0.000 OA
ATOM      3  N   UNL     1       3.907   3.444  18.131  0.00  0.00    +0.000 N 
ATOM      4  H   UNL     1       4.425   2.576  18.202  0.00  0.00    +0.000 HD
ENDROOT
BRANCH   3   5
ATOM      5  C   UNL     1       3.052   3.798  19.248  0.00  0.00    +0.000 C 
ATOM      6  C   UNL     1       1.569   3.715  18.905  0.00  0.00    +0.000 C 
ATOM      7  C   UNL     1       0.889   3.661  20.267  0.00  0.00    +0.000 C 
ATOM      8  C   UNL     1       1.879   2.964  21.199  0.00  0.00    +0.000 C 
ATOM      9  C   UNL     1       3.188   2.831  20.422  0.00  0.00    +0.000 C 
ENDBRANCH   3   5
BRANCH   1  10
ATOM     10  C   UNL     1       5.266   3.895  16.152  0.00  0.00    +0.000 C 
BRANCH  10  12
ATOM     11  N   UNL     1       7.757   4.547  16.633  0.00  0.00    +0.000 NA
ATOM     12  C   UNL     1       6.648   4.268  16.445  0.00  0.00    +0.000 C 
ENDBRANCH  10  12
ENDBRANCH   1  10
TORSDOF 3
ENDMDL
MODEL 8
REMARK VINA RESULT:      -4.8      2.296      2.871
REMARK  Name = 
REMARK  3 active torsions:
REMARK  status: ('A' for Active; 'I' for Inactive)
REMARK    1  A    between atoms: C_2  and  C_3
REMARK    2  A    between atoms: C_3  and  C_4
REMARK    3  A    between atoms: N_6  and  C_7
REMARK                            x       y       z     vdW  Elec       q    Type
REMARK                         _______ _______ _______ _____ _____    ______ ____
ROOT
ATOM      1  C   UNL     1       5.352   4.971  18.687  0.00  0.00    +0.000 C 
ATOM      2  O   UNL     1       5.890   4.030  19.263  0.00  0.00    +0.000 OA
ATOM      3  N   UNL     1       3.986   5.187  18.703  0.00  0.00    +0.000 N 
ATOM      4  H   UNL     1       3.585   5.801  18.003  0.00  0.00    +0.000 HD
ENDROOT
BRANCH   3   5
ATOM      5  C   UNL     1       3.089   4.252  19.357  0.00  0.00    +0.000 C 
ATOM      6  C   UNL     1       2.100   4.940  20.291  0.00  0.00    +0.000 C 
ATOM      7  C   UNL     1       1.010   3.895  20.489  0.00  0.00    +0.000 C 
ATOM      8  C   UNL     1       0.972   3.083  19.196  0.00  0.00    +0.000 C 
ATOM      9  C   UNL     1       2.180   3.523  18.371  0.00  0.00    +0.000 C 
ENDBRANCH   3   5
BRANCH   1  10
ATOM     10  C   UNL     1       6.155   6.004  17.931  0.00  0.00    +0.000 C 
BRANCH  10  12
ATOM     11  N   UNL     1       7.565   4.838  16.056  0.00  0.00    +0.000 NA
ATOM     12  C   UNL     1       6.925   5.365  16.866  0.00  0.00    +0.000 C 
ENDBRANCH  10  12
ENDBRANCH   1  10
TORSDOF 3
ENDMDL
MODEL 9
REMARK VINA RESULT:      -4.8      2.208      2.989
REMARK  Name = 
REMARK  3 active torsions:
REMARK  status: ('A' for Active; 'I' for Inactive)
REMARK    1  A    between atoms: C_2  and  C_3
REMARK    2  A    between atoms: C_3  and  C_4
REMARK    3  A    between atoms: N_6  and  C_7
REMARK                            x       y       z     vdW  Elec       q    Type
REMARK                         _______ _______ _______ _____ _____    ______ ____
ROOT
ATOM      1  C   UNL     1       5.355   4.983  18.609  0.00  0.00    +0.000 C 
ATOM      2  O   UNL     1       5.857   4.159  19.369  0.00  0.00    +0.000 OA
ATOM      3  N   UNL     1       3.998   5.043  18.348  0.00  0.00    +0.000 N 
ATOM      4  H   UNL     1       3.686   5.548  17.527  0.00  0.00    +0.000 HD
ENDROOT
BRANCH   3   5
ATOM      5  C   UNL     1       3.084   4.069  18.914  0.00  0.00    +0.000 C 
ATOM      6  C   UNL     1       2.115   4.684  19.918  0.00  0.00    +0.000 C 
ATOM      7  C   UNL     1       1.002   3.648  20.021  0.00  0.00    +0.000 C 
ATOM      8  C   UNL     1       0.940   2.966  18.656  0.00  0.00    +0.000 C 
ATOM      9  C   UNL     1       2.154   3.458  17.869  0.00  0.00    +0.000 C 
ENDBRANCH   3   5
BRANCH   1  10
ATOM     10  C   UNL     1       6.188   6.035  17.916  0.00  0.00    +0.000 C 
BRANCH  10  12
ATOM     11  N   UNL     1       5.194   6.640  15.569  0.00  0.00    +0.000 NA
ATOM     12  C   UNL     1       5.611   6.359  16.614  0.00  0.00    +0.000 C 
ENDBRANCH  10  12
ENDBRANCH   1  10
TORSDOF 3
ENDMDL
