MODEL 1
REMARK VINA RESULT:      -7.7      0.000      0.000
REMARK  Name = 
REMARK  10 active torsions:
REMARK  status: ('A' for Active; 'I' for Inactive)
REMARK    1  A    between atoms: C_1  and  C_2
REMARK    2  A    between atoms: C_2  and  C_3
REMARK    3  A    between atoms: C_3  and  C_4
REMARK    4  A    between atoms: C_5  and  O_6
REMARK    5  A    between atoms: C_8  and  S_9
REMARK    6  A    between atoms: S_9  and  C_10
REMARK    7  A    between atoms: N_14  and  C_15
REMARK    8  A    between atoms: C_18  and  O_19
REMARK    9  A    between atoms: O_19  and  C_20
REMARK   10  A    between atoms: C_26  and  O_27
REMARK                            x       y       z     vdW  Elec       q    Type
REMARK                         _______ _______ _______ _____ _____    ______ ____
ROOT
ATOM      1  C   UNL     1       7.370   6.292  17.797  0.00  0.00    +0.000 C 
ATOM      2  C   UNL     1       6.209   7.205  17.350  0.00  0.00    +0.000 C 
ATOM      3  C   UNL     1       5.890   6.679  15.986  0.00  0.00    +0.000 C 
ATOM      4  O   UNL     1       5.059   7.195  15.260  0.00  0.00    +0.000 OA
ATOM      5  N   UNL     1       6.503   5.498  15.714  0.00  0.00    +0.000 N 
ATOM      6  C   UNL     1       7.319   5.204  16.763  0.00  0.00    +0.000 C 
ATOM      7  O   UNL     1       8.062   4.236  16.797  0.00  0.00    +0.000 OA
ENDROOT
BRANCH   5   8
ATOM      8  C   UNL     1       6.339   4.699  14.510  0.00  0.00    +0.000 A 
ATOM      9  C   UNL     1       5.197   3.893  14.327  0.00  0.00    +0.000 A 
ATOM     10  C   UNL     1       5.045   3.114  13.180  0.00  0.00    +0.000 A 
ATOM     11  C   UNL     1       6.022   3.118  12.175  0.00  0.00    +0.000 A 
ATOM     12  C   UNL     1       7.157   3.916  12.335  0.00  0.00    +0.000 A 
ATOM     13  C   UNL     1       7.316   4.698  13.491  0.00  0.00    +0.000 A 
BRANCH  11  14
ATOM     14  O   UNL     1       5.907   2.360  11.052  0.00  0.00    +0.000 OA
ATOM     15  C   UNL     1       6.210   1.017  10.974  0.00  0.00    +0.000 C 
ENDBRANCH  11  14
ENDBRANCH   5   8
BRANCH   1  16
ATOM     16  S   UNL     1       7.261   5.628  19.513  0.00  0.00    +0.000 S 
BRANCH  16  20
ATOM     17  C   UNL     1       3.040   3.865  19.130  0.00  0.00    +0.000 A 
ATOM     18  C   UNL     1       3.280   5.255  19.353  0.00  0.00    +0.000 A 
ATOM     19  N   UNL     1       4.546   5.708  19.467  0.00  0.00    +0.000 NA
ATOM     20  C   UNL     1       5.619   4.893  19.394  0.00  0.00    +0.000 A 
ATOM     21  N   UNL     1       5.438   3.561  19.177  0.00  0.00    +0.000 NA
ATOM     22  C   UNL     1       4.184   3.032  19.047  0.00  0.00    +0.000 A 
BRANCH  18  23
ATOM     23  O   UNL     1       2.295   6.169  19.509  0.00  0.00    +0.000 OA
ATOM     24  H   UNL     1       2.412   7.064  19.821  0.00  0.00    +0.000 HD
ENDBRANCH  18  23
BRANCH  22  25
ATOM     25  O   UNL     1       4.037   1.703  18.847  0.00  0.00    +0.000 OA
ATOM     26  H   UNL     1       4.243   1.053  19.538  0.00  0.00    +0.000 HD
ENDBRANCH  22  25
BRANCH  17  27
ATOM     27  C   UNL     1       1.638   3.250  19.044  0.00  0.00    +0.000 C 
BRANCH  27  29
ATOM     28  C   UNL     1       1.477   2.646  21.578  0.00  0.00    +0.000 C 
ATOM     29  C   UNL     1       0.781   3.188  20.333  0.00  0.00    +0.000 C 
ENDBRANCH  27  29
ENDBRANCH  17  27
ENDBRANCH  16  20
ENDBRANCH   1  16
TORSDOF 8
ENDMDL
MODEL 2
REMARK VINA RESULT:      -7.6      0.156      1.611
REMARK  Name = 
REMARK  10 active torsions:
REMARK  status: ('A' for Active; 'I' for Inactive)
REMARK    1  A    between atoms: C_1  and  C_2
REMARK    2  A    between atoms: C_2  and  C_3
REMARK    3  A    between atoms: C_3  and  C_4
REMARK    4  A    between atoms: C_5  and  O_6
REMARK    5  A    between atoms: C_8  and  S_9
REMARK    6  A    between atoms: S_9  and  C_10
REMARK    7  A    between atoms: N_14  and  C_15
REMARK    8  A    between atoms: C_18  and  O_19
REMARK    9  A    between atoms: O_19  and  C_20
REMARK   10  A    between atoms: C_26  and  O_27
REMARK                            x       y       z     vdW  Elec       q    Type
REMARK                         _______ _______ _______ _____ _____    ______ ____
ROOT
ATOM      1  C   UNL     1       7.359   6.277  17.796  0.00  0.00    +0.000 C 
ATOM      2  C   UNL     1       6.198   7.179  17.329  0.00  0.00    +0.000 C 
ATOM      3  C   UNL     1       5.915   6.656  15.956  0.00  0.00    +0.000 C 
ATOM      4  O   UNL     1       5.094   7.166  15.214  0.00  0.00    +0.000 OA
ATOM      5  N   UNL     1       6.547   5.484  15.692  0.00  0.00    +0.000 N 
ATOM      6  C   UNL     1       7.344   5.194  16.757  0.00  0.00    +0.000 C 
ATOM      7  O   UNL     1       8.097   4.234  16.802  0.00  0.00    +0.000 OA
ENDROOT
BRANCH   5   8
ATOM      8  C   UNL     1       6.418   4.689  14.481  0.00  0.00    +0.000 A 
ATOM      9  C   UNL     1       5.341   3.795  14.312  0.00  0.00    +0.000 A 
ATOM     10  C   UNL     1       5.224   3.021  13.158  0.00  0.00    +0.000 A 
ATOM     11  C   UNL     1       6.173   3.117  12.131  0.00  0.00    +0.000 A 
ATOM     12  C   UNL     1       7.244   4.002  12.276  0.00  0.00    +0.000 A 
ATOM     13  C   UNL     1       7.368   4.779  13.440  0.00  0.00    +0.000 A 
BRANCH  11  14
ATOM     14  O   UNL     1       6.092   2.366  11.001  0.00  0.00    +0.000 OA
ATOM     15  C   UNL     1       6.164   0.988  10.963  0.00  0.00    +0.000 C 
ENDBRANCH  11  14
ENDBRANCH   5   8
BRANCH   1  16
ATOM     16  S   UNL     1       7.220   5.603  19.507  0.00  0.00    +0.000 S 
BRANCH  16  20
ATOM     17  C   UNL     1       2.996   3.824  19.269  0.00  0.00    +0.000 A 
ATOM     18  C   UNL     1       4.177   3.033  19.123  0.00  0.00    +0.000 A 
ATOM     19  N   UNL     1       5.389   3.621  19.192  0.00  0.00    +0.000 NA
ATOM     20  C   UNL     1       5.545   4.947  19.383  0.00  0.00    +0.000 A 
ATOM     21  N   UNL     1       4.446   5.739  19.533  0.00  0.00    +0.000 NA
ATOM     22  C   UNL     1       3.187   5.212  19.478  0.00  0.00    +0.000 A 
BRANCH  18  23
ATOM     23  O   UNL     1       4.162   1.706  18.865  0.00  0.00    +0.000 OA
ATOM     24  H   UNL     1       4.042   1.015  19.514  0.00  0.00    +0.000 HD
ENDBRANCH  18  23
BRANCH  22  25
ATOM     25  O   UNL     1       2.116   6.026  19.616  0.00  0.00    +0.000 OA
ATOM     26  H   UNL     1       1.206   5.690  19.572  0.00  0.00    +0.000 HD
ENDBRANCH  22  25
BRANCH  17  27
ATOM     27  C   UNL     1       1.576   3.255  19.147  0.00  0.00    +0.000 C 
BRANCH  27  29
ATOM     28  C   UNL     1       1.713   2.756  21.705  0.00  0.00    +0.000 C 
ATOM     29  C   UNL     1       0.871   2.753  20.432  0.00  0.00    +0.000 C 
ENDBRANCH  27  29
ENDBRANCH  17  27
ENDBRANCH  16  20
ENDBRANCH   1  16
TORSDOF 8
ENDMDL
MODEL 3
REMARK VINA RESULT:      -6.9      0.538      2.105
REMARK  Name = 
REMARK  10 active torsions:
REMARK  status: ('A' for Active; 'I' for Inactive)
REMARK    1  A    between atoms: C_1  and  C_2
REMARK    2  A    between atoms: C_2  and  C_3
REMARK    3  A    between atoms: C_3  and  C_4
REMARK    4  A    between atoms: C_5  and  O_6
REMARK    5  A    between atoms: C_8  and  S_9
REMARK    6  A    between atoms: S_9  and  C_10
REMARK    7  A    between atoms: N_14  and  C_15
REMARK    8  A    between atoms: C_18  and  O_19
REMARK    9  A    between atoms: O_19  and  C_20
REMARK   10  A    between atoms: C_26  and  O_27
REMARK                            x       y       z     vdW  Elec       q    Type
REMARK                         _______ _______ _______ _____ _____    ______ ____
ROOT
ATOM      1  C   UNL     1       7.393   6.284  17.764  0.00  0.00    +0.000 C 
ATOM      2  C   UNL     1       6.152   7.119  17.388  0.00  0.00    +0.000 C 
ATOM      3  C   UNL     1       5.796   6.579  16.039  0.00  0.00    +0.000 C 
ATOM      4  O   UNL     1       4.894   7.041  15.362  0.00  0.00    +0.000 OA
ATOM      5  N   UNL     1       6.471   5.444  15.725  0.00  0.00    +0.000 N 
ATOM      6  C   UNL     1       7.361   5.201  16.726  0.00  0.00    +0.000 C 
ATOM      7  O   UNL     1       8.168   4.285  16.712  0.00  0.00    +0.000 OA
ENDROOT
BRANCH   5   8
ATOM      8  C   UNL     1       6.296   4.641  14.524  0.00  0.00    +0.000 A 
ATOM      9  C   UNL     1       7.250   4.673  13.486  0.00  0.00    +0.000 A 
ATOM     10  C   UNL     1       7.076   3.916  12.328  0.00  0.00    +0.000 A 
ATOM     11  C   UNL     1       5.950   3.097  12.169  0.00  0.00    +0.000 A 
ATOM     12  C   UNL     1       4.998   3.046  13.189  0.00  0.00    +0.000 A 
ATOM     13  C   UNL     1       5.167   3.812  14.355  0.00  0.00    +0.000 A 
BRANCH  11  14
ATOM     14  O   UNL     1       5.748   2.358  11.046  0.00  0.00    +0.000 OA
ATOM     15  C   UNL     1       5.996   1.005  10.938  0.00  0.00    +0.000 C 
ENDBRANCH  11  14
ENDBRANCH   5   8
BRANCH   1  16
ATOM     16  S   UNL     1       7.422   5.607  19.478  0.00  0.00    +0.000 S 
BRANCH  16  20
ATOM     17  C   UNL     1       3.184   3.855  19.654  0.00  0.00    +0.000 A 
ATOM     18  C   UNL     1       4.330   3.073  19.312  0.00  0.00    +0.000 A 
ATOM     19  N   UNL     1       5.547   3.653  19.267  0.00  0.00    +0.000 NA
ATOM     20  C   UNL     1       5.739   4.963  19.522  0.00  0.00    +0.000 A 
ATOM     21  N   UNL     1       4.675   5.746  19.858  0.00  0.00    +0.000 NA
ATOM     22  C   UNL     1       3.413   5.226  19.927  0.00  0.00    +0.000 A 
BRANCH  18  23
ATOM     23  O   UNL     1       4.269   1.766  18.973  0.00  0.00    +0.000 OA
ATOM     24  H   UNL     1       4.520   1.399  18.127  0.00  0.00    +0.000 HD
ENDBRANCH  18  23
BRANCH  22  25
ATOM     25  O   UNL     1       2.376   6.032  20.249  0.00  0.00    +0.000 OA
ATOM     26  H   UNL     1       2.147   6.230  21.172  0.00  0.00    +0.000 HD
ENDBRANCH  22  25
BRANCH  17  27
ATOM     27  C   UNL     1       1.754   3.298  19.675  0.00  0.00    +0.000 C 
BRANCH  27  29
ATOM     28  C   UNL     1       1.307   4.159  17.252  0.00  0.00    +0.000 C 
ATOM     29  C   UNL     1       1.016   3.114  18.325  0.00  0.00    +0.000 C 
ENDBRANCH  27  29
ENDBRANCH  17  27
ENDBRANCH  16  20
ENDBRANCH   1  16
TORSDOF 8
ENDMDL
MODEL 4
REMARK VINA RESULT:      -6.8      0.562      1.018
REMARK  Name = 
REMARK  10 active torsions:
REMARK  status: ('A' for Active; 'I' for Inactive)
REMARK    1  A    between atoms: C_1  and  C_2
REMARK    2  A    between atoms: C_2  and  C_3
REMARK    3  A    between atoms: C_3  and  C_4
REMARK    4  A    between atoms: C_5  and  O_6
REMARK    5  A    between atoms: C_8  and  S_9
REMARK    6  A    between atoms: S_9  and  C_10
REMARK    7  A    between atoms: N_14  and  C_15
REMARK    8  A    between atoms: C_18  and  O_19
REMARK    9  A    between atoms: O_19  and  C_20
REMARK   10  A    between atoms: C_26  and  O_27
REMARK                            x       y       z     vdW  Elec       q    Type
REMARK                         _______ _______ _______ _____ _____    ______ ____
ROOT
ATOM      1  C   UNL     1       7.379   6.382  17.761  0.00  0.00    +0.000 C 
ATOM      2  C   UNL     1       6.112   7.188  17.406  0.00  0.00    +0.000 C 
ATOM      3  C   UNL     1       5.747   6.643  16.062  0.00  0.00    +0.000 C 
ATOM      4  O   UNL     1       4.825   7.086  15.401  0.00  0.00    +0.000 OA
ATOM      5  N   UNL     1       6.444   5.525  15.735  0.00  0.00    +0.000 N 
ATOM      6  C   UNL     1       7.355   5.300  16.721  0.00  0.00    +0.000 C 
ATOM      7  O   UNL     1       8.183   4.403  16.692  0.00  0.00    +0.000 OA
ENDROOT
BRANCH   5   8
ATOM      8  C   UNL     1       6.269   4.720  14.535  0.00  0.00    +0.000 A 
ATOM      9  C   UNL     1       5.159   3.863  14.395  0.00  0.00    +0.000 A 
ATOM     10  C   UNL     1       4.998   3.079  13.252  0.00  0.00    +0.000 A 
ATOM     11  C   UNL     1       5.933   3.130  12.210  0.00  0.00    +0.000 A 
ATOM     12  C   UNL     1       7.035   3.978  12.327  0.00  0.00    +0.000 A 
ATOM     13  C   UNL     1       7.204   4.765  13.479  0.00  0.00    +0.000 A 
BRANCH  11  14
ATOM     14  O   UNL     1       5.808   2.368  11.090  0.00  0.00    +0.000 OA
ATOM     15  C   UNL     1       5.959   0.998  11.048  0.00  0.00    +0.000 C 
ENDBRANCH  11  14
ENDBRANCH   5   8
BRANCH   1  16
ATOM     16  S   UNL     1       7.450   5.702  19.473  0.00  0.00    +0.000 S 
BRANCH  16  20
ATOM     17  C   UNL     1       3.254   3.842  19.488  0.00  0.00    +0.000 A 
ATOM     18  C   UNL     1       3.495   5.209  19.827  0.00  0.00    +0.000 A 
ATOM     19  N   UNL     1       4.755   5.691  19.813  0.00  0.00    +0.000 NA
ATOM     20  C   UNL     1       5.823   4.927  19.503  0.00  0.00    +0.000 A 
ATOM     21  N   UNL     1       5.640   3.619  19.169  0.00  0.00    +0.000 NA
ATOM     22  C   UNL     1       4.391   3.063  19.157  0.00  0.00    +0.000 A 
BRANCH  18  23
ATOM     23  O   UNL     1       2.524   6.065  20.217  0.00  0.00    +0.000 OA
ATOM     24  H   UNL     1       2.506   7.004  20.037  0.00  0.00    +0.000 HD
ENDBRANCH  18  23
BRANCH  22  25
ATOM     25  O   UNL     1       4.243   1.759  18.834  0.00  0.00    +0.000 OA
ATOM     26  H   UNL     1       4.995   1.209  18.559  0.00  0.00    +0.000 HD
ENDBRANCH  22  25
BRANCH  17  27
ATOM     27  C   UNL     1       1.866   3.191  19.531  0.00  0.00    +0.000 C 
BRANCH  27  29
ATOM     28  C   UNL     1       1.251   4.360  17.280  0.00  0.00    +0.000 C 
ATOM     29  C   UNL     1       1.008   3.199  18.241  0.00  0.00    +0.000 C 
ENDBRANCH  27  29
ENDBRANCH  17  27
ENDBRANCH  16  20
ENDBRANCH   1  16
TORSDOF 8
ENDMDL
MODEL 5
REMARK VINA RESULT:      -6.7      0.545      1.930
REMARK  Name = 
REMARK  10 active torsions:
REMARK  status: ('A' for Active; 'I' for Inactive)
REMARK    1  A    between atoms: C_1  and  C_2
REMARK    2  A    between atoms: C_2  and  C_3
REMARK    3  A    between atoms: C_3  and  C_4
REMARK    4  A    between atoms: C_5  and  O_6
REMARK    5  A    between atoms: C_8  and  S_9
REMARK    6  A    between atoms: S_9  and  C_10
REMARK    7  A    between atoms: N_14  and  C_15
REMARK    8  A    between atoms: C_18  and  O_19
REMARK    9  A    between atoms: O_19  and  C_20
REMARK   10  A    between atoms: C_26  and  O_27
REMARK                            x       y       z     vdW  Elec       q    Type
REMARK                         _______ _______ _______ _____ _____    ______ ____
ROOT
ATOM      1  C   UNL     1       7.494   6.288  17.802  0.00  0.00    +0.000 C 
ATOM      2  C   UNL     1       6.389   7.282  17.390  0.00  0.00    +0.000 C 
ATOM      3  C   UNL     1       5.989   6.780  16.039  0.00  0.00    +0.000 C 
ATOM      4  O   UNL     1       5.175   7.355  15.338  0.00  0.00    +0.000 OA
ATOM      5  N   UNL     1       6.506   5.558  15.751  0.00  0.00    +0.000 N 
ATOM      6  C   UNL     1       7.332   5.206  16.774  0.00  0.00    +0.000 C 
ATOM      7  O   UNL     1       8.003   4.186  16.787  0.00  0.00    +0.000 OA
ENDROOT
BRANCH   5   8
ATOM      8  C   UNL     1       6.245   4.772  14.555  0.00  0.00    +0.000 A 
ATOM      9  C   UNL     1       7.163   4.756  13.485  0.00  0.00    +0.000 A 
ATOM     10  C   UNL     1       6.907   4.016  12.331  0.00  0.00    +0.000 A 
ATOM     11  C   UNL     1       5.732   3.262  12.209  0.00  0.00    +0.000 A 
ATOM     12  C   UNL     1       4.814   3.258  13.261  0.00  0.00    +0.000 A 
ATOM     13  C   UNL     1       5.066   4.007  14.422  0.00  0.00    +0.000 A 
BRANCH  11  14
ATOM     14  O   UNL     1       5.450   2.540  11.091  0.00  0.00    +0.000 OA
ATOM     15  C   UNL     1       4.217   2.493  10.473  0.00  0.00    +0.000 C 
ENDBRANCH  11  14
ENDBRANCH   5   8
BRANCH   1  16
ATOM     16  S   UNL     1       7.393   5.635  19.523  0.00  0.00    +0.000 S 
BRANCH  16  20
ATOM     17  C   UNL     1       3.169   3.842  19.401  0.00  0.00    +0.000 A 
ATOM     18  C   UNL     1       4.351   3.042  19.330  0.00  0.00    +0.000 A 
ATOM     19  N   UNL     1       5.563   3.634  19.360  0.00  0.00    +0.000 NA
ATOM     20  C   UNL     1       5.719   4.971  19.441  0.00  0.00    +0.000 A 
ATOM     21  N   UNL     1       4.619   5.772  19.517  0.00  0.00    +0.000 NA
ATOM     22  C   UNL     1       3.359   5.244  19.496  0.00  0.00    +0.000 A 
BRANCH  18  23
ATOM     23  O   UNL     1       4.336   1.698  19.183  0.00  0.00    +0.000 OA
ATOM     24  H   UNL     1       4.544   1.062  19.866  0.00  0.00    +0.000 HD
ENDBRANCH  18  23
BRANCH  22  25
ATOM     25  O   UNL     1       2.288   6.066  19.558  0.00  0.00    +0.000 OA
ATOM     26  H   UNL     1       1.383   5.743  19.419  0.00  0.00    +0.000 HD
ENDBRANCH  22  25
BRANCH  17  27
ATOM     27  C   UNL     1       1.750   3.266  19.317  0.00  0.00    +0.000 C 
BRANCH  27  29
ATOM     28  C   UNL     1       1.738   2.636  21.850  0.00  0.00    +0.000 C 
ATOM     29  C   UNL     1       0.945   3.095  20.629  0.00  0.00    +0.000 C 
ENDBRANCH  27  29
ENDBRANCH  17  27
ENDBRANCH  16  20
ENDBRANCH   1  16
TORSDOF 8
ENDMDL
MODEL 6
REMARK VINA RESULT:      -6.7      6.042      7.550
REMARK  Name = 
REMARK  10 active torsions:
REMARK  status: ('A' for Active; 'I' for Inactive)
REMARK    1  A    between atoms: C_1  and  C_2
REMARK    2  A    between atoms: C_2  and  C_3
REMARK    3  A    between atoms: C_3  and  C_4
REMARK    4  A    between atoms: C_5  and  O_6
REMARK    5  A    between atoms: C_8  and  S_9
REMARK    6  A    between atoms: S_9  and  C_10
REMARK    7  A    between atoms: N_14  and  C_15
REMARK    8  A    between atoms: C_18  and  O_19
REMARK    9  A    between atoms: O_19  and  C_20
REMARK   10  A    between atoms: C_26  and  O_27
REMARK                            x       y       z     vdW  Elec       q    Type
REMARK                         _______ _______ _______ _____ _____    ______ ____
ROOT
ATOM      1  C   UNL     1       1.185   8.457  19.280  0.00  0.00    +0.000 C 
ATOM      2  C   UNL     1       1.588   7.568  20.475  0.00  0.00    +0.000 C 
ATOM      3  C   UNL     1       2.537   6.596  19.850  0.00  0.00    +0.000 C 
ATOM      4  O   UNL     1       3.027   5.666  20.467  0.00  0.00    +0.000 OA
ATOM      5  N   UNL     1       2.905   6.946  18.591  0.00  0.00    +0.000 N 
ATOM      6  C   UNL     1       2.195   8.054  18.245  0.00  0.00    +0.000 C 
ATOM      7  O   UNL     1       2.249   8.581  17.145  0.00  0.00    +0.000 OA
ENDROOT
BRANCH   5   8
ATOM      8  C   UNL     1       3.867   6.251  17.750  0.00  0.00    +0.000 A 
ATOM      9  C   UNL     1       5.037   6.898  17.301  0.00  0.00    +0.000 A 
ATOM     10  C   UNL     1       5.952   6.238  16.481  0.00  0.00    +0.000 A 
ATOM     11  C   UNL     1       5.736   4.911  16.088  0.00  0.00    +0.000 A 
ATOM     12  C   UNL     1       4.587   4.250  16.528  0.00  0.00    +0.000 A 
ATOM     13  C   UNL     1       3.659   4.914  17.349  0.00  0.00    +0.000 A 
BRANCH  11  14
ATOM     14  O   UNL     1       6.604   4.246  15.280  0.00  0.00    +0.000 OA
ATOM     15  C   UNL     1       6.385   3.968  13.946  0.00  0.00    +0.000 C 
ENDBRANCH  11  14
ENDBRANCH   5   8
BRANCH   1  16
ATOM     16  S   UNL     1       1.188  10.274  19.588  0.00  0.00    +0.000 S 
BRANCH  16  20
ATOM     17  C   UNL     1      -2.932  11.357  17.881  0.00  0.00    +0.000 A 
ATOM     18  C   UNL     1      -2.384  11.992  19.037  0.00  0.00    +0.000 A 
ATOM     19  N   UNL     1      -1.170  11.618  19.494  0.00  0.00    +0.000 NA
ATOM     20  C   UNL     1      -0.440  10.646  18.910  0.00  0.00    +0.000 A 
ATOM     21  N   UNL     1      -0.922  10.017  17.802  0.00  0.00    +0.000 NA
ATOM     22  C   UNL     1      -2.142  10.346  17.280  0.00  0.00    +0.000 A 
BRANCH  18  23
ATOM     23  O   UNL     1      -3.036  12.935  19.753  0.00  0.00    +0.000 OA
ATOM     24  H   UNL     1      -3.687  13.544  19.408  0.00  0.00    +0.000 HD
ENDBRANCH  18  23
BRANCH  22  25
ATOM     25  O   UNL     1      -2.599   9.694  16.187  0.00  0.00    +0.000 OA
ATOM     26  H   UNL     1      -3.393   9.136  16.216  0.00  0.00    +0.000 HD
ENDBRANCH  22  25
BRANCH  17  27
ATOM     27  C   UNL     1      -4.326  11.673  17.322  0.00  0.00    +0.000 C 
BRANCH  27  29
ATOM     28  C   UNL     1      -6.863  11.838  17.909  0.00  0.00    +0.000 C 
ATOM     29  C   UNL     1      -5.559  11.054  18.025  0.00  0.00    +0.000 C 
ENDBRANCH  27  29
ENDBRANCH  17  27
ENDBRANCH  16  20
ENDBRANCH   1  16
TORSDOF 8
ENDMDL
MODEL 7
REMARK VINA RESULT:      -6.5      6.767      8.460
REMARK  Name = 
REMARK  10 active torsions:
REMARK  status: ('A' for Active; 'I' for Inactive)
REMARK    1  A    between atoms: C_1  and  C_2
REMARK    2  A    between atoms: C_2  and  C_3
REMARK    3  A    between atoms: C_3  and  C_4
REMARK    4  A    between atoms: C_5  and  O_6
REMARK    5  A    between atoms: C_8  and  S_9
REMARK    6  A    between atoms: S_9  and  C_10
REMARK    7  A    between atoms: N_14  and  C_15
REMARK    8  A    between atoms: C_18  and  O_19
REMARK    9  A    between atoms: O_19  and  C_20
REMARK   10  A    between atoms: C_26  and  O_27
REMARK                            x       y       z     vdW  Elec       q    Type
REMARK                         _______ _______ _______ _____ _____    ______ ____
ROOT
ATOM      1  C   UNL     1       0.901   9.795  19.329  0.00  0.00    +0.000 C 
ATOM      2  C   UNL     1       1.033   9.008  20.649  0.00  0.00    +0.000 C 
ATOM      3  C   UNL     1       1.683   7.736  20.205  0.00  0.00    +0.000 C 
ATOM      4  O   UNL     1       1.892   6.806  20.963  0.00  0.00    +0.000 OA
ATOM      5  N   UNL     1       2.144   7.792  18.929  0.00  0.00    +0.000 N 
ATOM      6  C   UNL     1       1.770   8.991  18.405  0.00  0.00    +0.000 C 
ATOM      7  O   UNL     1       1.976   9.322  17.249  0.00  0.00    +0.000 OA
ENDROOT
BRANCH   5   8
ATOM      8  C   UNL     1       2.884   6.750  18.235  0.00  0.00    +0.000 A 
ATOM      9  C   UNL     1       2.384   5.434  18.160  0.00  0.00    +0.000 A 
ATOM     10  C   UNL     1       3.101   4.430  17.508  0.00  0.00    +0.000 A 
ATOM     11  C   UNL     1       4.334   4.706  16.904  0.00  0.00    +0.000 A 
ATOM     12  C   UNL     1       4.843   6.005  16.960  0.00  0.00    +0.000 A 
ATOM     13  C   UNL     1       4.127   7.018  17.621  0.00  0.00    +0.000 A 
BRANCH  11  14
ATOM     14  O   UNL     1       5.060   3.746  16.272  0.00  0.00    +0.000 OA
ATOM     15  C   UNL     1       6.218   3.975  15.557  0.00  0.00    +0.000 C 
ENDBRANCH  11  14
ENDBRANCH   5   8
BRANCH   1  16
ATOM     16  S   UNL     1       1.402  11.568  19.390  0.00  0.00    +0.000 S 
BRANCH  16  20
ATOM     17  C   UNL     1      -2.164  13.279  21.719  0.00  0.00    +0.000 A 
ATOM     18  C   UNL     1      -0.880  13.074  22.312  0.00  0.00    +0.000 A 
ATOM     19  N   UNL     1       0.124  12.556  21.574  0.00  0.00    +0.000 NA
ATOM     20  C   UNL     1      -0.031  12.202  20.281  0.00  0.00    +0.000 A 
ATOM     21  N   UNL     1      -1.236  12.386  19.674  0.00  0.00    +0.000 NA
ATOM     22  C   UNL     1      -2.297  12.909  20.358  0.00  0.00    +0.000 A 
BRANCH  18  23
ATOM     23  O   UNL     1      -0.607  13.325  23.612  0.00  0.00    +0.000 OA
ATOM     24  H   UNL     1       0.089  13.896  23.934  0.00  0.00    +0.000 HD
ENDBRANCH  18  23
BRANCH  22  25
ATOM     25  O   UNL     1      -3.485  13.066  19.730  0.00  0.00    +0.000 OA
ATOM     26  H   UNL     1      -3.543  13.334  18.799  0.00  0.00    +0.000 HD
ENDBRANCH  22  25
BRANCH  17  27
ATOM     27  C   UNL     1      -3.379  13.807  22.492  0.00  0.00    +0.000 C 
BRANCH  27  29
ATOM     28  C   UNL     1      -4.242  12.634  24.658  0.00  0.00    +0.000 C 
ATOM     29  C   UNL     1      -4.341  12.782  23.142  0.00  0.00    +0.000 C 
ENDBRANCH  27  29
ENDBRANCH  17  27
ENDBRANCH  16  20
ENDBRANCH   1  16
TORSDOF 8
ENDMDL
MODEL 8
REMARK VINA RESULT:      -6.5      6.109      7.765
REMARK  Name = 
REMARK  10 active torsions:
REMARK  status: ('A' for Active; 'I' for Inactive)
REMARK    1  A    between atoms: C_1  and  C_2
REMARK    2  A    between atoms: C_2  and  C_3
REMARK    3  A    between atoms: C_3  and  C_4
REMARK    4  A    between atoms: C_5  and  O_6
REMARK    5  A    between atoms: C_8  and  S_9
REMARK    6  A    between atoms: S_9  and  C_10
REMARK    7  A    between atoms: N_14  and  C_15
REMARK    8  A    between atoms: C_18  and  O_19
REMARK    9  A    between atoms: O_19  and  C_20
REMARK   10  A    between atoms: C_26  and  O_27
REMARK                            x       y       z     vdW  Elec       q    Type
REMARK                         _______ _______ _______ _____ _____    ______ ____
ROOT
ATOM      1  C   UNL     1       1.076   8.732  19.419  0.00  0.00    +0.000 C 
ATOM      2  C   UNL     1       1.456   7.842  20.620  0.00  0.00    +0.000 C 
ATOM      3  C   UNL     1       2.319   6.796  19.988  0.00  0.00    +0.000 C 
ATOM      4  O   UNL     1       2.765   5.848  20.609  0.00  0.00    +0.000 OA
ATOM      5  N   UNL     1       2.669   7.096  18.711  0.00  0.00    +0.000 N 
ATOM      6  C   UNL     1       2.023   8.243  18.363  0.00  0.00    +0.000 C 
ATOM      7  O   UNL     1       2.077   8.744  17.251  0.00  0.00    +0.000 OA
ENDROOT
BRANCH   5   8
ATOM      8  C   UNL     1       3.555   6.322  17.856  0.00  0.00    +0.000 A 
ATOM      9  C   UNL     1       3.297   4.962  17.589  0.00  0.00    +0.000 A 
ATOM     10  C   UNL     1       4.155   4.214  16.782  0.00  0.00    +0.000 A 
ATOM     11  C   UNL     1       5.292   4.798  16.209  0.00  0.00    +0.000 A 
ATOM     12  C   UNL     1       5.561   6.146  16.455  0.00  0.00    +0.000 A 
ATOM     13  C   UNL     1       4.703   6.901  17.273  0.00  0.00    +0.000 A 
BRANCH  11  14
ATOM     14  O   UNL     1       6.152   4.091  15.429  0.00  0.00    +0.000 OA
ATOM     15  C   UNL     1       6.565   4.470  14.168  0.00  0.00    +0.000 C 
ENDBRANCH  11  14
ENDBRANCH   5   8
BRANCH   1  16
ATOM     16  S   UNL     1       1.210  10.551  19.688  0.00  0.00    +0.000 S 
BRANCH  16  20
ATOM     17  C   UNL     1      -3.125  11.549  18.554  0.00  0.00    +0.000 A 
ATOM     18  C   UNL     1      -2.431  10.414  18.032  0.00  0.00    +0.000 A 
ATOM     19  N   UNL     1      -1.152  10.184  18.398  0.00  0.00    +0.000 NA
ATOM     20  C   UNL     1      -0.479  10.996  19.238  0.00  0.00    +0.000 A 
ATOM     21  N   UNL     1      -1.103  12.087  19.765  0.00  0.00    +0.000 NA
ATOM     22  C   UNL     1      -2.398  12.380  19.442  0.00  0.00    +0.000 A 
BRANCH  18  23
ATOM     23  O   UNL     1      -2.967   9.558  17.134  0.00  0.00    +0.000 OA
ATOM     24  H   UNL     1      -3.261   8.668  17.323  0.00  0.00    +0.000 HD
ENDBRANCH  18  23
BRANCH  22  25
ATOM     25  O   UNL     1      -2.985  13.478  19.970  0.00  0.00    +0.000 OA
ATOM     26  H   UNL     1      -2.469  14.185  20.391  0.00  0.00    +0.000 HD
ENDBRANCH  22  25
BRANCH  17  27
ATOM     27  C   UNL     1      -4.557  11.924  18.153  0.00  0.00    +0.000 C 
BRANCH  27  29
ATOM     28  C   UNL     1      -6.642  10.491  18.793  0.00  0.00    +0.000 C 
ATOM     29  C   UNL     1      -5.702  11.637  19.156  0.00  0.00    +0.000 C 
ENDBRANCH  27  29
ENDBRANCH  17  27
ENDBRANCH  16  20
ENDBRANCH   1  16
TORSDOF 8
ENDMDL
MODEL 9
REMARK VINA RESULT:      -6.3      6.784     10.561
REMARK  Name = 
REMARK  10 active torsions:
REMARK  status: ('A' for Active; 'I' for Inactive)
REMARK    1  A    between atoms: C_1  and  C_2
REMARK    2  A    between atoms: C_2  and  C_3
REMARK    3  A    between atoms: C_3  and  C_4
REMARK    4  A    between atoms: C_5  and  O_6
REMARK    5  A    between atoms: C_8  and  S_9
REMARK    6  A    between atoms: S_9  and  C_10
REMARK    7  A    between atoms: N_14  and  C_15
REMARK    8  A    between atoms: C_18  and  O_19
REMARK    9  A    between atoms: O_19  and  C_20
REMARK   10  A    between atoms: C_26  and  O_27
REMARK                            x       y       z     vdW  Elec       q    Type
REMARK                         _______ _______ _______ _____ _____    ______ ____
ROOT
ATOM      1  C   UNL     1       0.450   9.757  18.914  0.00  0.00    +0.000 C 
ATOM      2  C   UNL     1      -0.782  10.318  18.173  0.00  0.00    +0.000 C 
ATOM      3  C   UNL     1      -1.392  11.221  19.198  0.00  0.00    +0.000 C 
ATOM      4  O   UNL     1      -2.446  11.804  19.016  0.00  0.00    +0.000 OA
ATOM      5  N   UNL     1      -0.584  11.434  20.268  0.00  0.00    +0.000 N 
ATOM      6  C   UNL     1       0.523  10.657  20.113  0.00  0.00    +0.000 C 
ATOM      7  O   UNL     1       1.416  10.571  20.941  0.00  0.00    +0.000 OA
ENDROOT
BRANCH   5   8
ATOM      8  C   UNL     1      -0.857  12.317  21.392  0.00  0.00    +0.000 A 
ATOM      9  C   UNL     1      -0.228  13.575  21.494  0.00  0.00    +0.000 A 
ATOM     10  C   UNL     1      -0.477  14.416  22.579  0.00  0.00    +0.000 A 
ATOM     11  C   UNL     1      -1.365  14.034  23.593  0.00  0.00    +0.000 A 
ATOM     12  C   UNL     1      -2.004  12.795  23.506  0.00  0.00    +0.000 A 
ATOM     13  C   UNL     1      -1.751  11.943  22.418  0.00  0.00    +0.000 A 
BRANCH  11  14
ATOM     14  O   UNL     1      -1.618  14.827  24.668  0.00  0.00    +0.000 OA
ATOM     15  C   UNL     1      -2.823  14.886  25.338  0.00  0.00    +0.000 C 
ENDBRANCH  11  14
ENDBRANCH   5   8
BRANCH   1  16
ATOM     16  S   UNL     1       2.027   9.739  17.960  0.00  0.00    +0.000 S 
BRANCH  16  20
ATOM     17  C   UNL     1       3.207   5.431  19.014  0.00  0.00    +0.000 A 
ATOM     18  C   UNL     1       2.393   6.240  19.865  0.00  0.00    +0.000 A 
ATOM     19  N   UNL     1       2.092   7.504  19.501  0.00  0.00    +0.000 NA
ATOM     20  C   UNL     1       2.542   8.058  18.356  0.00  0.00    +0.000 A 
ATOM     21  N   UNL     1       3.316   7.321  17.511  0.00  0.00    +0.000 NA
ATOM     22  C   UNL     1       3.658   6.033  17.813  0.00  0.00    +0.000 A 
BRANCH  18  23
ATOM     23  O   UNL     1       1.930   5.830  21.067  0.00  0.00    +0.000 OA
ATOM     24  H   UNL     1       1.056   5.483  21.237  0.00  0.00    +0.000 HD
ENDBRANCH  18  23
BRANCH  22  25
ATOM     25  O   UNL     1       4.440   5.332  16.961  0.00  0.00    +0.000 OA
ATOM     26  H   UNL     1       4.081   4.909  16.164  0.00  0.00    +0.000 HD
ENDBRANCH  22  25
BRANCH  17  27
ATOM     27  C   UNL     1       3.649   4.006  19.369  0.00  0.00    +0.000 C 
BRANCH  27  29
ATOM     28  C   UNL     1       2.567   2.280  17.738  0.00  0.00    +0.000 C 
ATOM     29  C   UNL     1       2.644   2.847  19.152  0.00  0.00    +0.000 C 
ENDBRANCH  27  29
ENDBRANCH  17  27
ENDBRANCH  16  20
ENDBRANCH   1  16
TORSDOF 8
ENDMDL
