MODEL 1
REMARK VINA RESULT:      -9.6      0.000      0.000
REMARK  Name = 
REMARK  8 active torsions:
REMARK  status: ('A' for Active; 'I' for Inactive)
REMARK    1  A    between atoms: C_1  and  N_2
REMARK    2  A    between atoms: C_3  and  C_5
REMARK    3  A    between atoms: C_7  and  O_8
REMARK    4  A    between atoms: O_8  and  C_9
REMARK    5  A    between atoms: C_12  and  C_13
REMARK    6  A    between atoms: N_15  and  C_16
REMARK    7  A    between atoms: C_16  and  N_17
REMARK    8  A    between atoms: C_19  and  C_20
REMARK                            x       y       z     vdW  Elec       q    Type
REMARK                         _______ _______ _______ _____ _____    ______ ____
ROOT
ATOM      1  C   UNL     1       3.418   6.008  18.668  0.00  0.00    +0.000 A 
ATOM      2  C   UNL     1       2.541   6.159  19.747  0.00  0.00    +0.000 A 
ATOM      3  C   UNL     1       1.758   7.312  19.864  0.00  0.00    +0.000 A 
ATOM      4  C   UNL     1       1.842   8.323  18.898  0.00  0.00    +0.000 A 
ATOM      5  C   UNL     1       2.719   8.165  17.820  0.00  0.00    +0.000 A 
ATOM      6  C   UNL     1       3.527   7.030  17.722  0.00  0.00    +0.000 A 
ENDROOT
BRANCH   4   7
ATOM      7  C   UNL     1       1.014   9.547  19.028  0.00  0.00    +0.000 C 
ATOM      8  N   UNL     1       0.068   9.869  18.198  0.00  0.00    +0.000 NA
ATOM      9  N   UNL     1      -0.426  11.096  18.610  0.00  0.00    +0.000 N 
ATOM     10  C   UNL     1       0.210  11.584  19.842  0.00  0.00    +0.000 C 
ATOM     11  C   UNL     1       1.236  10.509  20.166  0.00  0.00    +0.000 C 
BRANCH  10  12
ATOM     12  C   UNL     1      -0.763  11.768  20.997  0.00  0.00    +0.000 A 
ATOM     13  C   UNL     1      -0.680  10.991  22.166  0.00  0.00    +0.000 A 
ATOM     14  C   UNL     1      -1.606  11.151  23.198  0.00  0.00    +0.000 A 
ATOM     15  C   UNL     1      -2.607  12.108  23.082  0.00  0.00    +0.000 A 
ATOM     16 CL   UNL     1      -3.756  12.301  24.352  0.00  0.00    +0.000 Cl
ATOM     17  C   UNL     1      -2.690  12.912  21.948  0.00  0.00    +0.000 A 
ATOM     18  C   UNL     1      -1.769  12.744  20.908  0.00  0.00    +0.000 A 
ENDBRANCH  10  12
BRANCH   9  19
ATOM     19  C   UNL     1      -1.360  11.768  17.837  0.00  0.00    +0.000 C 
ATOM     20  S   UNL     1      -2.880  11.238  17.403  0.00  0.00    +0.000 S 
BRANCH  19  21
ATOM     21  N   UNL     1      -0.929  12.983  17.392  0.00  0.00    +0.000 N 
ATOM     22  H   UNL     1      -1.244  13.262  16.471  0.00  0.00    +0.000 HD
ATOM     23  H   UNL     1      -0.588  13.671  18.048  0.00  0.00    +0.000 HD
ENDBRANCH  19  21
ENDBRANCH   9  19
ENDBRANCH   4   7
BRANCH   1  24
ATOM     24  O   UNL     1       4.174   4.855  18.663  0.00  0.00    +0.000 OA
BRANCH  24  27
ATOM     25  C   UNL     1       6.763   4.654  16.065  0.00  0.00    +0.000 A 
ATOM     26  C   UNL     1       5.488   4.656  16.613  0.00  0.00    +0.000 A 
ATOM     27  C   UNL     1       5.379   4.823  17.990  0.00  0.00    +0.000 A 
ATOM     28  C   UNL     1       6.528   4.893  18.769  0.00  0.00    +0.000 A 
ATOM     29  C   UNL     1       7.759   4.849  18.133  0.00  0.00    +0.000 A 
ATOM     30  N   UNL     1       7.913   4.740  16.793  0.00  0.00    +0.000 NA
BRANCH  25  33
ATOM     31  C   UNL     1       6.155   3.431  12.542  0.00  0.00    +0.000 C 
ATOM     32  N   UNL     1       6.132   3.622  13.965  0.00  0.00    +0.000 N 
ATOM     33  C   UNL     1       6.910   4.579  14.576  0.00  0.00    +0.000 C 
ATOM     34  O   UNL     1       7.680   5.319  13.975  0.00  0.00    +0.000 OA
ATOM     35  H   UNL     1       5.538   3.056  14.565  0.00  0.00    +0.000 HD
ENDBRANCH  25  33
ENDBRANCH  24  27
ENDBRANCH   1  24
TORSDOF 7
ENDMDL
MODEL 2
REMARK VINA RESULT:      -9.4      1.938      2.507
REMARK  Name = 
REMARK  8 active torsions:
REMARK  status: ('A' for Active; 'I' for Inactive)
REMARK    1  A    between atoms: C_1  and  N_2
REMARK    2  A    between atoms: C_3  and  C_5
REMARK    3  A    between atoms: C_7  and  O_8
REMARK    4  A    between atoms: O_8  and  C_9
REMARK    5  A    between atoms: C_12  and  C_13
REMARK    6  A    between atoms: N_15  and  C_16
REMARK    7  A    between atoms: C_16  and  N_17
REMARK    8  A    between atoms: C_19  and  C_20
REMARK                            x       y       z     vdW  Elec       q    Type
REMARK                         _______ _______ _______ _____ _____    ______ ____
ROOT
ATOM      1  C   UNL     1       3.285   5.799  18.519  0.00  0.00    +0.000 A 
ATOM      2  C   UNL     1       3.549   6.861  17.647  0.00  0.00    +0.000 A 
ATOM      3  C   UNL     1       2.935   8.104  17.842  0.00  0.00    +0.000 A 
ATOM      4  C   UNL     1       2.055   8.295  18.916  0.00  0.00    +0.000 A 
ATOM      5  C   UNL     1       1.797   7.229  19.785  0.00  0.00    +0.000 A 
ATOM      6  C   UNL     1       2.382   5.980  19.569  0.00  0.00    +0.000 A 
ENDROOT
BRANCH   4   7
ATOM      7  C   UNL     1       1.400   9.611  19.115  0.00  0.00    +0.000 C 
ATOM      8  N   UNL     1       1.770  10.698  18.508  0.00  0.00    +0.000 NA
ATOM      9  N   UNL     1       0.972  11.721  18.994  0.00  0.00    +0.000 N 
ATOM     10  C   UNL     1      -0.037  11.250  19.954  0.00  0.00    +0.000 C 
ATOM     11  C   UNL     1       0.239   9.758  20.062  0.00  0.00    +0.000 C 
BRANCH  10  12
ATOM     12  C   UNL     1      -1.469  11.505  19.505  0.00  0.00    +0.000 A 
ATOM     13  C   UNL     1      -2.319  12.381  20.204  0.00  0.00    +0.000 A 
ATOM     14  C   UNL     1      -3.640  12.571  19.795  0.00  0.00    +0.000 A 
ATOM     15  C   UNL     1      -4.115  11.909  18.669  0.00  0.00    +0.000 A 
ATOM     16 CL   UNL     1      -5.747  12.136  18.169  0.00  0.00    +0.000 Cl
ATOM     17  C   UNL     1      -3.281  11.062  17.942  0.00  0.00    +0.000 A 
ATOM     18  C   UNL     1      -1.961  10.861  18.358  0.00  0.00    +0.000 A 
ENDBRANCH  10  12
BRANCH   9  19
ATOM     19  C   UNL     1       1.222  13.035  18.633  0.00  0.00    +0.000 C 
ATOM     20  S   UNL     1       0.706  14.412  19.417  0.00  0.00    +0.000 S 
BRANCH  19  21
ATOM     21  N   UNL     1       1.959  13.158  17.492  0.00  0.00    +0.000 N 
ATOM     22  H   UNL     1       2.901  12.788  17.522  0.00  0.00    +0.000 HD
ATOM     23  H   UNL     1       1.499  13.319  16.607  0.00  0.00    +0.000 HD
ENDBRANCH  19  21
ENDBRANCH   9  19
ENDBRANCH   4   7
BRANCH   1  24
ATOM     24  O   UNL     1       3.908   4.607  18.220  0.00  0.00    +0.000 OA
BRANCH  24  27
ATOM     25  C   UNL     1       6.600   4.551  15.721  0.00  0.00    +0.000 A 
ATOM     26  C   UNL     1       5.304   4.525  16.217  0.00  0.00    +0.000 A 
ATOM     27  C   UNL     1       5.139   4.609  17.596  0.00  0.00    +0.000 A 
ATOM     28  C   UNL     1       6.256   4.626  18.423  0.00  0.00    +0.000 A 
ATOM     29  C   UNL     1       7.512   4.615  17.836  0.00  0.00    +0.000 A 
ATOM     30  N   UNL     1       7.719   4.586  16.500  0.00  0.00    +0.000 NA
BRANCH  25  33
ATOM     31  C   UNL     1       6.356   3.376  12.139  0.00  0.00    +0.000 C 
ATOM     32  N   UNL     1       6.251   3.501  13.565  0.00  0.00    +0.000 N 
ATOM     33  C   UNL     1       6.806   4.565  14.238  0.00  0.00    +0.000 C 
ATOM     34  O   UNL     1       7.436   5.465  13.693  0.00  0.00    +0.000 OA
ATOM     35  H   UNL     1       5.760   2.807  14.122  0.00  0.00    +0.000 HD
ENDBRANCH  25  33
ENDBRANCH  24  27
ENDBRANCH   1  24
TORSDOF 7
ENDMDL
MODEL 3
REMARK VINA RESULT:      -9.3      2.112      2.710
REMARK  Name = 
REMARK  8 active torsions:
REMARK  status: ('A' for Active; 'I' for Inactive)
REMARK    1  A    between atoms: C_1  and  N_2
REMARK    2  A    between atoms: C_3  and  C_5
REMARK    3  A    between atoms: C_7  and  O_8
REMARK    4  A    between atoms: O_8  and  C_9
REMARK    5  A    between atoms: C_12  and  C_13
REMARK    6  A    between atoms: N_15  and  C_16
REMARK    7  A    between atoms: C_16  and  N_17
REMARK    8  A    between atoms: C_19  and  C_20
REMARK                            x       y       z     vdW  Elec       q    Type
REMARK                         _______ _______ _______ _____ _____    ______ ____
ROOT
ATOM      1  C   UNL     1       3.366   5.834  18.766  0.00  0.00    +0.000 A 
ATOM      2  C   UNL     1       3.480   6.794  17.754  0.00  0.00    +0.000 A 
ATOM      3  C   UNL     1       2.808   8.016  17.862  0.00  0.00    +0.000 A 
ATOM      4  C   UNL     1       2.021   8.292  18.989  0.00  0.00    +0.000 A 
ATOM      5  C   UNL     1       1.913   7.328  19.998  0.00  0.00    +0.000 A 
ATOM      6  C   UNL     1       2.555   6.094  19.872  0.00  0.00    +0.000 A 
ENDROOT
BRANCH   4   7
ATOM      7  C   UNL     1       1.305   9.586  19.097  0.00  0.00    +0.000 C 
ATOM      8  N   UNL     1       1.680  10.670  18.486  0.00  0.00    +0.000 NA
ATOM      9  N   UNL     1       0.810  11.673  18.879  0.00  0.00    +0.000 N 
ATOM     10  C   UNL     1      -0.253  11.190  19.773  0.00  0.00    +0.000 C 
ATOM     11  C   UNL     1       0.069   9.714  19.947  0.00  0.00    +0.000 C 
BRANCH  10  12
ATOM     12  C   UNL     1      -1.653  11.376  19.208  0.00  0.00    +0.000 A 
ATOM     13  C   UNL     1      -2.041  10.796  17.986  0.00  0.00    +0.000 A 
ATOM     14  C   UNL     1      -3.319  11.011  17.468  0.00  0.00    +0.000 A 
ATOM     15  C   UNL     1      -4.230  11.783  18.180  0.00  0.00    +0.000 A 
ATOM     16 CL   UNL     1      -5.805  12.055  17.537  0.00  0.00    +0.000 Cl
ATOM     17  C   UNL     1      -3.879  12.340  19.407  0.00  0.00    +0.000 A 
ATOM     18  C   UNL     1      -2.594  12.136  19.921  0.00  0.00    +0.000 A 
ENDBRANCH  10  12
BRANCH   9  19
ATOM     19  C   UNL     1       1.039  12.985  18.497  0.00  0.00    +0.000 C 
ATOM     20  S   UNL     1       0.240  14.346  19.036  0.00  0.00    +0.000 S 
BRANCH  19  21
ATOM     21  N   UNL     1       2.022  13.120  17.562  0.00  0.00    +0.000 N 
ATOM     22  H   UNL     1       1.823  13.740  16.786  0.00  0.00    +0.000 HD
ATOM     23  H   UNL     1       2.975  12.872  17.789  0.00  0.00    +0.000 HD
ENDBRANCH  19  21
ENDBRANCH   9  19
ENDBRANCH   4   7
BRANCH   1  24
ATOM     24  O   UNL     1       4.034   4.648  18.548  0.00  0.00    +0.000 OA
BRANCH  24  27
ATOM     25  C   UNL     1       6.647   4.527  15.969  0.00  0.00    +0.000 A 
ATOM     26  C   UNL     1       5.368   4.493  16.507  0.00  0.00    +0.000 A 
ATOM     27  C   UNL     1       5.245   4.650  17.885  0.00  0.00    +0.000 A 
ATOM     28  C   UNL     1       6.386   4.744  18.672  0.00  0.00    +0.000 A 
ATOM     29  C   UNL     1       7.622   4.735  18.045  0.00  0.00    +0.000 A 
ATOM     30  N   UNL     1       7.789   4.637  16.706  0.00  0.00    +0.000 NA
BRANCH  25  33
ATOM     31  C   UNL     1       7.968   5.427  12.546  0.00  0.00    +0.000 C 
ATOM     32  N   UNL     1       7.700   5.368  13.955  0.00  0.00    +0.000 N 
ATOM     33  C   UNL     1       6.806   4.464  14.481  0.00  0.00    +0.000 C 
ATOM     34  O   UNL     1       6.167   3.664  13.807  0.00  0.00    +0.000 OA
ATOM     35  H   UNL     1       8.165   5.992  14.608  0.00  0.00    +0.000 HD
ENDBRANCH  25  33
ENDBRANCH  24  27
ENDBRANCH   1  24
TORSDOF 7
ENDMDL
MODEL 4
REMARK VINA RESULT:      -9.2      2.590      3.340
REMARK  Name = 
REMARK  8 active torsions:
REMARK  status: ('A' for Active; 'I' for Inactive)
REMARK    1  A    between atoms: C_1  and  N_2
REMARK    2  A    between atoms: C_3  and  C_5
REMARK    3  A    between atoms: C_7  and  O_8
REMARK    4  A    between atoms: O_8  and  C_9
REMARK    5  A    between atoms: C_12  and  C_13
REMARK    6  A    between atoms: N_15  and  C_16
REMARK    7  A    between atoms: C_16  and  N_17
REMARK    8  A    between atoms: C_19  and  C_20
REMARK                            x       y       z     vdW  Elec       q    Type
REMARK                         _______ _______ _______ _____ _____    ______ ____
ROOT
ATOM      1  C   UNL     1       3.054   5.752  18.797  0.00  0.00    +0.000 A 
ATOM      2  C   UNL     1       2.956   6.810  17.887  0.00  0.00    +0.000 A 
ATOM      3  C   UNL     1       2.278   7.983  18.238  0.00  0.00    +0.000 A 
ATOM      4  C   UNL     1       1.697   8.109  19.508  0.00  0.00    +0.000 A 
ATOM      5  C   UNL     1       1.801   7.048  20.414  0.00  0.00    +0.000 A 
ATOM      6  C   UNL     1       2.447   5.864  20.049  0.00  0.00    +0.000 A 
ENDROOT
BRANCH   4   7
ATOM      7  C   UNL     1       0.974   9.351  19.874  0.00  0.00    +0.000 C 
ATOM      8  N   UNL     1       0.724   9.703  21.099  0.00  0.00    +0.000 NA
ATOM      9  N   UNL     1      -0.015  10.873  21.037  0.00  0.00    +0.000 N 
ATOM     10  C   UNL     1      -0.212  11.352  19.661  0.00  0.00    +0.000 C 
ATOM     11  C   UNL     1       0.478  10.296  18.811  0.00  0.00    +0.000 C 
BRANCH  10  12
ATOM     12  C   UNL     1       0.387  12.728  19.405  0.00  0.00    +0.000 A 
ATOM     13  C   UNL     1       1.754  12.990  19.611  0.00  0.00    +0.000 A 
ATOM     14  C   UNL     1       2.274  14.269  19.406  0.00  0.00    +0.000 A 
ATOM     15  C   UNL     1       1.439  15.290  18.966  0.00  0.00    +0.000 A 
ATOM     16 CL   UNL     1       2.079  16.870  18.721  0.00  0.00    +0.000 Cl
ATOM     17  C   UNL     1       0.090  15.045  18.724  0.00  0.00    +0.000 A 
ATOM     18  C   UNL     1      -0.435  13.767  18.942  0.00  0.00    +0.000 A 
ENDBRANCH  10  12
BRANCH   9  19
ATOM     19  C   UNL     1      -0.552  11.423  22.190  0.00  0.00    +0.000 C 
ATOM     20  S   UNL     1      -0.833  13.036  22.503  0.00  0.00    +0.000 S 
BRANCH  19  21
ATOM     21  N   UNL     1      -0.848  10.501  23.150  0.00  0.00    +0.000 N 
ATOM     22  H   UNL     1      -0.728   9.528  22.893  0.00  0.00    +0.000 HD
ATOM     23  H   UNL     1      -0.880  10.774  24.122  0.00  0.00    +0.000 HD
ENDBRANCH  19  21
ENDBRANCH   9  19
ENDBRANCH   4   7
BRANCH   1  24
ATOM     24  O   UNL     1       3.707   4.626  18.343  0.00  0.00    +0.000 OA
BRANCH  24  27
ATOM     25  C   UNL     1       6.572   4.718  16.046  0.00  0.00    +0.000 A 
ATOM     26  C   UNL     1       5.253   4.572  16.453  0.00  0.00    +0.000 A 
ATOM     27  C   UNL     1       4.974   4.734  17.806  0.00  0.00    +0.000 A 
ATOM     28  C   UNL     1       6.015   4.946  18.703  0.00  0.00    +0.000 A 
ATOM     29  C   UNL     1       7.304   5.045  18.206  0.00  0.00    +0.000 A 
ATOM     30  N   UNL     1       7.616   4.945  16.893  0.00  0.00    +0.000 NA
BRANCH  25  33
ATOM     31  C   UNL     1       6.406   3.486  12.478  0.00  0.00    +0.000 C 
ATOM     32  N   UNL     1       6.216   3.673  13.889  0.00  0.00    +0.000 N 
ATOM     33  C   UNL     1       6.889   4.651  14.583  0.00  0.00    +0.000 C 
ATOM     34  O   UNL     1       7.700   5.416  14.074  0.00  0.00    +0.000 OA
ATOM     35  H   UNL     1       5.575   3.087  14.418  0.00  0.00    +0.000 HD
ENDBRANCH  25  33
ENDBRANCH  24  27
ENDBRANCH   1  24
TORSDOF 7
ENDMDL
MODEL 5
REMARK VINA RESULT:      -9.2      2.509      3.259
REMARK  Name = 
REMARK  8 active torsions:
REMARK  status: ('A' for Active; 'I' for Inactive)
REMARK    1  A    between atoms: C_1  and  N_2
REMARK    2  A    between atoms: C_3  and  C_5
REMARK    3  A    between atoms: C_7  and  O_8
REMARK    4  A    between atoms: O_8  and  C_9
REMARK    5  A    between atoms: C_12  and  C_13
REMARK    6  A    between atoms: N_15  and  C_16
REMARK    7  A    between atoms: C_16  and  N_17
REMARK    8  A    between atoms: C_19  and  C_20
REMARK                            x       y       z     vdW  Elec       q    Type
REMARK                         _______ _______ _______ _____ _____    ______ ____
ROOT
ATOM      1  C   UNL     1       3.315   5.760  18.589  0.00  0.00    +0.000 A 
ATOM      2  C   UNL     1       2.600   5.812  19.790  0.00  0.00    +0.000 A 
ATOM      3  C   UNL     1       1.890   6.966  20.139  0.00  0.00    +0.000 A 
ATOM      4  C   UNL     1       1.886   8.077  19.284  0.00  0.00    +0.000 A 
ATOM      5  C   UNL     1       2.601   8.017  18.083  0.00  0.00    +0.000 A 
ATOM      6  C   UNL     1       3.338   6.878  17.753  0.00  0.00    +0.000 A 
ENDROOT
BRANCH   4   7
ATOM      7  C   UNL     1       1.137   9.302  19.660  0.00  0.00    +0.000 C 
ATOM      8  N   UNL     1       0.684   9.529  20.856  0.00  0.00    +0.000 NA
ATOM      9  N   UNL     1      -0.006  10.729  20.801  0.00  0.00    +0.000 N 
ATOM     10  C   UNL     1       0.053  11.362  19.476  0.00  0.00    +0.000 C 
ATOM     11  C   UNL     1       0.858  10.376  18.643  0.00  0.00    +0.000 C 
BRANCH  10  12
ATOM     12  C   UNL     1       0.718  12.731  19.485  0.00  0.00    +0.000 A 
ATOM     13  C   UNL     1       0.103  13.856  18.907  0.00  0.00    +0.000 A 
ATOM     14  C   UNL     1       0.748  15.094  18.894  0.00  0.00    +0.000 A 
ATOM     15  C   UNL     1       2.000  15.225  19.484  0.00  0.00    +0.000 A 
ATOM     16 CL   UNL     1       2.800  16.751  19.460  0.00  0.00    +0.000 Cl
ATOM     17  C   UNL     1       2.614  14.132  20.091  0.00  0.00    +0.000 A 
ATOM     18  C   UNL     1       1.974  12.888  20.094  0.00  0.00    +0.000 A 
ENDBRANCH  10  12
BRANCH   9  19
ATOM     19  C   UNL     1      -0.725  11.172  21.900  0.00  0.00    +0.000 C 
ATOM     20  S   UNL     1      -1.723  12.505  21.980  0.00  0.00    +0.000 S 
BRANCH  19  21
ATOM     21  N   UNL     1      -0.545  10.411  23.016  0.00  0.00    +0.000 N 
ATOM     22  H   UNL     1      -0.148  10.879  23.822  0.00  0.00    +0.000 HD
ATOM     23  H   UNL     1      -1.053   9.544  23.125  0.00  0.00    +0.000 HD
ENDBRANCH  19  21
ENDBRANCH   9  19
ENDBRANCH   4   7
BRANCH   1  24
ATOM     24  O   UNL     1       4.013   4.594  18.354  0.00  0.00    +0.000 OA
BRANCH  24  27
ATOM     25  C   UNL     1       6.719   4.597  15.870  0.00  0.00    +0.000 A 
ATOM     26  C   UNL     1       5.423   4.521  16.361  0.00  0.00    +0.000 A 
ATOM     27  C   UNL     1       5.246   4.640  17.736  0.00  0.00    +0.000 A 
ATOM     28  C   UNL     1       6.355   4.742  18.567  0.00  0.00    +0.000 A 
ATOM     29  C   UNL     1       7.613   4.777  17.986  0.00  0.00    +0.000 A 
ATOM     30  N   UNL     1       7.830   4.716  16.652  0.00  0.00    +0.000 NA
BRANCH  25  33
ATOM     31  C   UNL     1       6.340   3.441  12.293  0.00  0.00    +0.000 C 
ATOM     32  N   UNL     1       6.245   3.589  13.718  0.00  0.00    +0.000 N 
ATOM     33  C   UNL     1       6.933   4.574  14.388  0.00  0.00    +0.000 C 
ATOM     34  O   UNL     1       7.680   5.378  13.842  0.00  0.00    +0.000 OA
ATOM     35  H   UNL     1       5.663   2.970  14.276  0.00  0.00    +0.000 HD
ENDBRANCH  25  33
ENDBRANCH  24  27
ENDBRANCH   1  24
TORSDOF 7
ENDMDL
MODEL 6
REMARK VINA RESULT:      -9.1      1.167      1.210
REMARK  Name = 
REMARK  8 active torsions:
REMARK  status: ('A' for Active; 'I' for Inactive)
REMARK    1  A    between atoms: C_1  and  N_2
REMARK    2  A    between atoms: C_3  and  C_5
REMARK    3  A    between atoms: C_7  and  O_8
REMARK    4  A    between atoms: O_8  and  C_9
REMARK    5  A    between atoms: C_12  and  C_13
REMARK    6  A    between atoms: N_15  and  C_16
REMARK    7  A    between atoms: C_16  and  N_17
REMARK    8  A    between atoms: C_19  and  C_20
REMARK                            x       y       z     vdW  Elec       q    Type
REMARK                         _______ _______ _______ _____ _____    ______ ____
ROOT
ATOM      1  C   UNL     1       3.234   6.329  18.717  0.00  0.00    +0.000 A 
ATOM      2  C   UNL     1       2.435   6.600  19.833  0.00  0.00    +0.000 A 
ATOM      3  C   UNL     1       1.670   7.770  19.887  0.00  0.00    +0.000 A 
ATOM      4  C   UNL     1       1.694   8.678  18.819  0.00  0.00    +0.000 A 
ATOM      5  C   UNL     1       2.494   8.400  17.706  0.00  0.00    +0.000 A 
ATOM      6  C   UNL     1       3.285   7.249  17.669  0.00  0.00    +0.000 A 
ENDROOT
BRANCH   4   7
ATOM      7  C   UNL     1       0.887   9.921  18.882  0.00  0.00    +0.000 C 
ATOM      8  N   UNL     1      -0.344  10.001  18.474  0.00  0.00    +0.000 NA
ATOM      9  N   UNL     1      -0.734  11.321  18.633  0.00  0.00    +0.000 N 
ATOM     10  C   UNL     1       0.309  12.154  19.250  0.00  0.00    +0.000 C 
ATOM     11  C   UNL     1       1.472  11.191  19.440  0.00  0.00    +0.000 C 
BRANCH  10  12
ATOM     12  C   UNL     1      -0.109  12.766  20.579  0.00  0.00    +0.000 A 
ATOM     13  C   UNL     1      -0.581  11.976  21.642  0.00  0.00    +0.000 A 
ATOM     14  C   UNL     1      -0.994  12.562  22.839  0.00  0.00    +0.000 A 
ATOM     15  C   UNL     1      -0.913  13.941  22.995  0.00  0.00    +0.000 A 
ATOM     16 CL   UNL     1      -1.431  14.666  24.469  0.00  0.00    +0.000 Cl
ATOM     17  C   UNL     1      -0.418  14.741  21.968  0.00  0.00    +0.000 A 
ATOM     18  C   UNL     1      -0.015  14.155  20.763  0.00  0.00    +0.000 A 
ENDBRANCH  10  12
BRANCH   9  19
ATOM     19  C   UNL     1      -1.961  11.749  18.154  0.00  0.00    +0.000 C 
ATOM     20  S   UNL     1      -3.382  11.899  19.013  0.00  0.00    +0.000 S 
BRANCH  19  21
ATOM     21  N   UNL     1      -1.956  12.050  16.824  0.00  0.00    +0.000 N 
ATOM     22  H   UNL     1      -2.793  12.487  16.458  0.00  0.00    +0.000 HD
ATOM     23  H   UNL     1      -1.080  12.119  16.324  0.00  0.00    +0.000 HD
ENDBRANCH  19  21
ENDBRANCH   9  19
ENDBRANCH   4   7
BRANCH   1  24
ATOM     24  O   UNL     1       3.979   5.171  18.777  0.00  0.00    +0.000 OA
BRANCH  24  27
ATOM     25  C   UNL     1       6.680   4.854  16.308  0.00  0.00    +0.000 A 
ATOM     26  C   UNL     1       5.383   4.877  16.799  0.00  0.00    +0.000 A 
ATOM     27  C   UNL     1       5.213   5.111  18.160  0.00  0.00    +0.000 A 
ATOM     28  C   UNL     1       6.327   5.225  18.984  0.00  0.00    +0.000 A 
ATOM     29  C   UNL     1       7.584   5.156  18.405  0.00  0.00    +0.000 A 
ATOM     30  N   UNL     1       7.797   4.981  17.081  0.00  0.00    +0.000 NA
BRANCH  25  33
ATOM     31  C   UNL     1       6.247   3.441  12.831  0.00  0.00    +0.000 C 
ATOM     32  N   UNL     1       6.160   3.703  14.240  0.00  0.00    +0.000 N 
ATOM     33  C   UNL     1       6.892   4.706  14.832  0.00  0.00    +0.000 C 
ATOM     34  O   UNL     1       7.673   5.432  14.227  0.00  0.00    +0.000 OA
ATOM     35  H   UNL     1       5.552   3.156  14.843  0.00  0.00    +0.000 HD
ENDBRANCH  25  33
ENDBRANCH  24  27
ENDBRANCH   1  24
TORSDOF 7
ENDMDL
MODEL 7
REMARK VINA RESULT:      -9.1      0.612      1.049
REMARK  Name = 
REMARK  8 active torsions:
REMARK  status: ('A' for Active; 'I' for Inactive)
REMARK    1  A    between atoms: C_1  and  N_2
REMARK    2  A    between atoms: C_3  and  C_5
REMARK    3  A    between atoms: C_7  and  O_8
REMARK    4  A    between atoms: O_8  and  C_9
REMARK    5  A    between atoms: C_12  and  C_13
REMARK    6  A    between atoms: N_15  and  C_16
REMARK    7  A    between atoms: C_16  and  N_17
REMARK    8  A    between atoms: C_19  and  C_20
REMARK                            x       y       z     vdW  Elec       q    Type
REMARK                         _______ _______ _______ _____ _____    ______ ____
ROOT
ATOM      1  C   UNL     1       3.192   6.033  18.898  0.00  0.00    +0.000 A 
ATOM      2  C   UNL     1       3.269   6.966  17.858  0.00  0.00    +0.000 A 
ATOM      3  C   UNL     1       2.570   8.175  17.941  0.00  0.00    +0.000 A 
ATOM      4  C   UNL     1       1.789   8.462  19.070  0.00  0.00    +0.000 A 
ATOM      5  C   UNL     1       1.717   7.525  20.106  0.00  0.00    +0.000 A 
ATOM      6  C   UNL     1       2.388   6.304  20.007  0.00  0.00    +0.000 A 
ENDROOT
BRANCH   4   7
ATOM      7  C   UNL     1       1.043   9.742  19.151  0.00  0.00    +0.000 C 
ATOM      8  N   UNL     1       0.029  10.033  18.394  0.00  0.00    +0.000 NA
ATOM      9  N   UNL     1      -0.356  11.323  18.718  0.00  0.00    +0.000 N 
ATOM     10  C   UNL     1       0.435  11.897  19.817  0.00  0.00    +0.000 C 
ATOM     11  C   UNL     1       1.436  10.800  20.148  0.00  0.00    +0.000 C 
BRANCH  10  12
ATOM     12  C   UNL     1      -0.396  12.258  21.040  0.00  0.00    +0.000 A 
ATOM     13  C   UNL     1      -1.015  11.273  21.831  0.00  0.00    +0.000 A 
ATOM     14  C   UNL     1      -1.803  11.629  22.927  0.00  0.00    +0.000 A 
ATOM     15  C   UNL     1      -1.957  12.971  23.258  0.00  0.00    +0.000 A 
ATOM     16 CL   UNL     1      -2.936  13.411  24.604  0.00  0.00    +0.000 Cl
ATOM     17  C   UNL     1      -1.327  13.961  22.508  0.00  0.00    +0.000 A 
ATOM     18  C   UNL     1      -0.547  13.606  21.403  0.00  0.00    +0.000 A 
ENDBRANCH  10  12
BRANCH   9  19
ATOM     19  C   UNL     1      -1.334  11.968  17.977  0.00  0.00    +0.000 C 
ATOM     20  S   UNL     1      -2.836  11.378  17.560  0.00  0.00    +0.000 S 
BRANCH  19  21
ATOM     21  N   UNL     1      -0.968  13.211  17.551  0.00  0.00    +0.000 N 
ATOM     22  H   UNL     1      -0.053  13.535  17.841  0.00  0.00    +0.000 HD
ATOM     23  H   UNL     1      -1.437  13.633  16.762  0.00  0.00    +0.000 HD
ENDBRANCH  19  21
ENDBRANCH   9  19
ENDBRANCH   4   7
BRANCH   1  24
ATOM     24  O   UNL     1       3.886   4.858  18.705  0.00  0.00    +0.000 OA
BRANCH  24  27
ATOM     25  C   UNL     1       6.618   4.752  16.251  0.00  0.00    +0.000 A 
ATOM     26  C   UNL     1       5.318   4.692  16.732  0.00  0.00    +0.000 A 
ATOM     27  C   UNL     1       5.125   4.881  18.097  0.00  0.00    +0.000 A 
ATOM     28  C   UNL     1       6.226   5.033  18.933  0.00  0.00    +0.000 A 
ATOM     29  C   UNL     1       7.489   5.047  18.363  0.00  0.00    +0.000 A 
ATOM     30  N   UNL     1       7.720   4.919  17.037  0.00  0.00    +0.000 NA
BRANCH  25  33
ATOM     31  C   UNL     1       6.249   3.439  12.728  0.00  0.00    +0.000 C 
ATOM     32  N   UNL     1       6.142   3.656  14.143  0.00  0.00    +0.000 N 
ATOM     33  C   UNL     1       6.848   4.654  14.774  0.00  0.00    +0.000 C 
ATOM     34  O   UNL     1       7.621   5.413  14.201  0.00  0.00    +0.000 OA
ATOM     35  H   UNL     1       5.539   3.078  14.722  0.00  0.00    +0.000 HD
ENDBRANCH  25  33
ENDBRANCH  24  27
ENDBRANCH   1  24
TORSDOF 7
ENDMDL
MODEL 8
REMARK VINA RESULT:      -9.0      1.928      2.508
REMARK  Name = 
REMARK  8 active torsions:
REMARK  status: ('A' for Active; 'I' for Inactive)
REMARK    1  A    between atoms: C_1  and  N_2
REMARK    2  A    between atoms: C_3  and  C_5
REMARK    3  A    between atoms: C_7  and  O_8
REMARK    4  A    between atoms: O_8  and  C_9
REMARK    5  A    between atoms: C_12  and  C_13
REMARK    6  A    between atoms: N_15  and  C_16
REMARK    7  A    between atoms: C_16  and  N_17
REMARK    8  A    between atoms: C_19  and  C_20
REMARK                            x       y       z     vdW  Elec       q    Type
REMARK                         _______ _______ _______ _____ _____    ______ ____
ROOT
ATOM      1  C   UNL     1       3.074   5.907  18.743  0.00  0.00    +0.000 A 
ATOM      2  C   UNL     1       3.064   6.951  17.810  0.00  0.00    +0.000 A 
ATOM      3  C   UNL     1       2.431   8.161  18.112  0.00  0.00    +0.000 A 
ATOM      4  C   UNL     1       1.806   8.340  19.354  0.00  0.00    +0.000 A 
ATOM      5  C   UNL     1       1.821   7.293  20.282  0.00  0.00    +0.000 A 
ATOM      6  C   UNL     1       2.423   6.073  19.966  0.00  0.00    +0.000 A 
ENDROOT
BRANCH   4   7
ATOM      7  C   UNL     1       1.129   9.622  19.668  0.00  0.00    +0.000 C 
ATOM      8  N   UNL     1       1.580  10.783  19.300  0.00  0.00    +0.000 NA
ATOM      9  N   UNL     1       0.722  11.733  19.828  0.00  0.00    +0.000 N 
ATOM     10  C   UNL     1      -0.413  11.139  20.550  0.00  0.00    +0.000 C 
ATOM     11  C   UNL     1      -0.155   9.643  20.455  0.00  0.00    +0.000 C 
BRANCH  10  12
ATOM     12  C   UNL     1      -1.767  11.493  19.952  0.00  0.00    +0.000 A 
ATOM     13  C   UNL     1      -2.177  10.995  18.702  0.00  0.00    +0.000 A 
ATOM     14  C   UNL     1      -3.407  11.363  18.155  0.00  0.00    +0.000 A 
ATOM     15  C   UNL     1      -4.251  12.210  18.865  0.00  0.00    +0.000 A 
ATOM     16 CL   UNL     1      -5.765  12.670  18.187  0.00  0.00    +0.000 Cl
ATOM     17  C   UNL     1      -3.879  12.689  20.119  0.00  0.00    +0.000 A 
ATOM     18  C   UNL     1      -2.641  12.331  20.662  0.00  0.00    +0.000 A 
ENDBRANCH  10  12
BRANCH   9  19
ATOM     19  C   UNL     1       1.020  13.082  19.719  0.00  0.00    +0.000 C 
ATOM     20  S   UNL     1       0.272  14.204  18.739  0.00  0.00    +0.000 S 
BRANCH  19  21
ATOM     21  N   UNL     1       2.060  13.478  20.507  0.00  0.00    +0.000 N 
ATOM     22  H   UNL     1       2.694  14.159  20.106  0.00  0.00    +0.000 HD
ATOM     23  H   UNL     1       2.019  13.341  21.507  0.00  0.00    +0.000 HD
ENDBRANCH  19  21
ENDBRANCH   9  19
ENDBRANCH   4   7
BRANCH   1  24
ATOM     24  O   UNL     1       3.690   4.743  18.336  0.00  0.00    +0.000 OA
BRANCH  24  27
ATOM     25  C   UNL     1       6.570   4.707  16.057  0.00  0.00    +0.000 A 
ATOM     26  C   UNL     1       5.243   4.631  16.453  0.00  0.00    +0.000 A 
ATOM     27  C   UNL     1       4.964   4.785  17.808  0.00  0.00    +0.000 A 
ATOM     28  C   UNL     1       6.010   4.918  18.715  0.00  0.00    +0.000 A 
ATOM     29  C   UNL     1       7.306   4.950  18.226  0.00  0.00    +0.000 A 
ATOM     30  N   UNL     1       7.621   4.856  16.914  0.00  0.00    +0.000 NA
BRANCH  25  33
ATOM     31  C   UNL     1       6.381   3.527  12.473  0.00  0.00    +0.000 C 
ATOM     32  N   UNL     1       6.190   3.702  13.885  0.00  0.00    +0.000 N 
ATOM     33  C   UNL     1       6.893   4.648  14.595  0.00  0.00    +0.000 C 
ATOM     34  O   UNL     1       7.732   5.391  14.099  0.00  0.00    +0.000 OA
ATOM     35  H   UNL     1       5.527   3.132  14.403  0.00  0.00    +0.000 HD
ENDBRANCH  25  33
ENDBRANCH  24  27
ENDBRANCH   1  24
TORSDOF 7
ENDMDL
MODEL 9
REMARK VINA RESULT:      -8.9      2.134      2.607
REMARK  Name = 
REMARK  8 active torsions:
REMARK  status: ('A' for Active; 'I' for Inactive)
REMARK    1  A    between atoms: C_1  and  N_2
REMARK    2  A    between atoms: C_3  and  C_5
REMARK    3  A    between atoms: C_7  and  O_8
REMARK    4  A    between atoms: O_8  and  C_9
REMARK    5  A    between atoms: C_12  and  C_13
REMARK    6  A    between atoms: N_15  and  C_16
REMARK    7  A    between atoms: C_16  and  N_17
REMARK    8  A    between atoms: C_19  and  C_20
REMARK                            x       y       z     vdW  Elec       q    Type
REMARK                         _______ _______ _______ _____ _____    ______ ____
ROOT
ATOM      1  C   UNL     1       3.175   6.110  18.738  0.00  0.00    +0.000 A 
ATOM      2  C   UNL     1       2.467   6.317  19.927  0.00  0.00    +0.000 A 
ATOM      3  C   UNL     1       1.765   7.510  20.132  0.00  0.00    +0.000 A 
ATOM      4  C   UNL     1       1.760   8.504  19.144  0.00  0.00    +0.000 A 
ATOM      5  C   UNL     1       2.468   8.290  17.957  0.00  0.00    +0.000 A 
ATOM      6  C   UNL     1       3.198   7.114  17.768  0.00  0.00    +0.000 A 
ENDROOT
BRANCH   4   7
ATOM      7  C   UNL     1       1.020   9.770  19.367  0.00  0.00    +0.000 C 
ATOM      8  N   UNL     1       1.416  10.924  18.921  0.00  0.00    +0.000 NA
ATOM      9  N   UNL     1       0.509  11.865  19.380  0.00  0.00    +0.000 N 
ATOM     10  C   UNL     1      -0.601  11.266  20.137  0.00  0.00    +0.000 C 
ATOM     11  C   UNL     1      -0.269   9.782  20.146  0.00  0.00    +0.000 C 
BRANCH  10  12
ATOM     12  C   UNL     1      -1.966  11.512  19.511  0.00  0.00    +0.000 A 
ATOM     13  C   UNL     1      -2.922  12.342  20.123  0.00  0.00    +0.000 A 
ATOM     14  C   UNL     1      -4.182  12.523  19.550  0.00  0.00    +0.000 A 
ATOM     15  C   UNL     1      -4.487  11.899  18.346  0.00  0.00    +0.000 A 
ATOM     16 CL   UNL     1      -6.044  12.116  17.643  0.00  0.00    +0.000 Cl
ATOM     17  C   UNL     1      -3.544  11.099  17.705  0.00  0.00    +0.000 A 
ATOM     18  C   UNL     1      -2.286  10.907  18.285  0.00  0.00    +0.000 A 
ENDBRANCH  10  12
BRANCH   9  19
ATOM     19  C   UNL     1       0.742  13.216  19.180  0.00  0.00    +0.000 C 
ATOM     20  S   UNL     1       0.646  14.434  20.314  0.00  0.00    +0.000 S 
BRANCH  19  21
ATOM     21  N   UNL     1       1.061  13.533  17.893  0.00  0.00    +0.000 N 
ATOM     22  H   UNL     1       0.309  13.895  17.319  0.00  0.00    +0.000 HD
ATOM     23  H   UNL     1       2.025  13.687  17.633  0.00  0.00    +0.000 HD
ENDBRANCH  19  21
ENDBRANCH   9  19
ENDBRANCH   4   7
BRANCH   1  24
ATOM     24  O   UNL     1       3.866   4.921  18.649  0.00  0.00    +0.000 OA
BRANCH  24  27
ATOM     25  C   UNL     1       6.565   4.644  16.172  0.00  0.00    +0.000 A 
ATOM     26  C   UNL     1       5.269   4.642  16.668  0.00  0.00    +0.000 A 
ATOM     27  C   UNL     1       5.098   4.884  18.028  0.00  0.00    +0.000 A 
ATOM     28  C   UNL     1       6.212   5.029  18.846  0.00  0.00    +0.000 A 
ATOM     29  C   UNL     1       7.469   4.983  18.263  0.00  0.00    +0.000 A 
ATOM     30  N   UNL     1       7.681   4.802  16.940  0.00  0.00    +0.000 NA
BRANCH  25  33
ATOM     31  C   UNL     1       7.946   5.381  12.733  0.00  0.00    +0.000 C 
ATOM     32  N   UNL     1       7.636   5.403  14.135  0.00  0.00    +0.000 N 
ATOM     33  C   UNL     1       6.774   4.489  14.697  0.00  0.00    +0.000 C 
ATOM     34  O   UNL     1       6.200   3.611  14.063  0.00  0.00    +0.000 OA
ATOM     35  H   UNL     1       8.046   6.095  14.756  0.00  0.00    +0.000 HD
ENDBRANCH  25  33
ENDBRANCH  24  27
ENDBRANCH   1  24
TORSDOF 7
ENDMDL
