MODEL 1
REMARK VINA RESULT:      -6.6      0.000      0.000
REMARK  Name = 
REMARK  8 active torsions:
REMARK  status: ('A' for Active; 'I' for Inactive)
REMARK    1  A    between atoms: C_1  and  O_2
REMARK    2  A    between atoms: O_2  and  C_3
REMARK    3  A    between atoms: C_5  and  C_6
REMARK    4  A    between atoms: C_11  and  C_12
REMARK    5  A    between atoms: C_14  and  O_15
REMARK    6  A    between atoms: O_15  and  C_16
REMARK    7  A    between atoms: C_17  and  O_18
REMARK    8  A    between atoms: O_18  and  C_19
REMARK                            x       y       z     vdW  Elec       q    Type
REMARK                         _______ _______ _______ _____ _____    ______ ____
ROOT
ATOM      1  C   UNL     1       5.646   5.623  16.620  0.00  0.00    +0.000 A 
ATOM      2  C   UNL     1       4.548   4.868  17.072  0.00  0.00    +0.000 A 
ATOM      3  C   UNL     1       4.352   4.556  18.425  0.00  0.00    +0.000 A 
ATOM      4  C   UNL     1       5.408   4.882  19.282  0.00  0.00    +0.000 A 
ATOM      5  C   UNL     1       6.519   5.644  18.867  0.00  0.00    +0.000 A 
ATOM      6  C   UNL     1       6.646   6.040  17.520  0.00  0.00    +0.000 A 
ENDROOT
BRANCH   3   7
ATOM      7  C   UNL     1       3.044   4.010  18.901  0.00  0.00    +0.000 A 
ATOM      8  C   UNL     1       2.154   4.853  19.609  0.00  0.00    +0.000 A 
ATOM      9  C   UNL     1       1.006   4.365  20.240  0.00  0.00    +0.000 A 
ATOM     10  C   UNL     1       0.682   3.021  20.144  0.00  0.00    +0.000 A 
ATOM     11  C   UNL     1       1.503   2.167  19.415  0.00  0.00    +0.000 A 
ATOM     12  C   UNL     1       2.684   2.634  18.805  0.00  0.00    +0.000 A 
ATOM     13  C   UNL     1       3.515   1.600  18.085  0.00  0.00    +0.000 C 
ENDBRANCH   3   7
BRANCH   1  15
ATOM     14  C   UNL     1       6.219   4.888  14.422  0.00  0.00    +0.000 C 
ATOM     15  O   UNL     1       5.773   5.930  15.286  0.00  0.00    +0.000 OA
ENDBRANCH   1  15
BRANCH   5  16
ATOM     16  O   UNL     1       7.339   5.936  19.934  0.00  0.00    +0.000 OA
ATOM     17  C   UNL     1       8.521   5.179  20.136  0.00  0.00    +0.000 C 
ENDBRANCH   5  16
BRANCH   6  18
ATOM     18  O   UNL     1       7.753   6.778  17.201  0.00  0.00    +0.000 OA
ATOM     19  C   UNL     1       7.796   8.159  17.527  0.00  0.00    +0.000 C 
ENDBRANCH   6  18
TORSDOF 4
ENDMDL
MODEL 2
REMARK VINA RESULT:      -6.6      1.683      3.998
REMARK  Name = 
REMARK  8 active torsions:
REMARK  status: ('A' for Active; 'I' for Inactive)
REMARK    1  A    between atoms: C_1  and  O_2
REMARK    2  A    between atoms: O_2  and  C_3
REMARK    3  A    between atoms: C_5  and  C_6
REMARK    4  A    between atoms: C_11  and  C_12
REMARK    5  A    between atoms: C_14  and  O_15
REMARK    6  A    between atoms: O_15  and  C_16
REMARK    7  A    between atoms: C_17  and  O_18
REMARK    8  A    between atoms: O_18  and  C_19
REMARK                            x       y       z     vdW  Elec       q    Type
REMARK                         _______ _______ _______ _____ _____    ______ ____
ROOT
ATOM      1  C   UNL     1       6.734   5.745  16.175  0.00  0.00    +0.000 A 
ATOM      2  C   UNL     1       5.559   5.423  16.880  0.00  0.00    +0.000 A 
ATOM      3  C   UNL     1       4.687   4.405  16.471  0.00  0.00    +0.000 A 
ATOM      4  C   UNL     1       4.955   3.846  15.217  0.00  0.00    +0.000 A 
ATOM      5  C   UNL     1       6.124   4.137  14.486  0.00  0.00    +0.000 A 
ATOM      6  C   UNL     1       7.045   5.090  14.968  0.00  0.00    +0.000 A 
ENDROOT
BRANCH   3   7
ATOM      7  C   UNL     1       3.618   3.900  17.386  0.00  0.00    +0.000 A 
ATOM      8  C   UNL     1       3.487   2.508  17.603  0.00  0.00    +0.000 A 
ATOM      9  C   UNL     1       2.402   1.958  18.293  0.00  0.00    +0.000 A 
ATOM     10  C   UNL     1       1.434   2.790  18.833  0.00  0.00    +0.000 A 
ATOM     11  C   UNL     1       1.552   4.168  18.687  0.00  0.00    +0.000 A 
ATOM     12  C   UNL     1       2.617   4.736  17.962  0.00  0.00    +0.000 A 
ATOM     13  C   UNL     1       2.606   6.240  17.832  0.00  0.00    +0.000 C 
ENDBRANCH   3   7
BRANCH   1  15
ATOM     14  C   UNL     1       7.665   6.887  18.053  0.00  0.00    +0.000 C 
ATOM     15  O   UNL     1       7.572   6.730  16.640  0.00  0.00    +0.000 OA
ENDBRANCH   1  15
BRANCH   5  16
ATOM     16  O   UNL     1       6.205   3.353  13.356  0.00  0.00    +0.000 OA
ATOM     17  C   UNL     1       5.177   3.422  12.382  0.00  0.00    +0.000 C 
ENDBRANCH   5  16
BRANCH   6  18
ATOM     18  O   UNL     1       8.154   5.313  14.198  0.00  0.00    +0.000 OA
ATOM     19  C   UNL     1       8.004   5.686  12.837  0.00  0.00    +0.000 C 
ENDBRANCH   6  18
TORSDOF 4
ENDMDL
MODEL 3
REMARK VINA RESULT:      -6.6      2.584      4.212
REMARK  Name = 
REMARK  8 active torsions:
REMARK  status: ('A' for Active; 'I' for Inactive)
REMARK    1  A    between atoms: C_1  and  O_2
REMARK    2  A    between atoms: O_2  and  C_3
REMARK    3  A    between atoms: C_5  and  C_6
REMARK    4  A    between atoms: C_11  and  C_12
REMARK    5  A    between atoms: C_14  and  O_15
REMARK    6  A    between atoms: O_15  and  C_16
REMARK    7  A    between atoms: C_17  and  O_18
REMARK    8  A    between atoms: O_18  and  C_19
REMARK                            x       y       z     vdW  Elec       q    Type
REMARK                         _______ _______ _______ _____ _____    ______ ____
ROOT
ATOM      1  C   UNL     1       5.411   6.285  16.902  0.00  0.00    +0.000 A 
ATOM      2  C   UNL     1       4.403   7.084  17.471  0.00  0.00    +0.000 A 
ATOM      3  C   UNL     1       3.210   6.550  17.978  0.00  0.00    +0.000 A 
ATOM      4  C   UNL     1       2.996   5.192  17.719  0.00  0.00    +0.000 A 
ATOM      5  C   UNL     1       3.984   4.358  17.159  0.00  0.00    +0.000 A 
ATOM      6  C   UNL     1       5.222   4.896  16.753  0.00  0.00    +0.000 A 
ENDROOT
BRANCH   3   7
ATOM      7  C   UNL     1       2.300   7.380  18.826  0.00  0.00    +0.000 A 
ATOM      8  C   UNL     1       1.909   8.664  18.378  0.00  0.00    +0.000 A 
ATOM      9  C   UNL     1       1.218   9.562  19.197  0.00  0.00    +0.000 A 
ATOM     10  C   UNL     1       0.851   9.187  20.480  0.00  0.00    +0.000 A 
ATOM     11  C   UNL     1       1.171   7.914  20.941  0.00  0.00    +0.000 A 
ATOM     12  C   UNL     1       1.901   7.011  20.144  0.00  0.00    +0.000 A 
ATOM     13  C   UNL     1       2.229   5.680  20.777  0.00  0.00    +0.000 C 
ENDBRANCH   3   7
BRANCH   1  15
ATOM     14  C   UNL     1       7.510   7.286  17.441  0.00  0.00    +0.000 C 
ATOM     15  O   UNL     1       6.577   6.856  16.453  0.00  0.00    +0.000 OA
ENDBRANCH   1  15
BRANCH   5  16
ATOM     16  O   UNL     1       3.565   3.046  17.138  0.00  0.00    +0.000 OA
ATOM     17  C   UNL     1       3.555   2.296  18.342  0.00  0.00    +0.000 C 
ENDBRANCH   5  16
BRANCH   6  18
ATOM     18  O   UNL     1       6.127   4.018  16.220  0.00  0.00    +0.000 OA
ATOM     19  C   UNL     1       6.199   3.849  14.813  0.00  0.00    +0.000 C 
ENDBRANCH   6  18
TORSDOF 4
ENDMDL
MODEL 4
REMARK VINA RESULT:      -6.5      1.840      3.220
REMARK  Name = 
REMARK  8 active torsions:
REMARK  status: ('A' for Active; 'I' for Inactive)
REMARK    1  A    between atoms: C_1  and  O_2
REMARK    2  A    between atoms: O_2  and  C_3
REMARK    3  A    between atoms: C_5  and  C_6
REMARK    4  A    between atoms: C_11  and  C_12
REMARK    5  A    between atoms: C_14  and  O_15
REMARK    6  A    between atoms: O_15  and  C_16
REMARK    7  A    between atoms: C_17  and  O_18
REMARK    8  A    between atoms: O_18  and  C_19
REMARK                            x       y       z     vdW  Elec       q    Type
REMARK                         _______ _______ _______ _____ _____    ______ ____
ROOT
ATOM      1  C   UNL     1       6.232   3.999  14.341  0.00  0.00    +0.000 A 
ATOM      2  C   UNL     1       5.235   3.612  15.256  0.00  0.00    +0.000 A 
ATOM      3  C   UNL     1       5.052   4.253  16.489  0.00  0.00    +0.000 A 
ATOM      4  C   UNL     1       6.035   5.182  16.841  0.00  0.00    +0.000 A 
ATOM      5  C   UNL     1       7.043   5.601  15.950  0.00  0.00    +0.000 A 
ATOM      6  C   UNL     1       7.146   5.019  14.670  0.00  0.00    +0.000 A 
ENDROOT
BRANCH   3   7
ATOM      7  C   UNL     1       3.818   4.012  17.299  0.00  0.00    +0.000 A 
ATOM      8  C   UNL     1       3.336   2.691  17.458  0.00  0.00    +0.000 A 
ATOM      9  C   UNL     1       2.095   2.414  18.040  0.00  0.00    +0.000 A 
ATOM     10  C   UNL     1       1.314   3.449  18.528  0.00  0.00    +0.000 A 
ATOM     11  C   UNL     1       1.774   4.759  18.438  0.00  0.00    +0.000 A 
ATOM     12  C   UNL     1       3.003   5.059  17.820  0.00  0.00    +0.000 A 
ATOM     13  C   UNL     1       3.367   6.523  17.740  0.00  0.00    +0.000 C 
ENDBRANCH   3   7
BRANCH   1  15
ATOM     14  C   UNL     1       5.192   3.345  12.294  0.00  0.00    +0.000 C 
ATOM     15  O   UNL     1       6.346   3.359  13.130  0.00  0.00    +0.000 OA
ENDBRANCH   1  15
BRANCH   5  16
ATOM     16  O   UNL     1       7.792   6.618  16.498  0.00  0.00    +0.000 OA
ATOM     17  C   UNL     1       7.323   7.286  17.658  0.00  0.00    +0.000 C 
ENDBRANCH   5  16
BRANCH   6  18
ATOM     18  O   UNL     1       8.151   5.483  13.866  0.00  0.00    +0.000 OA
ATOM     19  C   UNL     1       7.905   5.699  12.485  0.00  0.00    +0.000 C 
ENDBRANCH   6  18
TORSDOF 4
ENDMDL
MODEL 5
REMARK VINA RESULT:      -6.5      2.891      4.468
REMARK  Name = 
REMARK  8 active torsions:
REMARK  status: ('A' for Active; 'I' for Inactive)
REMARK    1  A    between atoms: C_1  and  O_2
REMARK    2  A    between atoms: O_2  and  C_3
REMARK    3  A    between atoms: C_5  and  C_6
REMARK    4  A    between atoms: C_11  and  C_12
REMARK    5  A    between atoms: C_14  and  O_15
REMARK    6  A    between atoms: O_15  and  C_16
REMARK    7  A    between atoms: C_17  and  O_18
REMARK    8  A    between atoms: O_18  and  C_19
REMARK                            x       y       z     vdW  Elec       q    Type
REMARK                         _______ _______ _______ _____ _____    ______ ____
ROOT
ATOM      1  C   UNL     1       3.590   4.371  17.209  0.00  0.00    +0.000 A 
ATOM      2  C   UNL     1       2.852   5.344  17.909  0.00  0.00    +0.000 A 
ATOM      3  C   UNL     1       3.286   6.671  18.040  0.00  0.00    +0.000 A 
ATOM      4  C   UNL     1       4.584   6.931  17.592  0.00  0.00    +0.000 A 
ATOM      5  C   UNL     1       5.350   5.986  16.879  0.00  0.00    +0.000 A 
ATOM      6  C   UNL     1       4.851   4.685  16.664  0.00  0.00    +0.000 A 
ENDROOT
BRANCH   3   7
ATOM      7  C   UNL     1       2.355   7.733  18.532  0.00  0.00    +0.000 A 
ATOM      8  C   UNL     1       2.116   8.875  17.731  0.00  0.00    +0.000 A 
ATOM      9  C   UNL     1       1.410   9.985  18.204  0.00  0.00    +0.000 A 
ATOM     10  C   UNL     1       0.876   9.971  19.483  0.00  0.00    +0.000 A 
ATOM     11  C   UNL     1       1.044   8.847  20.285  0.00  0.00    +0.000 A 
ATOM     12  C   UNL     1       1.785   7.736  19.838  0.00  0.00    +0.000 A 
ATOM     13  C   UNL     1       1.938   6.599  20.821  0.00  0.00    +0.000 C 
ENDBRANCH   3   7
BRANCH   1  15
ATOM     14  C   UNL     1       3.397   2.179  18.134  0.00  0.00    +0.000 C 
ATOM     15  O   UNL     1       3.103   3.092  17.080  0.00  0.00    +0.000 OA
ENDBRANCH   1  15
BRANCH   5  16
ATOM     16  O   UNL     1       6.530   6.542  16.438  0.00  0.00    +0.000 OA
ATOM     17  C   UNL     1       7.473   7.022  17.382  0.00  0.00    +0.000 C 
ENDBRANCH   5  16
BRANCH   6  18
ATOM     18  O   UNL     1       5.655   3.829  15.963  0.00  0.00    +0.000 OA
ATOM     19  C   UNL     1       5.828   4.012  14.566  0.00  0.00    +0.000 C 
ENDBRANCH   6  18
TORSDOF 4
ENDMDL
MODEL 6
REMARK VINA RESULT:      -6.5      3.321      5.433
REMARK  Name = 
REMARK  8 active torsions:
REMARK  status: ('A' for Active; 'I' for Inactive)
REMARK    1  A    between atoms: C_1  and  O_2
REMARK    2  A    between atoms: O_2  and  C_3
REMARK    3  A    between atoms: C_5  and  C_6
REMARK    4  A    between atoms: C_11  and  C_12
REMARK    5  A    between atoms: C_14  and  O_15
REMARK    6  A    between atoms: O_15  and  C_16
REMARK    7  A    between atoms: C_17  and  O_18
REMARK    8  A    between atoms: O_18  and  C_19
REMARK                            x       y       z     vdW  Elec       q    Type
REMARK                         _______ _______ _______ _____ _____    ______ ____
ROOT
ATOM      1  C   UNL     1       4.691   4.955  18.930  0.00  0.00    +0.000 A 
ATOM      2  C   UNL     1       4.116   6.235  18.833  0.00  0.00    +0.000 A 
ATOM      3  C   UNL     1       2.770   6.436  18.495  0.00  0.00    +0.000 A 
ATOM      4  C   UNL     1       2.074   5.297  18.078  0.00  0.00    +0.000 A 
ATOM      5  C   UNL     1       2.613   3.998  18.168  0.00  0.00    +0.000 A 
ATOM      6  C   UNL     1       3.937   3.807  18.613  0.00  0.00    +0.000 A 
ENDROOT
BRANCH   3   7
ATOM      7  C   UNL     1       2.126   7.772  18.684  0.00  0.00    +0.000 A 
ATOM      8  C   UNL     1       2.237   8.749  17.665  0.00  0.00    +0.000 A 
ATOM      9  C   UNL     1       1.824  10.071  17.850  0.00  0.00    +0.000 A 
ATOM     10  C   UNL     1       1.239  10.452  19.048  0.00  0.00    +0.000 A 
ATOM     11  C   UNL     1       1.064   9.510  20.056  0.00  0.00    +0.000 A 
ATOM     12  C   UNL     1       1.510   8.184  19.902  0.00  0.00    +0.000 A 
ATOM     13  C   UNL     1       1.308   7.271  21.087  0.00  0.00    +0.000 C 
ENDBRANCH   3   7
BRANCH   1  15
ATOM     14  C   UNL     1       6.984   4.932  18.268  0.00  0.00    +0.000 C 
ATOM     15  O   UNL     1       6.007   4.812  19.299  0.00  0.00    +0.000 OA
ENDBRANCH   1  15
BRANCH   5  16
ATOM     16  O   UNL     1       1.674   3.052  17.822  0.00  0.00    +0.000 OA
ATOM     17  C   UNL     1       0.837   2.497  18.824  0.00  0.00    +0.000 C 
ENDBRANCH   5  16
BRANCH   6  18
ATOM     18  O   UNL     1       4.383   2.515  18.671  0.00  0.00    +0.000 OA
ATOM     19  C   UNL     1       4.400   1.832  19.916  0.00  0.00    +0.000 C 
ENDBRANCH   6  18
TORSDOF 4
ENDMDL
MODEL 7
REMARK VINA RESULT:      -6.5      0.487      1.611
REMARK  Name = 
REMARK  8 active torsions:
REMARK  status: ('A' for Active; 'I' for Inactive)
REMARK    1  A    between atoms: C_1  and  O_2
REMARK    2  A    between atoms: O_2  and  C_3
REMARK    3  A    between atoms: C_5  and  C_6
REMARK    4  A    between atoms: C_11  and  C_12
REMARK    5  A    between atoms: C_14  and  O_15
REMARK    6  A    between atoms: O_15  and  C_16
REMARK    7  A    between atoms: C_17  and  O_18
REMARK    8  A    between atoms: O_18  and  C_19
REMARK                            x       y       z     vdW  Elec       q    Type
REMARK                         _______ _______ _______ _____ _____    ______ ____
ROOT
ATOM      1  C   UNL     1       5.737   5.533  16.466  0.00  0.00    +0.000 A 
ATOM      2  C   UNL     1       4.688   4.709  16.913  0.00  0.00    +0.000 A 
ATOM      3  C   UNL     1       4.491   4.404  18.267  0.00  0.00    +0.000 A 
ATOM      4  C   UNL     1       5.507   4.817  19.135  0.00  0.00    +0.000 A 
ATOM      5  C   UNL     1       6.568   5.650  18.726  0.00  0.00    +0.000 A 
ATOM      6  C   UNL     1       6.689   6.034  17.375  0.00  0.00    +0.000 A 
ENDROOT
BRANCH   3   7
ATOM      7  C   UNL     1       3.217   3.774  18.731  0.00  0.00    +0.000 A 
ATOM      8  C   UNL     1       2.894   2.462  18.308  0.00  0.00    +0.000 A 
ATOM      9  C   UNL     1       1.643   1.886  18.548  0.00  0.00    +0.000 A 
ATOM     10  C   UNL     1       0.686   2.587  19.265  0.00  0.00    +0.000 A 
ATOM     11  C   UNL     1       0.981   3.859  19.744  0.00  0.00    +0.000 A 
ATOM     12  C   UNL     1       2.221   4.469  19.477  0.00  0.00    +0.000 A 
ATOM     13  C   UNL     1       2.401   5.872  20.008  0.00  0.00    +0.000 C 
ENDBRANCH   3   7
BRANCH   1  15
ATOM     14  C   UNL     1       6.388   4.805  14.288  0.00  0.00    +0.000 C 
ATOM     15  O   UNL     1       5.864   5.829  15.130  0.00  0.00    +0.000 OA
ENDBRANCH   1  15
BRANCH   5  16
ATOM     16  O   UNL     1       7.347   6.016  19.801  0.00  0.00    +0.000 OA
ATOM     17  C   UNL     1       8.500   5.255  20.121  0.00  0.00    +0.000 C 
ENDBRANCH   5  16
BRANCH   6  18
ATOM     18  O   UNL     1       7.746   6.844  17.062  0.00  0.00    +0.000 OA
ATOM     19  C   UNL     1       7.743   8.200  17.484  0.00  0.00    +0.000 C 
ENDBRANCH   6  18
TORSDOF 4
ENDMDL
MODEL 8
REMARK VINA RESULT:      -6.4      3.546      5.561
REMARK  Name = 
REMARK  8 active torsions:
REMARK  status: ('A' for Active; 'I' for Inactive)
REMARK    1  A    between atoms: C_1  and  O_2
REMARK    2  A    between atoms: O_2  and  C_3
REMARK    3  A    between atoms: C_5  and  C_6
REMARK    4  A    between atoms: C_11  and  C_12
REMARK    5  A    between atoms: C_14  and  O_15
REMARK    6  A    between atoms: O_15  and  C_16
REMARK    7  A    between atoms: C_17  and  O_18
REMARK    8  A    between atoms: O_18  and  C_19
REMARK                            x       y       z     vdW  Elec       q    Type
REMARK                         _______ _______ _______ _____ _____    ______ ____
ROOT
ATOM      1  C   UNL     1       4.085   5.061  18.972  0.00  0.00    +0.000 A 
ATOM      2  C   UNL     1       3.476   6.321  19.117  0.00  0.00    +0.000 A 
ATOM      3  C   UNL     1       2.236   6.492  19.750  0.00  0.00    +0.000 A 
ATOM      4  C   UNL     1       1.550   5.316  20.068  0.00  0.00    +0.000 A 
ATOM      5  C   UNL     1       2.131   4.037  19.945  0.00  0.00    +0.000 A 
ATOM      6  C   UNL     1       3.425   3.893  19.403  0.00  0.00    +0.000 A 
ENDROOT
BRANCH   3   7
ATOM      7  C   UNL     1       1.760   7.854  20.141  0.00  0.00    +0.000 A 
ATOM      8  C   UNL     1       1.432   8.116  21.493  0.00  0.00    +0.000 A 
ATOM      9  C   UNL     1       0.808   9.301  21.894  0.00  0.00    +0.000 A 
ATOM     10  C   UNL     1       0.535  10.289  20.961  0.00  0.00    +0.000 A 
ATOM     11  C   UNL     1       0.889  10.093  19.630  0.00  0.00    +0.000 A 
ATOM     12  C   UNL     1       1.482   8.890  19.202  0.00  0.00    +0.000 A 
ATOM     13  C   UNL     1       1.772   8.780  17.724  0.00  0.00    +0.000 C 
ENDBRANCH   3   7
BRANCH   1  15
ATOM     14  C   UNL     1       6.446   5.375  19.137  0.00  0.00    +0.000 C 
ATOM     15  O   UNL     1       5.318   4.953  18.374  0.00  0.00    +0.000 OA
ENDBRANCH   1  15
BRANCH   5  16
ATOM     16  O   UNL     1       1.295   3.067  20.452  0.00  0.00    +0.000 OA
ATOM     17  C   UNL     1       1.495   2.592  21.773  0.00  0.00    +0.000 C 
ENDBRANCH   5  16
BRANCH   6  18
ATOM     18  O   UNL     1       3.915   2.619  19.319  0.00  0.00    +0.000 OA
ATOM     19  C   UNL     1       3.540   1.791  18.229  0.00  0.00    +0.000 C 
ENDBRANCH   6  18
TORSDOF 4
ENDMDL
MODEL 9
REMARK VINA RESULT:      -6.3      3.453      5.705
REMARK  Name = 
REMARK  8 active torsions:
REMARK  status: ('A' for Active; 'I' for Inactive)
REMARK    1  A    between atoms: C_1  and  O_2
REMARK    2  A    between atoms: O_2  and  C_3
REMARK    3  A    between atoms: C_5  and  C_6
REMARK    4  A    between atoms: C_11  and  C_12
REMARK    5  A    between atoms: C_14  and  O_15
REMARK    6  A    between atoms: O_15  and  C_16
REMARK    7  A    between atoms: C_17  and  O_18
REMARK    8  A    between atoms: O_18  and  C_19
REMARK                            x       y       z     vdW  Elec       q    Type
REMARK                         _______ _______ _______ _____ _____    ______ ____
ROOT
ATOM      1  C   UNL     1       2.169   3.948  19.993  0.00  0.00    +0.000 A 
ATOM      2  C   UNL     1       1.766   5.296  19.980  0.00  0.00    +0.000 A 
ATOM      3  C   UNL     1       2.586   6.326  19.497  0.00  0.00    +0.000 A 
ATOM      4  C   UNL     1       3.903   5.962  19.199  0.00  0.00    +0.000 A 
ATOM      5  C   UNL     1       4.341   4.622  19.193  0.00  0.00    +0.000 A 
ATOM      6  C   UNL     1       3.467   3.586  19.580  0.00  0.00    +0.000 A 
ENDROOT
BRANCH   3   7
ATOM      7  C   UNL     1       2.027   7.686  19.230  0.00  0.00    +0.000 A 
ATOM      8  C   UNL     1       2.258   8.301  17.977  0.00  0.00    +0.000 A 
ATOM      9  C   UNL     1       1.928   9.636  17.727  0.00  0.00    +0.000 A 
ATOM     10  C   UNL     1       1.307  10.390  18.710  0.00  0.00    +0.000 A 
ATOM     11  C   UNL     1       1.015   9.809  19.939  0.00  0.00    +0.000 A 
ATOM     12  C   UNL     1       1.376   8.478  20.221  0.00  0.00    +0.000 A 
ATOM     13  C   UNL     1       1.049   7.979  21.609  0.00  0.00    +0.000 C 
ENDBRANCH   3   7
BRANCH   1  15
ATOM     14  C   UNL     1       1.469   2.550  21.796  0.00  0.00    +0.000 C 
ATOM     15  O   UNL     1       1.312   2.973  20.444  0.00  0.00    +0.000 OA
ENDBRANCH   1  15
BRANCH   5  16
ATOM     16  O   UNL     1       5.636   4.532  18.733  0.00  0.00    +0.000 OA
ATOM     17  C   UNL     1       5.878   4.416  17.341  0.00  0.00    +0.000 C 
ENDBRANCH   5  16
BRANCH   6  18
ATOM     18  O   UNL     1       3.970   2.315  19.545  0.00  0.00    +0.000 OA
ATOM     19  C   UNL     1       3.669   1.469  18.446  0.00  0.00    +0.000 C 
ENDBRANCH   6  18
TORSDOF 4
ENDMDL
