MODEL 1
REMARK VINA RESULT:      -8.4      0.000      0.000
REMARK  Name = 
REMARK  3 active torsions:
REMARK  status: ('A' for Active; 'I' for Inactive)
REMARK    1  A    between atoms: C_1  and  N_2
REMARK    2  A    between atoms: C_9  and  C_10
REMARK    3  A    between atoms: C_10  and  C_12
REMARK                            x       y       z     vdW  Elec       q    Type
REMARK                         _______ _______ _______ _____ _____    ______ ____
ROOT
ATOM      1  C   UNL     1       1.719   5.465  20.319  0.00  0.00    +0.000 C 
ATOM      2  N   UNL     1       2.267   4.400  19.494  0.00  0.00    +0.000 N 
ATOM      3  C   UNL     1       1.694   3.138  19.579  0.00  0.00    +0.000 A 
ATOM      4  O   UNL     1       0.747   2.845  20.313  0.00  0.00    +0.000 OA
ATOM      5  C   UNL     1       2.271   2.075  18.723  0.00  0.00    +0.000 A 
ATOM      6  C   UNL     1       3.291   2.308  17.893  0.00  0.00    +0.000 A 
ATOM      7  C   UNL     1       3.870   3.645  17.805  0.00  0.00    +0.000 A 
ATOM      8  C   UNL     1       4.926   3.900  16.916  0.00  0.00    +0.000 A 
ATOM      9  C   UNL     1       5.475   5.183  16.816  0.00  0.00    +0.000 A 
ATOM     10  C   UNL     1       4.952   6.211  17.607  0.00  0.00    +0.000 A 
ATOM     11  C   UNL     1       3.914   5.955  18.507  0.00  0.00    +0.000 A 
ATOM     12  C   UNL     1       3.354   4.677  18.610  0.00  0.00    +0.000 A 
ENDROOT
BRANCH   9  13
ATOM     13  C   UNL     1       6.563   5.429  15.828  0.00  0.00    +0.000 C 
ATOM     14  O   UNL     1       7.531   6.116  16.149  0.00  0.00    +0.000 OA
BRANCH  13  15
ATOM     15  C   UNL     1       6.525   4.838  14.469  0.00  0.00    +0.000 A 
ATOM     16  C   UNL     1       7.564   5.141  13.581  0.00  0.00    +0.000 A 
ATOM     17  C   UNL     1       7.578   4.572  12.308  0.00  0.00    +0.000 A 
ATOM     18  C   UNL     1       6.553   3.709  11.921  0.00  0.00    +0.000 A 
ATOM     19  C   UNL     1       5.504   3.423  12.795  0.00  0.00    +0.000 A 
ATOM     20  C   UNL     1       5.479   3.999  14.064  0.00  0.00    +0.000 A 
ENDBRANCH  13  15
ENDBRANCH   9  13
TORSDOF 2
ENDMDL
MODEL 2
REMARK VINA RESULT:      -8.3      3.162      4.990
REMARK  Name = 
REMARK  3 active torsions:
REMARK  status: ('A' for Active; 'I' for Inactive)
REMARK    1  A    between atoms: C_1  and  N_2
REMARK    2  A    between atoms: C_9  and  C_10
REMARK    3  A    between atoms: C_10  and  C_12
REMARK                            x       y       z     vdW  Elec       q    Type
REMARK                         _______ _______ _______ _____ _____    ______ ____
ROOT
ATOM      1  C   UNL     1       0.664   8.918  21.801  0.00  0.00    +0.000 C 
ATOM      2  N   UNL     1       1.144   8.902  20.428  0.00  0.00    +0.000 N 
ATOM      3  C   UNL     1       1.041  10.066  19.679  0.00  0.00    +0.000 A 
ATOM      4  O   UNL     1       0.563  11.127  20.093  0.00  0.00    +0.000 OA
ATOM      5  C   UNL     1       1.541  10.021  18.285  0.00  0.00    +0.000 A 
ATOM      6  C   UNL     1       2.081   8.917  17.761  0.00  0.00    +0.000 A 
ATOM      7  C   UNL     1       2.196   7.706  18.569  0.00  0.00    +0.000 A 
ATOM      8  C   UNL     1       2.785   6.551  18.029  0.00  0.00    +0.000 A 
ATOM      9  C   UNL     1       2.911   5.393  18.803  0.00  0.00    +0.000 A 
ATOM     10  C   UNL     1       2.452   5.402  20.125  0.00  0.00    +0.000 A 
ATOM     11  C   UNL     1       1.848   6.544  20.656  0.00  0.00    +0.000 A 
ATOM     12  C   UNL     1       1.722   7.710  19.894  0.00  0.00    +0.000 A 
ENDROOT
BRANCH   9  13
ATOM     13  C   UNL     1       3.584   4.200  18.215  0.00  0.00    +0.000 C 
ATOM     14  O   UNL     1       3.027   3.105  18.259  0.00  0.00    +0.000 OA
BRANCH  13  15
ATOM     15  C   UNL     1       4.902   4.305  17.544  0.00  0.00    +0.000 A 
ATOM     16  C   UNL     1       4.967   4.088  16.163  0.00  0.00    +0.000 A 
ATOM     17  C   UNL     1       6.184   4.216  15.496  0.00  0.00    +0.000 A 
ATOM     18  C   UNL     1       7.336   4.552  16.208  0.00  0.00    +0.000 A 
ATOM     19  C   UNL     1       7.279   4.747  17.588  0.00  0.00    +0.000 A 
ATOM     20  C   UNL     1       6.067   4.608  18.262  0.00  0.00    +0.000 A 
ENDBRANCH  13  15
ENDBRANCH   9  13
TORSDOF 2
ENDMDL
MODEL 3
REMARK VINA RESULT:      -8.3      0.124      1.090
REMARK  Name = 
REMARK  3 active torsions:
REMARK  status: ('A' for Active; 'I' for Inactive)
REMARK    1  A    between atoms: C_1  and  N_2
REMARK    2  A    between atoms: C_9  and  C_10
REMARK    3  A    between atoms: C_10  and  C_12
REMARK                            x       y       z     vdW  Elec       q    Type
REMARK                         _______ _______ _______ _____ _____    ______ ____
ROOT
ATOM      1  C   UNL     1       1.656   5.500  20.124  0.00  0.00    +0.000 C 
ATOM      2  N   UNL     1       2.283   4.419  19.378  0.00  0.00    +0.000 N 
ATOM      3  C   UNL     1       1.776   3.135  19.526  0.00  0.00    +0.000 A 
ATOM      4  O   UNL     1       0.826   2.835  20.255  0.00  0.00    +0.000 OA
ATOM      5  C   UNL     1       2.431   2.056  18.751  0.00  0.00    +0.000 A 
ATOM      6  C   UNL     1       3.459   2.294  17.932  0.00  0.00    +0.000 A 
ATOM      7  C   UNL     1       3.968   3.654  17.777  0.00  0.00    +0.000 A 
ATOM      8  C   UNL     1       5.033   3.913  16.899  0.00  0.00    +0.000 A 
ATOM      9  C   UNL     1       5.515   5.215  16.734  0.00  0.00    +0.000 A 
ATOM     10  C   UNL     1       4.917   6.259  17.448  0.00  0.00    +0.000 A 
ATOM     11  C   UNL     1       3.871   6.001  18.337  0.00  0.00    +0.000 A 
ATOM     12  C   UNL     1       3.377   4.702  18.505  0.00  0.00    +0.000 A 
ENDROOT
BRANCH   9  13
ATOM     13  C   UNL     1       6.615   5.462  15.759  0.00  0.00    +0.000 C 
ATOM     14  O   UNL     1       7.566   6.170  16.082  0.00  0.00    +0.000 OA
BRANCH  13  15
ATOM     15  C   UNL     1       6.608   4.845  14.410  0.00  0.00    +0.000 A 
ATOM     16  C   UNL     1       5.563   3.975  14.080  0.00  0.00    +0.000 A 
ATOM     17  C   UNL     1       5.505   3.408  12.808  0.00  0.00    +0.000 A 
ATOM     18  C   UNL     1       6.495   3.703  11.870  0.00  0.00    +0.000 A 
ATOM     19  C   UNL     1       7.550   4.552  12.203  0.00  0.00    +0.000 A 
ATOM     20  C   UNL     1       7.618   5.112  13.478  0.00  0.00    +0.000 A 
ENDBRANCH  13  15
ENDBRANCH   9  13
TORSDOF 2
ENDMDL
MODEL 4
REMARK VINA RESULT:      -8.3      4.272      6.450
REMARK  Name = 
REMARK  3 active torsions:
REMARK  status: ('A' for Active; 'I' for Inactive)
REMARK    1  A    between atoms: C_1  and  N_2
REMARK    2  A    between atoms: C_9  and  C_10
REMARK    3  A    between atoms: C_10  and  C_12
REMARK                            x       y       z     vdW  Elec       q    Type
REMARK                         _______ _______ _______ _____ _____    ______ ____
ROOT
ATOM      1  C   UNL     1      -0.175  11.657  19.045  0.00  0.00    +0.000 C 
ATOM      2  N   UNL     1       0.211  10.579  19.941  0.00  0.00    +0.000 N 
ATOM      3  C   UNL     1      -0.247  10.614  21.251  0.00  0.00    +0.000 A 
ATOM      4  O   UNL     1      -0.960  11.505  21.722  0.00  0.00    +0.000 OA
ATOM      5  C   UNL     1       0.159   9.500  22.140  0.00  0.00    +0.000 A 
ATOM      6  C   UNL     1       0.922   8.492  21.710  0.00  0.00    +0.000 A 
ATOM      7  C   UNL     1       1.380   8.463  20.324  0.00  0.00    +0.000 A 
ATOM      8  C   UNL     1       2.163   7.392  19.862  0.00  0.00    +0.000 A 
ATOM      9  C   UNL     1       2.592   7.351  18.532  0.00  0.00    +0.000 A 
ATOM     10  C   UNL     1       2.225   8.386  17.664  0.00  0.00    +0.000 A 
ATOM     11  C   UNL     1       1.463   9.461  18.127  0.00  0.00    +0.000 A 
ATOM     12  C   UNL     1       1.023   9.510  19.455  0.00  0.00    +0.000 A 
ENDROOT
BRANCH   9  13
ATOM     13  C   UNL     1       3.381   6.177  18.062  0.00  0.00    +0.000 C 
ATOM     14  O   UNL     1       4.402   6.356  17.401  0.00  0.00    +0.000 OA
BRANCH  13  15
ATOM     15  C   UNL     1       2.982   4.789  18.400  0.00  0.00    +0.000 A 
ATOM     16  C   UNL     1       1.709   4.351  18.018  0.00  0.00    +0.000 A 
ATOM     17  C   UNL     1       1.316   3.040  18.286  0.00  0.00    +0.000 A 
ATOM     18  C   UNL     1       2.190   2.173  18.942  0.00  0.00    +0.000 A 
ATOM     19  C   UNL     1       3.451   2.613  19.344  0.00  0.00    +0.000 A 
ATOM     20  C   UNL     1       3.843   3.926  19.088  0.00  0.00    +0.000 A 
ENDBRANCH  13  15
ENDBRANCH   9  13
TORSDOF 2
ENDMDL
MODEL 5
REMARK VINA RESULT:      -8.2      4.053      6.008
REMARK  Name = 
REMARK  3 active torsions:
REMARK  status: ('A' for Active; 'I' for Inactive)
REMARK    1  A    between atoms: C_1  and  N_2
REMARK    2  A    between atoms: C_9  and  C_10
REMARK    3  A    between atoms: C_10  and  C_12
REMARK                            x       y       z     vdW  Elec       q    Type
REMARK                         _______ _______ _______ _____ _____    ______ ____
ROOT
ATOM      1  C   UNL     1      -0.215  11.549  18.963  0.00  0.00    +0.000 C 
ATOM      2  N   UNL     1       0.195  10.498  19.881  0.00  0.00    +0.000 N 
ATOM      3  C   UNL     1      -0.250  10.558  21.194  0.00  0.00    +0.000 A 
ATOM      4  O   UNL     1      -0.974  11.448  21.650  0.00  0.00    +0.000 OA
ATOM      5  C   UNL     1       0.181   9.472  22.105  0.00  0.00    +0.000 A 
ATOM      6  C   UNL     1       0.956   8.466  21.692  0.00  0.00    +0.000 A 
ATOM      7  C   UNL     1       1.402   8.410  20.303  0.00  0.00    +0.000 A 
ATOM      8  C   UNL     1       2.197   7.341  19.859  0.00  0.00    +0.000 A 
ATOM      9  C   UNL     1       2.615   7.275  18.526  0.00  0.00    +0.000 A 
ATOM     10  C   UNL     1       2.223   8.283  17.638  0.00  0.00    +0.000 A 
ATOM     11  C   UNL     1       1.449   9.357  18.082  0.00  0.00    +0.000 A 
ATOM     12  C   UNL     1       1.020   9.430  19.412  0.00  0.00    +0.000 A 
ENDROOT
BRANCH   9  13
ATOM     13  C   UNL     1       3.417   6.102  18.077  0.00  0.00    +0.000 C 
ATOM     14  O   UNL     1       2.847   5.124  17.597  0.00  0.00    +0.000 OA
BRANCH  13  15
ATOM     15  C   UNL     1       4.898   6.096  18.165  0.00  0.00    +0.000 A 
ATOM     16  C   UNL     1       5.625   6.814  17.210  0.00  0.00    +0.000 A 
ATOM     17  C   UNL     1       7.016   6.860  17.286  0.00  0.00    +0.000 A 
ATOM     18  C   UNL     1       7.679   6.183  18.309  0.00  0.00    +0.000 A 
ATOM     19  C   UNL     1       6.959   5.448  19.250  0.00  0.00    +0.000 A 
ATOM     20  C   UNL     1       5.568   5.389  19.172  0.00  0.00    +0.000 A 
ENDBRANCH  13  15
ENDBRANCH   9  13
TORSDOF 2
ENDMDL
MODEL 6
REMARK VINA RESULT:      -8.2      1.629      1.918
REMARK  Name = 
REMARK  3 active torsions:
REMARK  status: ('A' for Active; 'I' for Inactive)
REMARK    1  A    between atoms: C_1  and  N_2
REMARK    2  A    between atoms: C_9  and  C_10
REMARK    3  A    between atoms: C_10  and  C_12
REMARK                            x       y       z     vdW  Elec       q    Type
REMARK                         _______ _______ _______ _____ _____    ______ ____
ROOT
ATOM      1  C   UNL     1       1.943   8.093  18.795  0.00  0.00    +0.000 C 
ATOM      2  N   UNL     1       2.539   6.811  19.136  0.00  0.00    +0.000 N 
ATOM      3  C   UNL     1       1.985   6.082  20.179  0.00  0.00    +0.000 A 
ATOM      4  O   UNL     1       1.016   6.445  20.852  0.00  0.00    +0.000 OA
ATOM      5  C   UNL     1       2.612   4.778  20.501  0.00  0.00    +0.000 A 
ATOM      6  C   UNL     1       3.658   4.306  19.818  0.00  0.00    +0.000 A 
ATOM      7  C   UNL     1       4.217   5.079  18.713  0.00  0.00    +0.000 A 
ATOM      8  C   UNL     1       5.301   4.575  17.977  0.00  0.00    +0.000 A 
ATOM      9  C   UNL     1       5.832   5.304  16.907  0.00  0.00    +0.000 A 
ATOM     10  C   UNL     1       5.262   6.538  16.574  0.00  0.00    +0.000 A 
ATOM     11  C   UNL     1       4.196   7.050  17.318  0.00  0.00    +0.000 A 
ATOM     12  C   UNL     1       3.654   6.326  18.386  0.00  0.00    +0.000 A 
ENDROOT
BRANCH   9  13
ATOM     13  C   UNL     1       6.952   4.718  16.118  0.00  0.00    +0.000 C 
ATOM     14  O   UNL     1       7.973   4.348  16.694  0.00  0.00    +0.000 OA
BRANCH  13  15
ATOM     15  C   UNL     1       6.855   4.539  14.649  0.00  0.00    +0.000 A 
ATOM     16  C   UNL     1       7.733   5.258  13.830  0.00  0.00    +0.000 A 
ATOM     17  C   UNL     1       7.694   5.085  12.448  0.00  0.00    +0.000 A 
ATOM     18  C   UNL     1       6.773   4.201  11.884  0.00  0.00    +0.000 A 
ATOM     19  C   UNL     1       5.881   3.499  12.695  0.00  0.00    +0.000 A 
ATOM     20  C   UNL     1       5.909   3.678  14.077  0.00  0.00    +0.000 A 
ENDBRANCH  13  15
ENDBRANCH   9  13
TORSDOF 2
ENDMDL
MODEL 7
REMARK VINA RESULT:      -8.2      1.144      1.147
REMARK  Name = 
REMARK  3 active torsions:
REMARK  status: ('A' for Active; 'I' for Inactive)
REMARK    1  A    between atoms: C_1  and  N_2
REMARK    2  A    between atoms: C_9  and  C_10
REMARK    3  A    between atoms: C_10  and  C_12
REMARK                            x       y       z     vdW  Elec       q    Type
REMARK                         _______ _______ _______ _____ _____    ______ ____
ROOT
ATOM      1  C   UNL     1       1.411   5.333  20.503  0.00  0.00    +0.000 C 
ATOM      2  N   UNL     1       2.525   4.429  20.266  0.00  0.00    +0.000 N 
ATOM      3  C   UNL     1       2.587   3.251  20.998  0.00  0.00    +0.000 A 
ATOM      4  O   UNL     1       1.762   2.910  21.849  0.00  0.00    +0.000 OA
ATOM      5  C   UNL     1       3.732   2.348  20.731  0.00  0.00    +0.000 A 
ATOM      6  C   UNL     1       4.665   2.636  19.820  0.00  0.00    +0.000 A 
ATOM      7  C   UNL     1       4.575   3.872  19.048  0.00  0.00    +0.000 A 
ATOM      8  C   UNL     1       5.541   4.167  18.073  0.00  0.00    +0.000 A 
ATOM      9  C   UNL     1       5.451   5.342  17.320  0.00  0.00    +0.000 A 
ATOM     10  C   UNL     1       4.382   6.216  17.543  0.00  0.00    +0.000 A 
ATOM     11  C   UNL     1       3.431   5.934  18.527  0.00  0.00    +0.000 A 
ATOM     12  C   UNL     1       3.507   4.758  19.282  0.00  0.00    +0.000 A 
ENDROOT
BRANCH   9  13
ATOM     13  C   UNL     1       6.467   5.601  16.260  0.00  0.00    +0.000 C 
ATOM     14  O   UNL     1       7.426   6.331  16.504  0.00  0.00    +0.000 OA
BRANCH  13  15
ATOM     15  C   UNL     1       6.368   4.973  14.921  0.00  0.00    +0.000 A 
ATOM     16  C   UNL     1       7.417   5.167  14.015  0.00  0.00    +0.000 A 
ATOM     17  C   UNL     1       7.374   4.559  12.761  0.00  0.00    +0.000 A 
ATOM     18  C   UNL     1       6.281   3.767  12.410  0.00  0.00    +0.000 A 
ATOM     19  C   UNL     1       5.223   3.590  13.302  0.00  0.00    +0.000 A 
ATOM     20  C   UNL     1       5.257   4.205  14.552  0.00  0.00    +0.000 A 
ENDBRANCH  13  15
ENDBRANCH   9  13
TORSDOF 2
ENDMDL
MODEL 8
REMARK VINA RESULT:      -8.2      2.988      4.675
REMARK  Name = 
REMARK  3 active torsions:
REMARK  status: ('A' for Active; 'I' for Inactive)
REMARK    1  A    between atoms: C_1  and  N_2
REMARK    2  A    between atoms: C_9  and  C_10
REMARK    3  A    between atoms: C_10  and  C_12
REMARK                            x       y       z     vdW  Elec       q    Type
REMARK                         _______ _______ _______ _____ _____    ______ ____
ROOT
ATOM      1  C   UNL     1       0.250   8.563  21.554  0.00  0.00    +0.000 C 
ATOM      2  N   UNL     1       0.975   8.589  20.292  0.00  0.00    +0.000 N 
ATOM      3  C   UNL     1       0.916   9.743  19.522  0.00  0.00    +0.000 A 
ATOM      4  O   UNL     1       0.285  10.759  19.826  0.00  0.00    +0.000 OA
ATOM      5  C   UNL     1       1.667   9.742  18.245  0.00  0.00    +0.000 A 
ATOM      6  C   UNL     1       2.384   8.688  17.844  0.00  0.00    +0.000 A 
ATOM      7  C   UNL     1       2.447   7.490  18.675  0.00  0.00    +0.000 A 
ATOM      8  C   UNL     1       3.218   6.389  18.269  0.00  0.00    +0.000 A 
ATOM      9  C   UNL     1       3.295   5.244  19.068  0.00  0.00    +0.000 A 
ATOM     10  C   UNL     1       2.600   5.212  20.282  0.00  0.00    +0.000 A 
ATOM     11  C   UNL     1       1.816   6.298  20.678  0.00  0.00    +0.000 A 
ATOM     12  C   UNL     1       1.738   7.451  19.890  0.00  0.00    +0.000 A 
ENDROOT
BRANCH   9  13
ATOM     13  C   UNL     1       4.161   4.112  18.630  0.00  0.00    +0.000 C 
ATOM     14  O   UNL     1       4.055   3.018  19.181  0.00  0.00    +0.000 OA
BRANCH  13  15
ATOM     15  C   UNL     1       5.130   4.263  17.518  0.00  0.00    +0.000 A 
ATOM     16  C   UNL     1       6.455   4.589  17.829  0.00  0.00    +0.000 A 
ATOM     17  C   UNL     1       7.400   4.701  16.810  0.00  0.00    +0.000 A 
ATOM     18  C   UNL     1       7.020   4.497  15.484  0.00  0.00    +0.000 A 
ATOM     19  C   UNL     1       5.696   4.195  15.168  0.00  0.00    +0.000 A 
ATOM     20  C   UNL     1       4.745   4.093  16.182  0.00  0.00    +0.000 A 
ENDBRANCH  13  15
ENDBRANCH   9  13
TORSDOF 2
ENDMDL
MODEL 9
REMARK VINA RESULT:      -8.2      1.307      1.619
REMARK  Name = 
REMARK  3 active torsions:
REMARK  status: ('A' for Active; 'I' for Inactive)
REMARK    1  A    between atoms: C_1  and  N_2
REMARK    2  A    between atoms: C_9  and  C_10
REMARK    3  A    between atoms: C_10  and  C_12
REMARK                            x       y       z     vdW  Elec       q    Type
REMARK                         _______ _______ _______ _____ _____    ______ ____
ROOT
ATOM      1  C   UNL     1       2.507   7.023  19.203  0.00  0.00    +0.000 C 
ATOM      2  N   UNL     1       3.022   5.699  18.889  0.00  0.00    +0.000 N 
ATOM      3  C   UNL     1       2.588   4.624  19.653  0.00  0.00    +0.000 A 
ATOM      4  O   UNL     1       1.792   4.707  20.592  0.00  0.00    +0.000 OA
ATOM      5  C   UNL     1       3.127   3.288  19.308  0.00  0.00    +0.000 A 
ATOM      6  C   UNL     1       3.986   3.108  18.301  0.00  0.00    +0.000 A 
ATOM      7  C   UNL     1       4.419   4.248  17.498  0.00  0.00    +0.000 A 
ATOM      8  C   UNL     1       5.303   4.060  16.423  0.00  0.00    +0.000 A 
ATOM      9  C   UNL     1       5.709   5.146  15.641  0.00  0.00    +0.000 A 
ATOM     10  C   UNL     1       5.217   6.422  15.937  0.00  0.00    +0.000 A 
ATOM     11  C   UNL     1       4.353   6.614  17.019  0.00  0.00    +0.000 A 
ATOM     12  C   UNL     1       3.935   5.534  17.804  0.00  0.00    +0.000 A 
ENDROOT
BRANCH   9  13
ATOM     13  C   UNL     1       6.610   4.904  14.479  0.00  0.00    +0.000 C 
ATOM     14  O   UNL     1       7.743   5.381  14.479  0.00  0.00    +0.000 OA
BRANCH  13  15
ATOM     15  C   UNL     1       6.185   4.070  13.329  0.00  0.00    +0.000 A 
ATOM     16  C   UNL     1       7.165   3.373  12.613  0.00  0.00    +0.000 A 
ATOM     17  C   UNL     1       6.796   2.550  11.550  0.00  0.00    +0.000 A 
ATOM     18  C   UNL     1       5.452   2.432  11.197  0.00  0.00    +0.000 A 
ATOM     19  C   UNL     1       4.475   3.143  11.894  0.00  0.00    +0.000 A 
ATOM     20  C   UNL     1       4.840   3.975  12.950  0.00  0.00    +0.000 A 
ENDBRANCH  13  15
ENDBRANCH   9  13
TORSDOF 2
ENDMDL
