MODEL 1
REMARK VINA RESULT:      -8.0      0.000      0.000
REMARK  Name = 
REMARK  11 active torsions:
REMARK  status: ('A' for Active; 'I' for Inactive)
REMARK    1  A    between atoms: C_1  and  O_2
REMARK    2  A    between atoms: O_2  and  C_3
REMARK    3  A    between atoms: C_5  and  N_6
REMARK    4  A    between atoms: C_7  and  C_9
REMARK    5  A    between atoms: C_11  and  N_12
REMARK    6  A    between atoms: C_22  and  O_23
REMARK    7  A    between atoms: C_24  and  O_25
REMARK    8  A    between atoms: C_27  and  O_28
REMARK    9  A    between atoms: O_28  and  C_29
REMARK   10  A    between atoms: C_30  and  O_31
REMARK   11  A    between atoms: O_31  and  C_32
REMARK                            x       y       z     vdW  Elec       q    Type
REMARK                         _______ _______ _______ _____ _____    ______ ____
ROOT
ATOM      1  C   UNL     1       2.682   4.887  18.277  0.00  0.00    +0.000 C 
ATOM      2  O   UNL     1       3.306   4.482  17.044  0.00  0.00    +0.000 OA
ATOM      3  C   UNL     1       4.557   3.821  17.365  0.00  0.00    +0.000 C 
ATOM      4  C   UNL     1       4.771   3.905  18.875  0.00  0.00    +0.000 C 
ATOM      5  C   UNL     1       3.349   4.066  19.383  0.00  0.00    +0.000 C 
ENDROOT
BRANCH   3   6
ATOM      6  N   UNL     1       5.666   4.374  16.608  0.00  0.00    +0.000 N 
ATOM      7  C   UNL     1       6.563   5.285  17.113  0.00  0.00    +0.000 A 
ATOM      8  N   UNL     1       7.414   5.702  16.198  0.00  0.00    +0.000 NA
ATOM      9  C   UNL     1       7.034   5.050  15.043  0.00  0.00    +0.000 A 
ATOM     10  C   UNL     1       7.522   5.093  13.726  0.00  0.00    +0.000 A 
ATOM     11  N   UNL     1       8.569   5.910  13.326  0.00  0.00    +0.000 N 
ATOM     12  N   UNL     1       6.947   4.294  12.796  0.00  0.00    +0.000 NA
ATOM     13  C   UNL     1       5.911   3.518  13.174  0.00  0.00    +0.000 A 
ATOM     14  N   UNL     1       5.344   3.416  14.392  0.00  0.00    +0.000 NA
ATOM     15  C   UNL     1       5.961   4.204  15.284  0.00  0.00    +0.000 A 
ATOM     16  H   UNL     1       9.156   6.214  14.094  0.00  0.00    +0.000 HD
ATOM     17  H   UNL     1       9.023   5.565  12.491  0.00  0.00    +0.000 HD
ENDBRANCH   3   6
BRANCH   1  19
ATOM     18  N   UNL     1       1.997   6.858  19.569  0.00  0.00    +0.000 N 
ATOM     19  C   UNL     1       2.808   6.401  18.532  0.00  0.00    +0.000 C 
ATOM     20  O   UNL     1       3.586   7.078  17.863  0.00  0.00    +0.000 OA
ATOM     21  H   UNL     1       1.355   6.183  19.971  0.00  0.00    +0.000 HD
BRANCH  18  24
ATOM     22  C   UNL     1       1.336  10.532  19.302  0.00  0.00    +0.000 A 
ATOM     23  C   UNL     1       1.812   9.246  18.995  0.00  0.00    +0.000 A 
ATOM     24  C   UNL     1       1.775   8.214  19.921  0.00  0.00    +0.000 A 
ATOM     25  C   UNL     1       1.412   8.528  21.229  0.00  0.00    +0.000 A 
ATOM     26  C   UNL     1       1.050   9.843  21.599  0.00  0.00    +0.000 A 
ATOM     27  C   UNL     1       1.003  10.869  20.627  0.00  0.00    +0.000 A 
BRANCH  22  29
ATOM     28  C   UNL     1       2.286  12.360  18.144  0.00  0.00    +0.000 C 
ATOM     29  O   UNL     1       1.188  11.451  18.290  0.00  0.00    +0.000 OA
ENDBRANCH  22  29
BRANCH  26  30
ATOM     30  O   UNL     1       0.737   9.924  22.937  0.00  0.00    +0.000 OA
ATOM     31  C   UNL     1      -0.593   9.658  23.365  0.00  0.00    +0.000 C 
ENDBRANCH  26  30
BRANCH  27  32
ATOM     32  O   UNL     1       0.634  12.107  21.072  0.00  0.00    +0.000 OA
ATOM     33  C   UNL     1      -0.718  12.531  21.044  0.00  0.00    +0.000 C 
ENDBRANCH  27  32
ENDBRANCH  18  24
ENDBRANCH   1  19
BRANCH   4  34
ATOM     34  O   UNL     1       5.384   2.719  19.390  0.00  0.00    +0.000 OA
ATOM     35  H   UNL     1       4.650   2.110  19.624  0.00  0.00    +0.000 HD
ENDBRANCH   4  34
BRANCH   5  36
ATOM     36  O   UNL     1       2.763   2.751  19.508  0.00  0.00    +0.000 OA
ATOM     37  H   UNL     1       2.638   2.546  20.450  0.00  0.00    +0.000 HD
ENDBRANCH   5  36
TORSDOF 8
ENDMDL
MODEL 2
REMARK VINA RESULT:      -7.7      3.964     10.054
REMARK  Name = 
REMARK  11 active torsions:
REMARK  status: ('A' for Active; 'I' for Inactive)
REMARK    1  A    between atoms: C_1  and  O_2
REMARK    2  A    between atoms: O_2  and  C_3
REMARK    3  A    between atoms: C_5  and  N_6
REMARK    4  A    between atoms: C_7  and  C_9
REMARK    5  A    between atoms: C_11  and  N_12
REMARK    6  A    between atoms: C_22  and  O_23
REMARK    7  A    between atoms: C_24  and  O_25
REMARK    8  A    between atoms: C_27  and  O_28
REMARK    9  A    between atoms: O_28  and  C_29
REMARK   10  A    between atoms: C_30  and  O_31
REMARK   11  A    between atoms: O_31  and  C_32
REMARK                            x       y       z     vdW  Elec       q    Type
REMARK                         _______ _______ _______ _____ _____    ______ ____
ROOT
ATOM      1  C   UNL     1       1.274  10.990  19.337  0.00  0.00    +0.000 C 
ATOM      2  O   UNL     1       0.310  11.791  18.628  0.00  0.00    +0.000 OA
ATOM      3  C   UNL     1      -0.822  12.018  19.505  0.00  0.00    +0.000 C 
ATOM      4  C   UNL     1      -0.595  11.234  20.796  0.00  0.00    +0.000 C 
ATOM      5  C   UNL     1       0.918  11.105  20.821  0.00  0.00    +0.000 C 
ENDROOT
BRANCH   3   6
ATOM      6  N   UNL     1      -2.079  11.683  18.857  0.00  0.00    +0.000 N 
ATOM      7  C   UNL     1      -2.171  11.029  17.651  0.00  0.00    +0.000 A 
ATOM      8  N   UNL     1      -3.417  10.933  17.235  0.00  0.00    +0.000 NA
ATOM      9  C   UNL     1      -4.160  11.576  18.203  0.00  0.00    +0.000 A 
ATOM     10  C   UNL     1      -5.536  11.838  18.322  0.00  0.00    +0.000 A 
ATOM     11  N   UNL     1      -6.470  11.472  17.365  0.00  0.00    +0.000 N 
ATOM     12  N   UNL     1      -5.979  12.477  19.431  0.00  0.00    +0.000 NA
ATOM     13  C   UNL     1      -5.072  12.860  20.353  0.00  0.00    +0.000 A 
ATOM     14  N   UNL     1      -3.736  12.690  20.330  0.00  0.00    +0.000 NA
ATOM     15  C   UNL     1      -3.347  12.031  19.230  0.00  0.00    +0.000 A 
ATOM     16  H   UNL     1      -6.147  10.730  16.753  0.00  0.00    +0.000 HD
ATOM     17  H   UNL     1      -7.401  11.393  17.751  0.00  0.00    +0.000 HD
ENDBRANCH   3   6
BRANCH   1  19
ATOM     18  N   UNL     1       1.896   8.654  19.764  0.00  0.00    +0.000 N 
ATOM     19  C   UNL     1       1.286   9.524  18.863  0.00  0.00    +0.000 C 
ATOM     20  O   UNL     1       0.769   9.217  17.790  0.00  0.00    +0.000 OA
ATOM     21  H   UNL     1       2.342   9.079  20.570  0.00  0.00    +0.000 HD
BRANCH  18  24
ATOM     22  C   UNL     1       1.774   4.916  19.894  0.00  0.00    +0.000 A 
ATOM     23  C   UNL     1       1.674   6.259  20.295  0.00  0.00    +0.000 A 
ATOM     24  C   UNL     1       2.203   7.290  19.531  0.00  0.00    +0.000 A 
ATOM     25  C   UNL     1       2.995   6.946  18.437  0.00  0.00    +0.000 A 
ATOM     26  C   UNL     1       3.219   5.596  18.083  0.00  0.00    +0.000 A 
ATOM     27  C   UNL     1       2.600   4.556  18.813  0.00  0.00    +0.000 A 
BRANCH  22  29
ATOM     28  C   UNL     1       1.748   3.312  21.629  0.00  0.00    +0.000 C 
ATOM     29  O   UNL     1       1.044   3.962  20.563  0.00  0.00    +0.000 OA
ENDBRANCH  22  29
BRANCH  26  30
ATOM     30  O   UNL     1       4.033   5.492  16.978  0.00  0.00    +0.000 OA
ATOM     31  C   UNL     1       4.876   6.580  16.621  0.00  0.00    +0.000 C 
ENDBRANCH  26  30
BRANCH  27  32
ATOM     32  O   UNL     1       2.865   3.282  18.395  0.00  0.00    +0.000 OA
ATOM     33  C   UNL     1       3.986   2.562  18.878  0.00  0.00    +0.000 C 
ENDBRANCH  27  32
ENDBRANCH  18  24
ENDBRANCH   1  19
BRANCH   4  34
ATOM     34  O   UNL     1      -1.083  11.943  21.939  0.00  0.00    +0.000 OA
ATOM     35  H   UNL     1      -1.993  11.612  22.100  0.00  0.00    +0.000 HD
ENDBRANCH   4  34
BRANCH   5  36
ATOM     36  O   UNL     1       1.463  12.304  21.416  0.00  0.00    +0.000 OA
ATOM     37  H   UNL     1       0.790  12.710  21.988  0.00  0.00    +0.000 HD
ENDBRANCH   5  36
TORSDOF 8
ENDMDL
MODEL 3
REMARK VINA RESULT:      -7.7      4.061      9.966
REMARK  Name = 
REMARK  11 active torsions:
REMARK  status: ('A' for Active; 'I' for Inactive)
REMARK    1  A    between atoms: C_1  and  O_2
REMARK    2  A    between atoms: O_2  and  C_3
REMARK    3  A    between atoms: C_5  and  N_6
REMARK    4  A    between atoms: C_7  and  C_9
REMARK    5  A    between atoms: C_11  and  N_12
REMARK    6  A    between atoms: C_22  and  O_23
REMARK    7  A    between atoms: C_24  and  O_25
REMARK    8  A    between atoms: C_27  and  O_28
REMARK    9  A    between atoms: O_28  and  C_29
REMARK   10  A    between atoms: C_30  and  O_31
REMARK   11  A    between atoms: O_31  and  C_32
REMARK                            x       y       z     vdW  Elec       q    Type
REMARK                         _______ _______ _______ _____ _____    ______ ____
ROOT
ATOM      1  C   UNL     1       1.074  11.250  19.297  0.00  0.00    +0.000 C 
ATOM      2  O   UNL     1       0.081  12.059  18.639  0.00  0.00    +0.000 OA
ATOM      3  C   UNL     1      -1.042  12.221  19.542  0.00  0.00    +0.000 C 
ATOM      4  C   UNL     1      -0.776  11.387  20.794  0.00  0.00    +0.000 C 
ATOM      5  C   UNL     1       0.739  11.291  20.790  0.00  0.00    +0.000 C 
ENDROOT
BRANCH   3   6
ATOM      6  N   UNL     1      -2.301  11.886  18.900  0.00  0.00    +0.000 N 
ATOM      7  C   UNL     1      -2.400  11.321  17.651  0.00  0.00    +0.000 A 
ATOM      8  N   UNL     1      -3.651  11.207  17.257  0.00  0.00    +0.000 NA
ATOM      9  C   UNL     1      -4.393  11.746  18.287  0.00  0.00    +0.000 A 
ATOM     10  C   UNL     1      -5.775  11.945  18.458  0.00  0.00    +0.000 A 
ATOM     11  N   UNL     1      -6.718  11.614  17.496  0.00  0.00    +0.000 N 
ATOM     12  N   UNL     1      -6.213  12.481  19.621  0.00  0.00    +0.000 NA
ATOM     13  C   UNL     1      -5.297  12.829  20.548  0.00  0.00    +0.000 A 
ATOM     14  N   UNL     1      -3.956  12.714  20.482  0.00  0.00    +0.000 NA
ATOM     15  C   UNL     1      -3.571  12.155  19.327  0.00  0.00    +0.000 A 
ATOM     16  H   UNL     1      -6.383  10.933  16.823  0.00  0.00    +0.000 HD
ATOM     17  H   UNL     1      -7.636  11.470  17.897  0.00  0.00    +0.000 HD
ENDBRANCH   3   6
BRANCH   1  19
ATOM     18  N   UNL     1       1.871   8.941  19.543  0.00  0.00    +0.000 N 
ATOM     19  C   UNL     1       1.110   9.807  18.759  0.00  0.00    +0.000 C 
ATOM     20  O   UNL     1       0.487   9.511  17.741  0.00  0.00    +0.000 OA
ATOM     21  H   UNL     1       2.385   9.361  20.310  0.00  0.00    +0.000 HD
BRANCH  18  24
ATOM     22  C   UNL     1       3.494   6.003  17.887  0.00  0.00    +0.000 A 
ATOM     23  C   UNL     1       2.929   7.277  18.067  0.00  0.00    +0.000 A 
ATOM     24  C   UNL     1       2.222   7.607  19.214  0.00  0.00    +0.000 A 
ATOM     25  C   UNL     1       1.934   6.584  20.115  0.00  0.00    +0.000 A 
ATOM     26  C   UNL     1       2.381   5.261  19.898  0.00  0.00    +0.000 A 
ATOM     27  C   UNL     1       3.179   4.955  18.771  0.00  0.00    +0.000 A 
BRANCH  22  29
ATOM     28  C   UNL     1       5.497   6.681  16.832  0.00  0.00    +0.000 C 
ATOM     29  O   UNL     1       4.368   5.799  16.846  0.00  0.00    +0.000 OA
ENDBRANCH  22  29
BRANCH  26  30
ATOM     30  O   UNL     1       1.977   4.418  20.908  0.00  0.00    +0.000 OA
ATOM     31  C   UNL     1       0.981   3.436  20.648  0.00  0.00    +0.000 C 
ENDBRANCH  26  30
BRANCH  27  32
ATOM     32  O   UNL     1       3.574   3.653  18.646  0.00  0.00    +0.000 OA
ATOM     33  C   UNL     1       4.662   3.134  19.392  0.00  0.00    +0.000 C 
ENDBRANCH  27  32
ENDBRANCH  18  24
ENDBRANCH   1  19
BRANCH   4  34
ATOM     34  O   UNL     1      -1.261  12.034  21.975  0.00  0.00    +0.000 OA
ATOM     35  H   UNL     1      -0.482  12.458  22.394  0.00  0.00    +0.000 HD
ENDBRANCH   4  34
BRANCH   5  36
ATOM     36  O   UNL     1       1.268  12.475  21.429  0.00  0.00    +0.000 OA
ATOM     37  H   UNL     1       1.122  13.242  20.850  0.00  0.00    +0.000 HD
ENDBRANCH   5  36
TORSDOF 8
ENDMDL
MODEL 4
REMARK VINA RESULT:      -7.4      3.934      8.896
REMARK  Name = 
REMARK  11 active torsions:
REMARK  status: ('A' for Active; 'I' for Inactive)
REMARK    1  A    between atoms: C_1  and  O_2
REMARK    2  A    between atoms: O_2  and  C_3
REMARK    3  A    between atoms: C_5  and  N_6
REMARK    4  A    between atoms: C_7  and  C_9
REMARK    5  A    between atoms: C_11  and  N_12
REMARK    6  A    between atoms: C_22  and  O_23
REMARK    7  A    between atoms: C_24  and  O_25
REMARK    8  A    between atoms: C_27  and  O_28
REMARK    9  A    between atoms: O_28  and  C_29
REMARK   10  A    between atoms: C_30  and  O_31
REMARK   11  A    between atoms: O_31  and  C_32
REMARK                            x       y       z     vdW  Elec       q    Type
REMARK                         _______ _______ _______ _____ _____    ______ ____
ROOT
ATOM      1  C   UNL     1       1.242   8.897  21.807  0.00  0.00    +0.000 C 
ATOM      2  O   UNL     1       1.878  10.189  21.820  0.00  0.00    +0.000 OA
ATOM      3  C   UNL     1       0.900  11.180  21.414  0.00  0.00    +0.000 C 
ATOM      4  C   UNL     1      -0.390  10.454  21.034  0.00  0.00    +0.000 C 
ATOM      5  C   UNL     1      -0.265   9.162  21.823  0.00  0.00    +0.000 C 
ENDROOT
BRANCH   3   6
ATOM      6  N   UNL     1       1.404  12.027  20.348  0.00  0.00    +0.000 N 
ATOM      7  C   UNL     1       1.116  11.840  19.017  0.00  0.00    +0.000 A 
ATOM      8  N   UNL     1       1.772  12.683  18.245  0.00  0.00    +0.000 NA
ATOM      9  C   UNL     1       2.538  13.430  19.116  0.00  0.00    +0.000 A 
ATOM     10  C   UNL     1       3.471  14.462  18.911  0.00  0.00    +0.000 A 
ATOM     11  N   UNL     1       3.829  14.930  17.655  0.00  0.00    +0.000 N 
ATOM     12  N   UNL     1       4.049  15.036  19.992  0.00  0.00    +0.000 NA
ATOM     13  C   UNL     1       3.725  14.566  21.214  0.00  0.00    +0.000 A 
ATOM     14  N   UNL     1       2.874  13.569  21.527  0.00  0.00    +0.000 NA
ATOM     15  C   UNL     1       2.306  13.051  20.430  0.00  0.00    +0.000 A 
ATOM     16  H   UNL     1       3.145  14.715  16.938  0.00  0.00    +0.000 HD
ATOM     17  H   UNL     1       4.196  15.872  17.691  0.00  0.00    +0.000 HD
ENDBRANCH   3   6
BRANCH   1  19
ATOM     18  N   UNL     1       1.919   6.714  20.913  0.00  0.00    +0.000 N 
ATOM     19  C   UNL     1       1.661   8.046  20.594  0.00  0.00    +0.000 C 
ATOM     20  O   UNL     1       1.720   8.551  19.474  0.00  0.00    +0.000 OA
ATOM     21  H   UNL     1       1.898   6.474  21.898  0.00  0.00    +0.000 HD
BRANCH  18  24
ATOM     22  C   UNL     1       4.383   4.452  19.235  0.00  0.00    +0.000 A 
ATOM     23  C   UNL     1       3.846   5.577  19.882  0.00  0.00    +0.000 A 
ATOM     24  C   UNL     1       2.478   5.740  20.047  0.00  0.00    +0.000 A 
ATOM     25  C   UNL     1       1.634   4.841  19.397  0.00  0.00    +0.000 A 
ATOM     26  C   UNL     1       2.147   3.770  18.630  0.00  0.00    +0.000 A 
ATOM     27  C   UNL     1       3.543   3.559  18.545  0.00  0.00    +0.000 A 
BRANCH  22  29
ATOM     28  C   UNL     1       6.502   4.907  18.290  0.00  0.00    +0.000 C 
ATOM     29  O   UNL     1       5.739   4.229  19.297  0.00  0.00    +0.000 OA
ENDBRANCH  22  29
BRANCH  26  30
ATOM     30  O   UNL     1       1.138   3.016  18.076  0.00  0.00    +0.000 OA
ATOM     31  C   UNL     1       0.520   1.994  18.847  0.00  0.00    +0.000 C 
ENDBRANCH  26  30
BRANCH  27  32
ATOM     32  O   UNL     1       3.949   2.495  17.791  0.00  0.00    +0.000 OA
ATOM     33  C   UNL     1       3.973   1.180  18.318  0.00  0.00    +0.000 C 
ENDBRANCH  27  32
ENDBRANCH  18  24
ENDBRANCH   1  19
BRANCH   4  34
ATOM     34  O   UNL     1      -1.549  11.198  21.419  0.00  0.00    +0.000 OA
ATOM     35  H   UNL     1      -2.315  10.596  21.296  0.00  0.00    +0.000 HD
ENDBRANCH   4  34
BRANCH   5  36
ATOM     36  O   UNL     1      -0.758   9.402  23.160  0.00  0.00    +0.000 OA
ATOM     37  H   UNL     1      -1.343  10.177  23.150  0.00  0.00    +0.000 HD
ENDBRANCH   5  36
TORSDOF 8
ENDMDL
MODEL 5
REMARK VINA RESULT:      -7.4      0.340      2.228
REMARK  Name = 
REMARK  11 active torsions:
REMARK  status: ('A' for Active; 'I' for Inactive)
REMARK    1  A    between atoms: C_1  and  O_2
REMARK    2  A    between atoms: O_2  and  C_3
REMARK    3  A    between atoms: C_5  and  N_6
REMARK    4  A    between atoms: C_7  and  C_9
REMARK    5  A    between atoms: C_11  and  N_12
REMARK    6  A    between atoms: C_22  and  O_23
REMARK    7  A    between atoms: C_24  and  O_25
REMARK    8  A    between atoms: C_27  and  O_28
REMARK    9  A    between atoms: O_28  and  C_29
REMARK   10  A    between atoms: C_30  and  O_31
REMARK   11  A    between atoms: O_31  and  C_32
REMARK                            x       y       z     vdW  Elec       q    Type
REMARK                         _______ _______ _______ _____ _____    ______ ____
ROOT
ATOM      1  C   UNL     1       2.611   4.582  18.192  0.00  0.00    +0.000 C 
ATOM      2  O   UNL     1       3.322   4.190  17.002  0.00  0.00    +0.000 OA
ATOM      3  C   UNL     1       4.588   3.607  17.403  0.00  0.00    +0.000 C 
ATOM      4  C   UNL     1       4.715   3.730  18.920  0.00  0.00    +0.000 C 
ATOM      5  C   UNL     1       3.261   3.821  19.349  0.00  0.00    +0.000 C 
ENDROOT
BRANCH   3   6
ATOM      6  N   UNL     1       5.704   4.207  16.694  0.00  0.00    +0.000 N 
ATOM      7  C   UNL     1       6.602   5.075  17.268  0.00  0.00    +0.000 A 
ATOM      8  N   UNL     1       7.460   5.552  16.391  0.00  0.00    +0.000 NA
ATOM      9  C   UNL     1       7.084   4.986  15.190  0.00  0.00    +0.000 A 
ATOM     10  C   UNL     1       7.580   5.122  13.882  0.00  0.00    +0.000 A 
ATOM     11  N   UNL     1       8.633   5.961  13.547  0.00  0.00    +0.000 N 
ATOM     12  N   UNL     1       7.008   4.394  12.894  0.00  0.00    +0.000 NA
ATOM     13  C   UNL     1       5.966   3.598  13.209  0.00  0.00    +0.000 A 
ATOM     14  N   UNL     1       5.391   3.413  14.413  0.00  0.00    +0.000 NA
ATOM     15  C   UNL     1       6.006   4.131  15.363  0.00  0.00    +0.000 A 
ATOM     16  H   UNL     1       9.217   6.206  14.339  0.00  0.00    +0.000 HD
ATOM     17  H   UNL     1       9.091   5.674  12.692  0.00  0.00    +0.000 HD
ENDBRANCH   3   6
BRANCH   1  19
ATOM     18  N   UNL     1       1.808   6.526  19.458  0.00  0.00    +0.000 N 
ATOM     19  C   UNL     1       2.639   6.105  18.421  0.00  0.00    +0.000 C 
ATOM     20  O   UNL     1       3.364   6.820  17.732  0.00  0.00    +0.000 OA
ATOM     21  H   UNL     1       1.216   5.817  19.877  0.00  0.00    +0.000 HD
BRANCH  18  24
ATOM     22  C   UNL     1       1.115   9.624  21.440  0.00  0.00    +0.000 A 
ATOM     23  C   UNL     1       1.159   8.268  21.073  0.00  0.00    +0.000 A 
ATOM     24  C   UNL     1       1.501   7.869  19.789  0.00  0.00    +0.000 A 
ATOM     25  C   UNL     1       1.632   8.859  18.816  0.00  0.00    +0.000 A 
ATOM     26  C   UNL     1       1.468  10.228  19.128  0.00  0.00    +0.000 A 
ATOM     27  C   UNL     1       1.209  10.628  20.459  0.00  0.00    +0.000 A 
BRANCH  22  29
ATOM     28  C   UNL     1      -0.325   9.785  23.307  0.00  0.00    +0.000 C 
ATOM     29  O   UNL     1       0.992   9.954  22.768  0.00  0.00    +0.000 OA
ENDBRANCH  22  29
BRANCH  26  30
ATOM     30  O   UNL     1       1.635  11.023  18.017  0.00  0.00    +0.000 OA
ATOM     31  C   UNL     1       2.591  12.075  18.045  0.00  0.00    +0.000 C 
ENDBRANCH  26  30
BRANCH  27  32
ATOM     32  O   UNL     1       1.075  11.972  20.671  0.00  0.00    +0.000 OA
ATOM     33  C   UNL     1      -0.200  12.589  20.727  0.00  0.00    +0.000 C 
ENDBRANCH  27  32
ENDBRANCH  18  24
ENDBRANCH   1  19
BRANCH   4  34
ATOM     34  O   UNL     1       5.364   2.590  19.492  0.00  0.00    +0.000 OA
ATOM     35  H   UNL     1       6.328   2.765  19.434  0.00  0.00    +0.000 HD
ENDBRANCH   4  34
BRANCH   5  36
ATOM     36  O   UNL     1       2.742   2.477  19.471  0.00  0.00    +0.000 OA
ATOM     37  H   UNL     1       3.307   1.972  20.080  0.00  0.00    +0.000 HD
ENDBRANCH   5  36
TORSDOF 8
ENDMDL
MODEL 6
REMARK VINA RESULT:      -7.4      3.878      9.470
REMARK  Name = 
REMARK  11 active torsions:
REMARK  status: ('A' for Active; 'I' for Inactive)
REMARK    1  A    between atoms: C_1  and  O_2
REMARK    2  A    between atoms: O_2  and  C_3
REMARK    3  A    between atoms: C_5  and  N_6
REMARK    4  A    between atoms: C_7  and  C_9
REMARK    5  A    between atoms: C_11  and  N_12
REMARK    6  A    between atoms: C_22  and  O_23
REMARK    7  A    between atoms: C_24  and  O_25
REMARK    8  A    between atoms: C_27  and  O_28
REMARK    9  A    between atoms: O_28  and  C_29
REMARK   10  A    between atoms: C_30  and  O_31
REMARK   11  A    between atoms: O_31  and  C_32
REMARK                            x       y       z     vdW  Elec       q    Type
REMARK                         _______ _______ _______ _____ _____    ______ ____
ROOT
ATOM      1  C   UNL     1       0.847  10.184  21.190  0.00  0.00    +0.000 C 
ATOM      2  O   UNL     1       0.610  10.835  19.927  0.00  0.00    +0.000 OA
ATOM      3  C   UNL     1      -0.757  11.318  19.916  0.00  0.00    +0.000 C 
ATOM      4  C   UNL     1      -1.440  10.858  21.203  0.00  0.00    +0.000 C 
ATOM      5  C   UNL     1      -0.255  10.668  22.134  0.00  0.00    +0.000 C 
ENDROOT
BRANCH   3   6
ATOM      6  N   UNL     1      -1.467  10.896  18.721  0.00  0.00    +0.000 N 
ATOM      7  C   UNL     1      -0.908  10.132  17.725  0.00  0.00    +0.000 A 
ATOM      8  N   UNL     1      -1.727   9.969  16.707  0.00  0.00    +0.000 NA
ATOM      9  C   UNL     1      -2.858  10.681  17.050  0.00  0.00    +0.000 A 
ATOM     10  C   UNL     1      -4.067  10.922  16.375  0.00  0.00    +0.000 A 
ATOM     11  N   UNL     1      -4.338  10.447  15.101  0.00  0.00    +0.000 N 
ATOM     12  N   UNL     1      -5.023  11.650  17.000  0.00  0.00    +0.000 NA
ATOM     13  C   UNL     1      -4.753  12.137  18.228  0.00  0.00    +0.000 A 
ATOM     14  N   UNL     1      -3.627  11.996  18.954  0.00  0.00    +0.000 NA
ATOM     15  C   UNL     1      -2.722  11.248  18.309  0.00  0.00    +0.000 A 
ATOM     16  H   UNL     1      -3.757   9.660  14.834  0.00  0.00    +0.000 HD
ATOM     17  H   UNL     1      -5.332  10.383  14.922  0.00  0.00    +0.000 HD
ENDBRANCH   3   6
BRANCH   1  19
ATOM     18  N   UNL     1       1.982   8.155  20.400  0.00  0.00    +0.000 N 
ATOM     19  C   UNL     1       0.862   8.648  21.068  0.00  0.00    +0.000 C 
ATOM     20  O   UNL     1      -0.049   7.980  21.555  0.00  0.00    +0.000 OA
ATOM     21  H   UNL     1       2.603   8.845  19.991  0.00  0.00    +0.000 HD
BRANCH  18  24
ATOM     22  C   UNL     1       1.640   4.439  20.118  0.00  0.00    +0.000 A 
ATOM     23  C   UNL     1       1.650   5.729  20.673  0.00  0.00    +0.000 A 
ATOM     24  C   UNL     1       2.188   6.813  19.992  0.00  0.00    +0.000 A 
ATOM     25  C   UNL     1       2.879   6.558  18.810  0.00  0.00    +0.000 A 
ATOM     26  C   UNL     1       2.996   5.248  18.290  0.00  0.00    +0.000 A 
ATOM     27  C   UNL     1       2.367   4.164  18.944  0.00  0.00    +0.000 A 
BRANCH  22  29
ATOM     28  C   UNL     1       1.589   2.754  21.774  0.00  0.00    +0.000 C 
ATOM     29  O   UNL     1       0.902   3.453  20.728  0.00  0.00    +0.000 OA
ENDBRANCH  22  29
BRANCH  26  30
ATOM     30  O   UNL     1       3.724   5.231  17.122  0.00  0.00    +0.000 OA
ATOM     31  C   UNL     1       5.133   5.042  17.175  0.00  0.00    +0.000 C 
ENDBRANCH  26  30
BRANCH  27  32
ATOM     32  O   UNL     1       2.524   2.936  18.367  0.00  0.00    +0.000 OA
ATOM     33  C   UNL     1       3.549   2.049  18.781  0.00  0.00    +0.000 C 
ENDBRANCH  27  32
ENDBRANCH  18  24
ENDBRANCH   1  19
BRANCH   4  34
ATOM     34  O   UNL     1      -2.350  11.843  21.702  0.00  0.00    +0.000 OA
ATOM     35  H   UNL     1      -3.245  11.563  21.410  0.00  0.00    +0.000 HD
ENDBRANCH   4  34
BRANCH   5  36
ATOM     36  O   UNL     1       0.064  11.948  22.725  0.00  0.00    +0.000 OA
ATOM     37  H   UNL     1      -0.265  12.657  22.147  0.00  0.00    +0.000 HD
ENDBRANCH   5  36
TORSDOF 8
ENDMDL
MODEL 7
REMARK VINA RESULT:      -7.4      3.539     10.213
REMARK  Name = 
REMARK  11 active torsions:
REMARK  status: ('A' for Active; 'I' for Inactive)
REMARK    1  A    between atoms: C_1  and  O_2
REMARK    2  A    between atoms: O_2  and  C_3
REMARK    3  A    between atoms: C_5  and  N_6
REMARK    4  A    between atoms: C_7  and  C_9
REMARK    5  A    between atoms: C_11  and  N_12
REMARK    6  A    between atoms: C_22  and  O_23
REMARK    7  A    between atoms: C_24  and  O_25
REMARK    8  A    between atoms: C_27  and  O_28
REMARK    9  A    between atoms: O_28  and  C_29
REMARK   10  A    between atoms: C_30  and  O_31
REMARK   11  A    between atoms: O_31  and  C_32
REMARK                            x       y       z     vdW  Elec       q    Type
REMARK                         _______ _______ _______ _____ _____    ______ ____
ROOT
ATOM      1  C   UNL     1       1.108  10.633  18.124  0.00  0.00    +0.000 C 
ATOM      2  O   UNL     1      -0.156  11.146  18.582  0.00  0.00    +0.000 OA
ATOM      3  C   UNL     1       0.103  12.264  19.469  0.00  0.00    +0.000 C 
ATOM      4  C   UNL     1       1.614  12.394  19.649  0.00  0.00    +0.000 C 
ATOM      5  C   UNL     1       2.137  11.735  18.385  0.00  0.00    +0.000 C 
ENDROOT
BRANCH   3   6
ATOM      6  N   UNL     1      -0.605  12.125  20.730  0.00  0.00    +0.000 N 
ATOM      7  C   UNL     1      -0.160  11.358  21.780  0.00  0.00    +0.000 A 
ATOM      8  N   UNL     1      -1.029  11.322  22.769  0.00  0.00    +0.000 NA
ATOM      9  C   UNL     1      -2.094  12.079  22.327  0.00  0.00    +0.000 A 
ATOM     10  C   UNL     1      -3.336  12.395  22.905  0.00  0.00    +0.000 A 
ATOM     11  N   UNL     1      -3.746  11.923  24.143  0.00  0.00    +0.000 N 
ATOM     12  N   UNL     1      -4.179  13.208  22.224  0.00  0.00    +0.000 NA
ATOM     13  C   UNL     1      -3.796  13.648  21.007  0.00  0.00    +0.000 A 
ATOM     14  N   UNL     1      -2.651  13.388  20.347  0.00  0.00    +0.000 NA
ATOM     15  C   UNL     1      -1.839  12.604  21.069  0.00  0.00    +0.000 A 
ATOM     16  H   UNL     1      -2.977  11.617  24.729  0.00  0.00    +0.000 HD
ATOM     17  H   UNL     1      -4.454  12.512  24.560  0.00  0.00    +0.000 HD
ENDBRANCH   3   6
BRANCH   1  19
ATOM     18  N   UNL     1       2.494   8.606  18.149  0.00  0.00    +0.000 N 
ATOM     19  C   UNL     1       1.496   9.312  18.818  0.00  0.00    +0.000 C 
ATOM     20  O   UNL     1       0.952   8.984  19.870  0.00  0.00    +0.000 OA
ATOM     21  H   UNL     1       2.784   8.977  17.250  0.00  0.00    +0.000 HD
BRANCH  18  24
ATOM     22  C   UNL     1       2.748   5.224  19.729  0.00  0.00    +0.000 A 
ATOM     23  C   UNL     1       2.517   6.601  19.579  0.00  0.00    +0.000 A 
ATOM     24  C   UNL     1       2.935   7.293  18.452  0.00  0.00    +0.000 A 
ATOM     25  C   UNL     1       3.749   6.621  17.542  0.00  0.00    +0.000 A 
ATOM     26  C   UNL     1       4.106   5.266  17.732  0.00  0.00    +0.000 A 
ATOM     27  C   UNL     1       3.599   4.545  18.837  0.00  0.00    +0.000 A 
BRANCH  22  29
ATOM     28  C   UNL     1       0.867   3.957  20.392  0.00  0.00    +0.000 C 
ATOM     29  O   UNL     1       2.123   4.547  20.749  0.00  0.00    +0.000 OA
ENDBRANCH  22  29
BRANCH  26  30
ATOM     30  O   UNL     1       4.919   4.810  16.719  0.00  0.00    +0.000 OA
ATOM     31  C   UNL     1       5.440   5.731  15.769  0.00  0.00    +0.000 C 
ENDBRANCH  26  30
BRANCH  27  32
ATOM     32  O   UNL     1       3.988   3.238  18.937  0.00  0.00    +0.000 OA
ATOM     33  C   UNL     1       3.293   2.205  18.259  0.00  0.00    +0.000 C 
ENDBRANCH  27  32
ENDBRANCH  18  24
ENDBRANCH   1  19
BRANCH   4  34
ATOM     34  O   UNL     1       2.022  13.762  19.738  0.00  0.00    +0.000 OA
ATOM     35  H   UNL     1       2.834  13.843  19.194  0.00  0.00    +0.000 HD
ENDBRANCH   4  34
BRANCH   5  36
ATOM     36  O   UNL     1       2.147  12.725  17.331  0.00  0.00    +0.000 OA
ATOM     37  H   UNL     1       2.199  13.611  17.727  0.00  0.00    +0.000 HD
ENDBRANCH   5  36
TORSDOF 8
ENDMDL
MODEL 8
REMARK VINA RESULT:      -7.3      4.119      8.807
REMARK  Name = 
REMARK  11 active torsions:
REMARK  status: ('A' for Active; 'I' for Inactive)
REMARK    1  A    between atoms: C_1  and  O_2
REMARK    2  A    between atoms: O_2  and  C_3
REMARK    3  A    between atoms: C_5  and  N_6
REMARK    4  A    between atoms: C_7  and  C_9
REMARK    5  A    between atoms: C_11  and  N_12
REMARK    6  A    between atoms: C_22  and  O_23
REMARK    7  A    between atoms: C_24  and  O_25
REMARK    8  A    between atoms: C_27  and  O_28
REMARK    9  A    between atoms: O_28  and  C_29
REMARK   10  A    between atoms: C_30  and  O_31
REMARK   11  A    between atoms: O_31  and  C_32
REMARK                            x       y       z     vdW  Elec       q    Type
REMARK                         _______ _______ _______ _____ _____    ______ ____
ROOT
ATOM      1  C   UNL     1       0.881   9.448  21.936  0.00  0.00    +0.000 C 
ATOM      2  O   UNL     1       1.574  10.708  21.866  0.00  0.00    +0.000 OA
ATOM      3  C   UNL     1       0.639  11.713  21.397  0.00  0.00    +0.000 C 
ATOM      4  C   UNL     1      -0.682  11.023  21.062  0.00  0.00    +0.000 C 
ATOM      5  C   UNL     1      -0.613   9.780  21.933  0.00  0.00    +0.000 C 
ENDROOT
BRANCH   3   6
ATOM      6  N   UNL     1       1.179  12.467  20.278  0.00  0.00    +0.000 N 
ATOM      7  C   UNL     1       0.733  12.346  18.984  0.00  0.00    +0.000 A 
ATOM      8  N   UNL     1       1.449  13.065  18.144  0.00  0.00    +0.000 NA
ATOM      9  C   UNL     1       2.417  13.658  18.929  0.00  0.00    +0.000 A 
ATOM     10  C   UNL     1       3.493  14.510  18.624  0.00  0.00    +0.000 A 
ATOM     11  N   UNL     1       3.803  14.919  17.335  0.00  0.00    +0.000 N 
ATOM     12  N   UNL     1       4.267  14.964  19.639  0.00  0.00    +0.000 NA
ATOM     13  C   UNL     1       3.986  14.547  20.890  0.00  0.00    +0.000 A 
ATOM     14  N   UNL     1       3.006  13.715  21.294  0.00  0.00    +0.000 NA
ATOM     15  C   UNL     1       2.252  13.314  20.262  0.00  0.00    +0.000 A 
ATOM     16  H   UNL     1       3.025  14.833  16.690  0.00  0.00    +0.000 HD
ATOM     17  H   UNL     1       4.333  15.780  17.326  0.00  0.00    +0.000 HD
ENDBRANCH   3   6
BRANCH   1  19
ATOM     18  N   UNL     1       1.536   7.201  21.195  0.00  0.00    +0.000 N 
ATOM     19  C   UNL     1       1.259   8.502  20.780  0.00  0.00    +0.000 C 
ATOM     20  O   UNL     1       1.274   8.916  19.622  0.00  0.00    +0.000 OA
ATOM     21  H   UNL     1       1.554   7.041  22.197  0.00  0.00    +0.000 HD
BRANCH  18  24
ATOM     22  C   UNL     1       3.700   5.342  18.773  0.00  0.00    +0.000 A 
ATOM     23  C   UNL     1       2.991   6.392  19.379  0.00  0.00    +0.000 A 
ATOM     24  C   UNL     1       2.069   6.162  20.390  0.00  0.00    +0.000 A 
ATOM     25  C   UNL     1       1.732   4.840  20.673  0.00  0.00    +0.000 A 
ATOM     26  C   UNL     1       2.337   3.761  19.988  0.00  0.00    +0.000 A 
ATOM     27  C   UNL     1       3.342   4.004  19.024  0.00  0.00    +0.000 A 
BRANCH  22  29
ATOM     28  C   UNL     1       6.043   5.581  18.570  0.00  0.00    +0.000 C 
ATOM     29  O   UNL     1       4.755   5.638  17.943  0.00  0.00    +0.000 OA
ENDBRANCH  22  29
BRANCH  26  30
ATOM     30  O   UNL     1       1.850   2.549  20.423  0.00  0.00    +0.000 OA
ATOM     31  C   UNL     1       1.491   2.386  21.790  0.00  0.00    +0.000 C 
ENDBRANCH  26  30
BRANCH  27  32
ATOM     32  O   UNL     1       3.879   2.902  18.420  0.00  0.00    +0.000 OA
ATOM     33  C   UNL     1       3.146   2.146  17.471  0.00  0.00    +0.000 C 
ENDBRANCH  27  32
ENDBRANCH  18  24
ENDBRANCH   1  19
BRANCH   4  34
ATOM     34  O   UNL     1      -1.807  11.840  21.398  0.00  0.00    +0.000 OA
ATOM     35  H   UNL     1      -2.442  11.256  21.866  0.00  0.00    +0.000 HD
ENDBRANCH   4  34
BRANCH   5  36
ATOM     36  O   UNL     1      -1.092  10.126  23.252  0.00  0.00    +0.000 OA
ATOM     37  H   UNL     1      -1.927  10.616  23.169  0.00  0.00    +0.000 HD
ENDBRANCH   5  36
TORSDOF 8
ENDMDL
MODEL 9
REMARK VINA RESULT:      -7.3      3.753      8.882
REMARK  Name = 
REMARK  11 active torsions:
REMARK  status: ('A' for Active; 'I' for Inactive)
REMARK    1  A    between atoms: C_1  and  O_2
REMARK    2  A    between atoms: O_2  and  C_3
REMARK    3  A    between atoms: C_5  and  N_6
REMARK    4  A    between atoms: C_7  and  C_9
REMARK    5  A    between atoms: C_11  and  N_12
REMARK    6  A    between atoms: C_22  and  O_23
REMARK    7  A    between atoms: C_24  and  O_25
REMARK    8  A    between atoms: C_27  and  O_28
REMARK    9  A    between atoms: O_28  and  C_29
REMARK   10  A    between atoms: C_30  and  O_31
REMARK   11  A    between atoms: O_31  and  C_32
REMARK                            x       y       z     vdW  Elec       q    Type
REMARK                         _______ _______ _______ _____ _____    ______ ____
ROOT
ATOM      1  C   UNL     1       1.114   9.032  21.723  0.00  0.00    +0.000 C 
ATOM      2  O   UNL     1       1.738  10.329  21.741  0.00  0.00    +0.000 OA
ATOM      3  C   UNL     1       0.751  11.313  21.341  0.00  0.00    +0.000 C 
ATOM      4  C   UNL     1      -0.533  10.578  20.960  0.00  0.00    +0.000 C 
ATOM      5  C   UNL     1      -0.396   9.283  21.742  0.00  0.00    +0.000 C 
ENDROOT
BRANCH   3   6
ATOM      6  N   UNL     1       1.246  12.170  20.278  0.00  0.00    +0.000 N 
ATOM      7  C   UNL     1       0.839  12.082  18.968  0.00  0.00    +0.000 A 
ATOM      8  N   UNL     1       1.507  12.904  18.186  0.00  0.00    +0.000 NA
ATOM      9  C   UNL     1       2.405  13.532  19.024  0.00  0.00    +0.000 A 
ATOM     10  C   UNL     1       3.410  14.487  18.791  0.00  0.00    +0.000 A 
ATOM     11  N   UNL     1       3.710  14.990  17.534  0.00  0.00    +0.000 N 
ATOM     12  N   UNL     1       4.122  14.948  19.847  0.00  0.00    +0.000 NA
ATOM     13  C   UNL     1       3.853  14.442  21.068  0.00  0.00    +0.000 A 
ATOM     14  N   UNL     1       2.940  13.509  21.403  0.00  0.00    +0.000 NA
ATOM     15  C   UNL     1       2.243  13.103  20.333  0.00  0.00    +0.000 A 
ATOM     16  H   UNL     1       2.955  14.875  16.866  0.00  0.00    +0.000 HD
ATOM     17  H   UNL     1       4.164  15.892  17.583  0.00  0.00    +0.000 HD
ENDBRANCH   3   6
BRANCH   1  19
ATOM     18  N   UNL     1       1.938   6.896  20.837  0.00  0.00    +0.000 N 
ATOM     19  C   UNL     1       1.538   8.189  20.505  0.00  0.00    +0.000 C 
ATOM     20  O   UNL     1       1.484   8.667  19.374  0.00  0.00    +0.000 OA
ATOM     21  H   UNL     1       1.998   6.682  21.827  0.00  0.00    +0.000 HD
BRANCH  18  24
ATOM     22  C   UNL     1       2.362   4.076  18.413  0.00  0.00    +0.000 A 
ATOM     23  C   UNL     1       1.856   4.846  19.474  0.00  0.00    +0.000 A 
ATOM     24  C   UNL     1       2.533   5.954  19.960  0.00  0.00    +0.000 A 
ATOM     25  C   UNL     1       3.823   6.187  19.484  0.00  0.00    +0.000 A 
ATOM     26  C   UNL     1       4.411   5.353  18.506  0.00  0.00    +0.000 A 
ATOM     27  C   UNL     1       3.676   4.280  17.952  0.00  0.00    +0.000 A 
BRANCH  22  29
ATOM     28  C   UNL     1       0.769   2.363  18.744  0.00  0.00    +0.000 C 
ATOM     29  O   UNL     1       1.554   3.133  17.825  0.00  0.00    +0.000 OA
ENDBRANCH  22  29
BRANCH  26  30
ATOM     30  O   UNL     1       5.686   5.764  18.191  0.00  0.00    +0.000 OA
ATOM     31  C   UNL     1       6.771   5.397  19.035  0.00  0.00    +0.000 C 
ENDBRANCH  26  30
BRANCH  27  32
ATOM     32  O   UNL     1       4.319   3.532  17.006  0.00  0.00    +0.000 OA
ATOM     33  C   UNL     1       4.842   4.119  15.827  0.00  0.00    +0.000 C 
ENDBRANCH  27  32
ENDBRANCH  18  24
ENDBRANCH   1  19
BRANCH   4  34
ATOM     34  O   UNL     1      -1.698  11.309  21.350  0.00  0.00    +0.000 OA
ATOM     35  H   UNL     1      -1.998  11.795  20.552  0.00  0.00    +0.000 HD
ENDBRANCH   4  34
BRANCH   5  36
ATOM     36  O   UNL     1      -0.888   9.512  23.082  0.00  0.00    +0.000 OA
ATOM     37  H   UNL     1      -1.858   9.444  23.081  0.00  0.00    +0.000 HD
ENDBRANCH   5  36
TORSDOF 8
ENDMDL
