MODEL 1
REMARK VINA RESULT:      -9.2      0.000      0.000
REMARK  Name = 
REMARK  3 active torsions:
REMARK  status: ('A' for Active; 'I' for Inactive)
REMARK    1  A    between atoms: C_4  and  C_5
REMARK    2  A    between atoms: C_7  and  C_8
REMARK    3  A    between atoms: C_15  and  C_16
REMARK                            x       y       z     vdW  Elec       q    Type
REMARK                         _______ _______ _______ _____ _____    ______ ____
ROOT
ATOM      1  C   UNL     1       2.950   5.706  18.479  0.00  0.00    +0.000 A 
ATOM      2  N   UNL     1       3.851   5.302  17.522  0.00  0.00    +0.000 NA
ATOM      3  C   UNL     1       4.327   6.395  16.973  0.00  0.00    +0.000 A 
ATOM      4  N   UNL     1       3.701   7.503  17.496  0.00  0.00    +0.000 N 
ATOM      5  C   UNL     1       2.799   7.089  18.460  0.00  0.00    +0.000 A 
ATOM      6  H   UNL     1       3.897   8.458  17.233  0.00  0.00    +0.000 HD
ENDROOT
BRANCH   1  10
ATOM      7  C   UNL     1       1.160   2.821  21.070  0.00  0.00    +0.000 A 
ATOM      8  C   UNL     1       0.722   2.927  19.754  0.00  0.00    +0.000 A 
ATOM      9  C   UNL     1       1.267   3.903  18.915  0.00  0.00    +0.000 A 
ATOM     10  C   UNL     1       2.305   4.734  19.355  0.00  0.00    +0.000 A 
ATOM     11  C   UNL     1       2.717   4.632  20.692  0.00  0.00    +0.000 A 
ATOM     12  C   UNL     1       2.142   3.688  21.546  0.00  0.00    +0.000 A 
ENDBRANCH   1  10
BRANCH   3  13
ATOM     13  C   UNL     1       5.414   6.496  15.944  0.00  0.00    +0.000 C 
ATOM     14  C   UNL     1       5.620   5.212  15.138  0.00  0.00    +0.000 C 
ATOM     15  C   UNL     1       6.251   4.102  15.974  0.00  0.00    +0.000 C 
ATOM     16  C   UNL     1       7.499   4.611  16.676  0.00  0.00    +0.000 C 
ATOM     17  C   UNL     1       7.238   5.919  17.411  0.00  0.00    +0.000 C 
ATOM     18  O   UNL     1       6.634   6.914  16.579  0.00  0.00    +0.000 OA
ENDBRANCH   3  13
BRANCH   5  19
ATOM     19  C   UNL     1       1.980   8.019  19.240  0.00  0.00    +0.000 A 
ATOM     20  C   UNL     1       1.386   9.134  18.629  0.00  0.00    +0.000 A 
ATOM     21  C   UNL     1       0.423   9.891  19.299  0.00  0.00    +0.000 A 
ATOM     22  C   UNL     1       0.097   9.589  20.618  0.00  0.00    +0.000 A 
ATOM     23  C   UNL     1       0.745   8.540  21.268  0.00  0.00    +0.000 A 
ATOM     24  C   UNL     1       1.679   7.756  20.582  0.00  0.00    +0.000 A 
ENDBRANCH   5  19
TORSDOF 3
ENDMDL
MODEL 2
REMARK VINA RESULT:      -9.2      0.245      4.087
REMARK  Name = 
REMARK  3 active torsions:
REMARK  status: ('A' for Active; 'I' for Inactive)
REMARK    1  A    between atoms: C_4  and  C_5
REMARK    2  A    between atoms: C_7  and  C_8
REMARK    3  A    between atoms: C_15  and  C_16
REMARK                            x       y       z     vdW  Elec       q    Type
REMARK                         _______ _______ _______ _____ _____    ______ ____
ROOT
ATOM      1  C   UNL     1       2.876   7.153  18.406  0.00  0.00    +0.000 A 
ATOM      2  N   UNL     1       3.798   7.599  17.489  0.00  0.00    +0.000 NA
ATOM      3  C   UNL     1       4.402   6.532  17.019  0.00  0.00    +0.000 A 
ATOM      4  N   UNL     1       3.949   5.405  17.664  0.00  0.00    +0.000 N 
ATOM      5  C   UNL     1       2.973   5.775  18.572  0.00  0.00    +0.000 A 
ATOM      6  H   UNL     1       4.262   4.463  17.477  0.00  0.00    +0.000 HD
ENDROOT
BRANCH   1  10
ATOM      7  C   UNL     1       0.234   9.959  20.248  0.00  0.00    +0.000 A 
ATOM      8  C   UNL     1       0.830   8.967  21.020  0.00  0.00    +0.000 A 
ATOM      9  C   UNL     1       1.655   8.015  20.416  0.00  0.00    +0.000 A 
ATOM     10  C   UNL     1       1.954   8.083  19.050  0.00  0.00    +0.000 A 
ATOM     11  C   UNL     1       1.325   9.073  18.281  0.00  0.00    +0.000 A 
ATOM     12  C   UNL     1       0.464   9.999  18.874  0.00  0.00    +0.000 A 
ENDBRANCH   1  10
BRANCH   3  13
ATOM     13  C   UNL     1       5.423   6.475  15.922  0.00  0.00    +0.000 C 
ATOM     14  C   UNL     1       5.528   5.104  15.249  0.00  0.00    +0.000 C 
ATOM     15  C   UNL     1       6.168   4.062  16.161  0.00  0.00    +0.000 C 
ATOM     16  C   UNL     1       7.478   4.586  16.729  0.00  0.00    +0.000 C 
ATOM     17  C   UNL     1       7.314   5.975  17.331  0.00  0.00    +0.000 C 
ATOM     18  O   UNL     1       6.696   6.903  16.434  0.00  0.00    +0.000 OA
ENDBRANCH   3  13
BRANCH   5  19
ATOM     19  C   UNL     1       2.255   4.813  19.411  0.00  0.00    +0.000 A 
ATOM     20  C   UNL     1       1.328   3.924  18.846  0.00  0.00    +0.000 A 
ATOM     21  C   UNL     1       0.814   2.857  19.587  0.00  0.00    +0.000 A 
ATOM     22  C   UNL     1       1.163   2.711  20.926  0.00  0.00    +0.000 A 
ATOM     23  C   UNL     1       2.012   3.640  21.526  0.00  0.00    +0.000 A 
ATOM     24  C   UNL     1       2.559   4.684  20.772  0.00  0.00    +0.000 A 
ENDBRANCH   5  19
TORSDOF 3
ENDMDL
MODEL 3
REMARK VINA RESULT:      -9.2      0.056      1.005
REMARK  Name = 
REMARK  3 active torsions:
REMARK  status: ('A' for Active; 'I' for Inactive)
REMARK    1  A    between atoms: C_4  and  C_5
REMARK    2  A    between atoms: C_7  and  C_8
REMARK    3  A    between atoms: C_15  and  C_16
REMARK                            x       y       z     vdW  Elec       q    Type
REMARK                         _______ _______ _______ _____ _____    ______ ____
ROOT
ATOM      1  C   UNL     1       2.988   5.693  18.482  0.00  0.00    +0.000 A 
ATOM      2  N   UNL     1       3.881   5.297  17.514  0.00  0.00    +0.000 NA
ATOM      3  C   UNL     1       4.335   6.394  16.956  0.00  0.00    +0.000 A 
ATOM      4  N   UNL     1       3.702   7.495  17.483  0.00  0.00    +0.000 N 
ATOM      5  C   UNL     1       2.819   7.074  18.461  0.00  0.00    +0.000 A 
ATOM      6  H   UNL     1       3.882   8.452  17.215  0.00  0.00    +0.000 HD
ENDROOT
BRANCH   1  10
ATOM      7  C   UNL     1       1.071   2.871  21.053  0.00  0.00    +0.000 A 
ATOM      8  C   UNL     1       2.103   3.662  21.549  0.00  0.00    +0.000 A 
ATOM      9  C   UNL     1       2.769   4.551  20.701  0.00  0.00    +0.000 A 
ATOM     10  C   UNL     1       2.367   4.715  19.370  0.00  0.00    +0.000 A 
ATOM     11  C   UNL     1       1.342   3.893  18.879  0.00  0.00    +0.000 A 
ATOM     12  C   UNL     1       0.705   2.970  19.713  0.00  0.00    +0.000 A 
ENDBRANCH   1  10
BRANCH   3  13
ATOM     13  C   UNL     1       5.406   6.506  15.911  0.00  0.00    +0.000 C 
ATOM     14  C   UNL     1       5.603   5.228  15.092  0.00  0.00    +0.000 C 
ATOM     15  C   UNL     1       6.248   4.113  15.910  0.00  0.00    +0.000 C 
ATOM     16  C   UNL     1       7.506   4.619  16.598  0.00  0.00    +0.000 C 
ATOM     17  C   UNL     1       7.253   5.921  17.347  0.00  0.00    +0.000 C 
ATOM     18  O   UNL     1       6.635   6.921  16.532  0.00  0.00    +0.000 OA
ENDBRANCH   3  13
BRANCH   5  19
ATOM     19  C   UNL     1       1.998   7.996  19.249  0.00  0.00    +0.000 A 
ATOM     20  C   UNL     1       1.405   9.117  18.648  0.00  0.00    +0.000 A 
ATOM     21  C   UNL     1       0.441   9.867  19.325  0.00  0.00    +0.000 A 
ATOM     22  C   UNL     1       0.112   9.551  20.639  0.00  0.00    +0.000 A 
ATOM     23  C   UNL     1       0.759   8.495  21.279  0.00  0.00    +0.000 A 
ATOM     24  C   UNL     1       1.695   7.718  20.587  0.00  0.00    +0.000 A 
ENDBRANCH   5  19
TORSDOF 3
ENDMDL
MODEL 4
REMARK VINA RESULT:      -9.2      0.186      1.022
REMARK  Name = 
REMARK  3 active torsions:
REMARK  status: ('A' for Active; 'I' for Inactive)
REMARK    1  A    between atoms: C_4  and  C_5
REMARK    2  A    between atoms: C_7  and  C_8
REMARK    3  A    between atoms: C_15  and  C_16
REMARK                            x       y       z     vdW  Elec       q    Type
REMARK                         _______ _______ _______ _____ _____    ______ ____
ROOT
ATOM      1  C   UNL     1       2.943   5.695  18.472  0.00  0.00    +0.000 A 
ATOM      2  N   UNL     1       3.869   5.301  17.535  0.00  0.00    +0.000 NA
ATOM      3  C   UNL     1       4.335   6.400  16.988  0.00  0.00    +0.000 A 
ATOM      4  N   UNL     1       3.678   7.499  17.491  0.00  0.00    +0.000 N 
ATOM      5  C   UNL     1       2.767   7.075  18.442  0.00  0.00    +0.000 A 
ATOM      6  H   UNL     1       3.861   8.456  17.225  0.00  0.00    +0.000 HD
ENDROOT
BRANCH   1  10
ATOM      7  C   UNL     1       1.159   2.794  21.050  0.00  0.00    +0.000 A 
ATOM      8  C   UNL     1       0.741   2.886  19.726  0.00  0.00    +0.000 A 
ATOM      9  C   UNL     1       1.283   3.866  18.891  0.00  0.00    +0.000 A 
ATOM     10  C   UNL     1       2.300   4.717  19.343  0.00  0.00    +0.000 A 
ATOM     11  C   UNL     1       2.692   4.628  20.687  0.00  0.00    +0.000 A 
ATOM     12  C   UNL     1       2.118   3.679  21.537  0.00  0.00    +0.000 A 
ENDBRANCH   1  10
BRANCH   3  13
ATOM     13  C   UNL     1       5.438   6.515  15.978  0.00  0.00    +0.000 C 
ATOM     14  C   UNL     1       5.656   5.241  15.157  0.00  0.00    +0.000 C 
ATOM     15  C   UNL     1       6.272   4.119  15.986  0.00  0.00    +0.000 C 
ATOM     16  C   UNL     1       7.510   4.617  16.717  0.00  0.00    +0.000 C 
ATOM     17  C   UNL     1       7.237   5.914  17.466  0.00  0.00    +0.000 C 
ATOM     18  O   UNL     1       6.648   6.922  16.638  0.00  0.00    +0.000 OA
ENDBRANCH   3  13
BRANCH   5  19
ATOM     19  C   UNL     1       1.916   7.994  19.200  0.00  0.00    +0.000 A 
ATOM     20  C   UNL     1       1.700   7.800  20.573  0.00  0.00    +0.000 A 
ATOM     21  C   UNL     1       1.089   8.788  21.350  0.00  0.00    +0.000 A 
ATOM     22  C   UNL     1       0.617   9.950  20.748  0.00  0.00    +0.000 A 
ATOM     23  C   UNL     1       0.744  10.116  19.370  0.00  0.00    +0.000 A 
ATOM     24  C   UNL     1       1.393   9.146  18.599  0.00  0.00    +0.000 A 
ENDBRANCH   5  19
TORSDOF 3
ENDMDL
MODEL 5
REMARK VINA RESULT:      -9.2      1.017      1.856
REMARK  Name = 
REMARK  3 active torsions:
REMARK  status: ('A' for Active; 'I' for Inactive)
REMARK    1  A    between atoms: C_4  and  C_5
REMARK    2  A    between atoms: C_7  and  C_8
REMARK    3  A    between atoms: C_15  and  C_16
REMARK                            x       y       z     vdW  Elec       q    Type
REMARK                         _______ _______ _______ _____ _____    ______ ____
ROOT
ATOM      1  C   UNL     1       3.345   5.259  18.408  0.00  0.00    +0.000 A 
ATOM      2  N   UNL     1       4.492   4.746  17.848  0.00  0.00    +0.000 NA
ATOM      3  C   UNL     1       5.186   5.772  17.414  0.00  0.00    +0.000 A 
ATOM      4  N   UNL     1       4.484   6.939  17.607  0.00  0.00    +0.000 N 
ATOM      5  C   UNL     1       3.288   6.639  18.235  0.00  0.00    +0.000 A 
ATOM      6  H   UNL     1       4.810   7.861  17.355  0.00  0.00    +0.000 HD
ENDROOT
BRANCH   1  10
ATOM      7  C   UNL     1       0.629   2.662  20.437  0.00  0.00    +0.000 A 
ATOM      8  C   UNL     1       0.588   2.750  19.049  0.00  0.00    +0.000 A 
ATOM      9  C   UNL     1       1.438   3.635  18.382  0.00  0.00    +0.000 A 
ATOM     10  C   UNL     1       2.389   4.388  19.083  0.00  0.00    +0.000 A 
ATOM     11  C   UNL     1       2.400   4.307  20.483  0.00  0.00    +0.000 A 
ATOM     12  C   UNL     1       1.519   3.456  21.156  0.00  0.00    +0.000 A 
ENDBRANCH   1  10
BRANCH   3  13
ATOM     13  C   UNL     1       6.559   5.750  16.811  0.00  0.00    +0.000 C 
ATOM     14  C   UNL     1       7.600   5.036  17.677  0.00  0.00    +0.000 C 
ATOM     15  C   UNL     1       7.953   5.833  18.929  0.00  0.00    +0.000 C 
ATOM     16  C   UNL     1       8.314   7.264  18.563  0.00  0.00    +0.000 C 
ATOM     17  C   UNL     1       7.265   7.894  17.656  0.00  0.00    +0.000 C 
ATOM     18  O   UNL     1       6.968   7.094  16.508  0.00  0.00    +0.000 OA
ENDBRANCH   3  13
BRANCH   5  19
ATOM     19  C   UNL     1       2.308   7.657  18.618  0.00  0.00    +0.000 A 
ATOM     20  C   UNL     1       1.899   7.790  19.954  0.00  0.00    +0.000 A 
ATOM     21  C   UNL     1       1.151   8.894  20.368  0.00  0.00    +0.000 A 
ATOM     22  C   UNL     1       0.737   9.841  19.436  0.00  0.00    +0.000 A 
ATOM     23  C   UNL     1       1.059   9.675  18.091  0.00  0.00    +0.000 A 
ATOM     24  C   UNL     1       1.844   8.590  17.683  0.00  0.00    +0.000 A 
ENDBRANCH   5  19
TORSDOF 3
ENDMDL
MODEL 6
REMARK VINA RESULT:      -9.2      0.193      3.985
REMARK  Name = 
REMARK  3 active torsions:
REMARK  status: ('A' for Active; 'I' for Inactive)
REMARK    1  A    between atoms: C_4  and  C_5
REMARK    2  A    between atoms: C_7  and  C_8
REMARK    3  A    between atoms: C_15  and  C_16
REMARK                            x       y       z     vdW  Elec       q    Type
REMARK                         _______ _______ _______ _____ _____    ______ ____
ROOT
ATOM      1  C   UNL     1       2.853   7.152  18.419  0.00  0.00    +0.000 A 
ATOM      2  N   UNL     1       3.767   7.594  17.492  0.00  0.00    +0.000 NA
ATOM      3  C   UNL     1       4.369   6.526  17.024  0.00  0.00    +0.000 A 
ATOM      4  N   UNL     1       3.924   5.402  17.680  0.00  0.00    +0.000 N 
ATOM      5  C   UNL     1       2.955   5.775  18.594  0.00  0.00    +0.000 A 
ATOM      6  H   UNL     1       4.238   4.460  17.496  0.00  0.00    +0.000 HD
ENDROOT
BRANCH   1  10
ATOM      7  C   UNL     1       0.107   9.794  20.349  0.00  0.00    +0.000 A 
ATOM      8  C   UNL     1       0.385   9.961  18.997  0.00  0.00    +0.000 A 
ATOM      9  C   UNL     1       1.320   9.133  18.370  0.00  0.00    +0.000 A 
ATOM     10  C   UNL     1       1.934   8.084  19.065  0.00  0.00    +0.000 A 
ATOM     11  C   UNL     1       1.663   7.945  20.434  0.00  0.00    +0.000 A 
ATOM     12  C   UNL     1       0.762   8.800  21.074  0.00  0.00    +0.000 A 
ENDBRANCH   1  10
BRANCH   3  13
ATOM     13  C   UNL     1       5.382   6.464  15.919  0.00  0.00    +0.000 C 
ATOM     14  C   UNL     1       5.495   5.086  15.264  0.00  0.00    +0.000 C 
ATOM     15  C   UNL     1       6.154   4.062  16.184  0.00  0.00    +0.000 C 
ATOM     16  C   UNL     1       7.463   4.608  16.733  0.00  0.00    +0.000 C 
ATOM     17  C   UNL     1       7.290   6.003  17.318  0.00  0.00    +0.000 C 
ATOM     18  O   UNL     1       6.655   6.912  16.414  0.00  0.00    +0.000 OA
ENDBRANCH   3  13
BRANCH   5  19
ATOM     19  C   UNL     1       2.246   4.817  19.445  0.00  0.00    +0.000 A 
ATOM     20  C   UNL     1       1.307   3.931  18.895  0.00  0.00    +0.000 A 
ATOM     21  C   UNL     1       0.801   2.866  19.645  0.00  0.00    +0.000 A 
ATOM     22  C   UNL     1       1.169   2.721  20.979  0.00  0.00    +0.000 A 
ATOM     23  C   UNL     1       2.031   3.647  21.564  0.00  0.00    +0.000 A 
ATOM     24  C   UNL     1       2.570   4.688  20.800  0.00  0.00    +0.000 A 
ENDBRANCH   5  19
TORSDOF 3
ENDMDL
MODEL 7
REMARK VINA RESULT:      -9.1      0.188      1.432
REMARK  Name = 
REMARK  3 active torsions:
REMARK  status: ('A' for Active; 'I' for Inactive)
REMARK    1  A    between atoms: C_4  and  C_5
REMARK    2  A    between atoms: C_7  and  C_8
REMARK    3  A    between atoms: C_15  and  C_16
REMARK                            x       y       z     vdW  Elec       q    Type
REMARK                         _______ _______ _______ _____ _____    ______ ____
ROOT
ATOM      1  C   UNL     1       2.979   5.669  18.512  0.00  0.00    +0.000 A 
ATOM      2  N   UNL     1       3.896   5.288  17.561  0.00  0.00    +0.000 NA
ATOM      3  C   UNL     1       4.334   6.392  17.002  0.00  0.00    +0.000 A 
ATOM      4  N   UNL     1       3.667   7.481  17.512  0.00  0.00    +0.000 N 
ATOM      5  C   UNL     1       2.778   7.046  18.479  0.00  0.00    +0.000 A 
ATOM      6  H   UNL     1       3.829   8.440  17.239  0.00  0.00    +0.000 HD
ENDROOT
BRANCH   1  10
ATOM      7  C   UNL     1       1.088   2.823  21.075  0.00  0.00    +0.000 A 
ATOM      8  C   UNL     1       2.124   3.610  21.568  0.00  0.00    +0.000 A 
ATOM      9  C   UNL     1       2.781   4.507  20.722  0.00  0.00    +0.000 A 
ATOM     10  C   UNL     1       2.367   4.683  19.396  0.00  0.00    +0.000 A 
ATOM     11  C   UNL     1       1.338   3.865  18.907  0.00  0.00    +0.000 A 
ATOM     12  C   UNL     1       0.709   2.934  19.739  0.00  0.00    +0.000 A 
ENDBRANCH   1  10
BRANCH   3  13
ATOM     13  C   UNL     1       5.418   6.522  15.974  0.00  0.00    +0.000 C 
ATOM     14  C   UNL     1       5.632   5.255  15.141  0.00  0.00    +0.000 C 
ATOM     15  C   UNL     1       6.271   4.133  15.953  0.00  0.00    +0.000 C 
ATOM     16  C   UNL     1       7.517   4.635  16.664  0.00  0.00    +0.000 C 
ATOM     17  C   UNL     1       7.248   5.926  17.426  0.00  0.00    +0.000 C 
ATOM     18  O   UNL     1       6.636   6.934  16.616  0.00  0.00    +0.000 OA
ENDBRANCH   3  13
BRANCH   5  19
ATOM     19  C   UNL     1       1.924   7.953  19.247  0.00  0.00    +0.000 A 
ATOM     20  C   UNL     1       1.685   7.726  20.612  0.00  0.00    +0.000 A 
ATOM     21  C   UNL     1       1.071   8.699  21.404  0.00  0.00    +0.000 A 
ATOM     22  C   UNL     1       0.619   9.881  20.825  0.00  0.00    +0.000 A 
ATOM     23  C   UNL     1       0.769  10.081  19.454  0.00  0.00    +0.000 A 
ATOM     24  C   UNL     1       1.422   9.125  18.669  0.00  0.00    +0.000 A 
ENDBRANCH   5  19
TORSDOF 3
ENDMDL
MODEL 8
REMARK VINA RESULT:      -9.1      1.024      2.113
REMARK  Name = 
REMARK  3 active torsions:
REMARK  status: ('A' for Active; 'I' for Inactive)
REMARK    1  A    between atoms: C_4  and  C_5
REMARK    2  A    between atoms: C_7  and  C_8
REMARK    3  A    between atoms: C_15  and  C_16
REMARK                            x       y       z     vdW  Elec       q    Type
REMARK                         _______ _______ _______ _____ _____    ______ ____
ROOT
ATOM      1  C   UNL     1       3.373   5.302  18.395  0.00  0.00    +0.000 A 
ATOM      2  N   UNL     1       4.527   4.816  17.827  0.00  0.00    +0.000 NA
ATOM      3  C   UNL     1       5.202   5.860  17.406  0.00  0.00    +0.000 A 
ATOM      4  N   UNL     1       4.481   7.011  17.616  0.00  0.00    +0.000 N 
ATOM      5  C   UNL     1       3.291   6.682  18.242  0.00  0.00    +0.000 A 
ATOM      6  H   UNL     1       4.790   7.942  17.377  0.00  0.00    +0.000 HD
ENDROOT
BRANCH   1  10
ATOM      7  C   UNL     1       0.539   2.719  20.278  0.00  0.00    +0.000 A 
ATOM      8  C   UNL     1       1.407   3.473  21.061  0.00  0.00    +0.000 A 
ATOM      9  C   UNL     1       2.370   4.281  20.452  0.00  0.00    +0.000 A 
ATOM     10  C   UNL     1       2.433   4.404  19.058  0.00  0.00    +0.000 A 
ATOM     11  C   UNL     1       1.568   3.618  18.283  0.00  0.00    +0.000 A 
ATOM     12  C   UNL     1       0.633   2.774  18.889  0.00  0.00    +0.000 A 
ENDBRANCH   1  10
BRANCH   3  13
ATOM     13  C   UNL     1       6.575   5.870  16.801  0.00  0.00    +0.000 C 
ATOM     14  C   UNL     1       7.627   5.151  17.649  0.00  0.00    +0.000 C 
ATOM     15  C   UNL     1       7.971   5.923  18.918  0.00  0.00    +0.000 C 
ATOM     16  C   UNL     1       8.312   7.367  18.585  0.00  0.00    +0.000 C 
ATOM     17  C   UNL     1       7.254   8.004  17.694  0.00  0.00    +0.000 C 
ATOM     18  O   UNL     1       6.965   7.227  16.528  0.00  0.00    +0.000 OA
ENDBRANCH   3  13
BRANCH   5  19
ATOM     19  C   UNL     1       2.294   7.678  18.640  0.00  0.00    +0.000 A 
ATOM     20  C   UNL     1       1.879   7.779  19.977  0.00  0.00    +0.000 A 
ATOM     21  C   UNL     1       1.113   8.864  20.409  0.00  0.00    +0.000 A 
ATOM     22  C   UNL     1       0.687   9.821  19.494  0.00  0.00    +0.000 A 
ATOM     23  C   UNL     1       1.016   9.685  18.146  0.00  0.00    +0.000 A 
ATOM     24  C   UNL     1       1.819   8.621  17.721  0.00  0.00    +0.000 A 
ENDBRANCH   5  19
TORSDOF 3
ENDMDL
MODEL 9
REMARK VINA RESULT:      -8.8      0.220      4.047
REMARK  Name = 
REMARK  3 active torsions:
REMARK  status: ('A' for Active; 'I' for Inactive)
REMARK    1  A    between atoms: C_4  and  C_5
REMARK    2  A    between atoms: C_7  and  C_8
REMARK    3  A    between atoms: C_15  and  C_16
REMARK                            x       y       z     vdW  Elec       q    Type
REMARK                         _______ _______ _______ _____ _____    ______ ____
ROOT
ATOM      1  C   UNL     1       2.958   6.975  18.450  0.00  0.00    +0.000 A 
ATOM      2  N   UNL     1       3.816   7.487  17.505  0.00  0.00    +0.000 NA
ATOM      3  C   UNL     1       4.427   6.461  16.961  0.00  0.00    +0.000 A 
ATOM      4  N   UNL     1       4.044   5.294  17.582  0.00  0.00    +0.000 N 
ATOM      5  C   UNL     1       3.107   5.595  18.554  0.00  0.00    +0.000 A 
ATOM      6  H   UNL     1       4.377   4.372  17.339  0.00  0.00    +0.000 HD
ENDROOT
BRANCH   1  10
ATOM      7  C   UNL     1       0.342   9.615  20.554  0.00  0.00    +0.000 A 
ATOM      8  C   UNL     1       0.882   8.515  21.212  0.00  0.00    +0.000 A 
ATOM      9  C   UNL     1       1.698   7.619  20.517  0.00  0.00    +0.000 A 
ATOM     10  C   UNL     1       2.044   7.847  19.179  0.00  0.00    +0.000 A 
ATOM     11  C   UNL     1       1.470   8.946  18.523  0.00  0.00    +0.000 A 
ATOM     12  C   UNL     1       0.617   9.819  19.204  0.00  0.00    +0.000 A 
ENDBRANCH   1  10
BRANCH   3  13
ATOM     13  C   UNL     1       5.389   6.481  15.810  0.00  0.00    +0.000 C 
ATOM     14  C   UNL     1       5.428   5.173  15.017  0.00  0.00    +0.000 C 
ATOM     15  C   UNL     1       6.090   4.044  15.800  0.00  0.00    +0.000 C 
ATOM     16  C   UNL     1       7.439   4.493  16.341  0.00  0.00    +0.000 C 
ATOM     17  C   UNL     1       7.338   5.826  17.069  0.00  0.00    +0.000 C 
ATOM     18  O   UNL     1       6.696   6.840  16.289  0.00  0.00    +0.000 OA
ENDBRANCH   3  13
BRANCH   5  19
ATOM     19  C   UNL     1       2.466   4.578  19.389  0.00  0.00    +0.000 A 
ATOM     20  C   UNL     1       2.879   4.377  20.715  0.00  0.00    +0.000 A 
ATOM     21  C   UNL     1       2.132   3.583  21.588  0.00  0.00    +0.000 A 
ATOM     22  C   UNL     1       1.001   2.917  21.123  0.00  0.00    +0.000 A 
ATOM     23  C   UNL     1       0.630   3.035  19.784  0.00  0.00    +0.000 A 
ATOM     24  C   UNL     1       1.356   3.865  18.922  0.00  0.00    +0.000 A 
ENDBRANCH   5  19
TORSDOF 3
ENDMDL
