MODEL 1
REMARK VINA RESULT:      -7.9      0.000      0.000
REMARK  Name = 
REMARK  11 active torsions:
REMARK  status: ('A' for Active; 'I' for Inactive)
REMARK    1  A    between atoms: C_1  and  C_2
REMARK    2  A    between atoms: C_2  and  C_3
REMARK    3  A    between atoms: C_6  and  C_7
REMARK    4  A    between atoms: N_9  and  C_10
REMARK    5  A    between atoms: C_10  and  C_11
REMARK    6  A    between atoms: C_11  and  N_12
REMARK    7  A    between atoms: C_17  and  S_18
REMARK    8  A    between atoms: S_18  and  N_21
REMARK    9  A    between atoms: N_21  and  C_22
REMARK   10  A    between atoms: C_22  and  C_23
REMARK   11  A    between atoms: C_22  and  C_24
REMARK                            x       y       z     vdW  Elec       q    Type
REMARK                         _______ _______ _______ _____ _____    ______ ____
ROOT
ATOM      1  N   UNL     1       1.688   6.767  20.497  0.00  0.00    +0.000 N 
ATOM      2  N   UNL     1       2.002   6.875  19.211  0.00  0.00    +0.000 NA
ATOM      3  N   UNL     1       2.131   8.122  18.941  0.00  0.00    +0.000 NA
ATOM      4  C   UNL     1       1.315   8.780  19.776  0.00  0.00    +0.000 A 
ATOM      5  C   UNL     1       0.944  10.118  19.306  0.00  0.00    +0.000 A 
ATOM      6  C   UNL     1       0.129  11.075  19.836  0.00  0.00    +0.000 A 
ATOM      7  C   UNL     1      -0.419  10.621  20.998  0.00  0.00    +0.000 A 
ATOM      8  C   UNL     1       0.011   9.213  21.520  0.00  0.00    +0.000 A 
ATOM      9  C   UNL     1       0.862   7.957  21.024  0.00  0.00    +0.000 A 
ENDROOT
BRANCH   6  10
ATOM     10  S   UNL     1      -0.132  12.591  18.882  0.00  0.00    +0.000 S 
ATOM     11  O   UNL     1      -0.750  13.543  19.785  0.00  0.00    +0.000 OA
ATOM     12  O   UNL     1       1.101  12.907  18.197  0.00  0.00    +0.000 OA
BRANCH  10  13
ATOM     13  N   UNL     1      -1.324  12.370  17.621  0.00  0.00    +0.000 NA
ATOM     14  H   UNL     1      -0.792  12.204  16.744  0.00  0.00    +0.000 HD
BRANCH  13  15
ATOM     15  C   UNL     1      -2.308  11.245  17.830  0.00  0.00    +0.000 C 
ATOM     16  C   UNL     1      -3.741  11.665  17.536  0.00  0.00    +0.000 C 
ATOM     17  C   UNL     1      -1.967  10.041  16.941  0.00  0.00    +0.000 C 
ENDBRANCH  13  15
ENDBRANCH  10  13
ENDBRANCH   6  10
BRANCH   1  18
ATOM     18  C   UNL     1       1.970   5.246  20.896  0.00  0.00    +0.000 C 
BRANCH  18  19
ATOM     19  C   UNL     1       3.451   4.328  20.550  0.00  0.00    +0.000 C 
BRANCH  19  22
ATOM     20  C   UNL     1       5.406   4.587  18.657  0.00  0.00    +0.000 C 
ATOM     21  O   UNL     1       6.266   4.907  19.473  0.00  0.00    +0.000 OA
ATOM     22  N   UNL     1       4.073   4.335  19.069  0.00  0.00    +0.000 N 
ATOM     23  H   UNL     1       3.393   4.265  18.314  0.00  0.00    +0.000 HD
BRANCH  20  27
ATOM     24  C   UNL     1       6.549   4.480  14.311  0.00  0.00    +0.000 A 
ATOM     25  C   UNL     1       7.487   4.833  15.290  0.00  0.00    +0.000 A 
ATOM     26  C   UNL     1       7.129   4.836  16.681  0.00  0.00    +0.000 A 
ATOM     27  C   UNL     1       5.815   4.527  17.140  0.00  0.00    +0.000 A 
ATOM     28  C   UNL     1       4.920   4.144  16.140  0.00  0.00    +0.000 A 
ATOM     29  C   UNL     1       5.281   4.106  14.768  0.00  0.00    +0.000 A 
BRANCH  24  31
ATOM     30  C   UNL     1       7.922   5.458  12.411  0.00  0.00    +0.000 C 
ATOM     31  C   UNL     1       6.863   4.435  12.821  0.00  0.00    +0.000 C 
ENDBRANCH  24  31
ENDBRANCH  20  27
ENDBRANCH  19  22
ENDBRANCH  18  19
ENDBRANCH   1  18
TORSDOF 8
ENDMDL
MODEL 2
REMARK VINA RESULT:      -7.7      6.742      9.573
REMARK  Name = 
REMARK  11 active torsions:
REMARK  status: ('A' for Active; 'I' for Inactive)
REMARK    1  A    between atoms: C_1  and  C_2
REMARK    2  A    between atoms: C_2  and  C_3
REMARK    3  A    between atoms: C_6  and  C_7
REMARK    4  A    between atoms: N_9  and  C_10
REMARK    5  A    between atoms: C_10  and  C_11
REMARK    6  A    between atoms: C_11  and  N_12
REMARK    7  A    between atoms: C_17  and  S_18
REMARK    8  A    between atoms: S_18  and  N_21
REMARK    9  A    between atoms: N_21  and  C_22
REMARK   10  A    between atoms: C_22  and  C_23
REMARK   11  A    between atoms: C_22  and  C_24
REMARK                            x       y       z     vdW  Elec       q    Type
REMARK                         _______ _______ _______ _____ _____    ______ ____
ROOT
ATOM      1  N   UNL     1       6.927   7.380  17.641  0.00  0.00    +0.000 N 
ATOM      2  N   UNL     1       6.235   7.436  16.509  0.00  0.00    +0.000 NA
ATOM      3  N   UNL     1       5.103   6.866  16.712  0.00  0.00    +0.000 NA
ATOM      4  C   UNL     1       5.308   5.935  17.652  0.00  0.00    +0.000 A 
ATOM      5  C   UNL     1       4.299   4.871  17.659  0.00  0.00    +0.000 A 
ATOM      6  C   UNL     1       4.165   3.748  18.422  0.00  0.00    +0.000 A 
ATOM      7  C   UNL     1       5.207   3.658  19.295  0.00  0.00    +0.000 A 
ATOM      8  C   UNL     1       6.257   4.815  19.319  0.00  0.00    +0.000 A 
ATOM      9  C   UNL     1       6.617   6.126  18.484  0.00  0.00    +0.000 A 
ENDROOT
BRANCH   6  10
ATOM     10  S   UNL     1       2.793   2.628  18.050  0.00  0.00    +0.000 S 
ATOM     11  O   UNL     1       2.184   3.117  16.828  0.00  0.00    +0.000 OA
ATOM     12  O   UNL     1       3.283   1.272  18.146  0.00  0.00    +0.000 OA
BRANCH  10  13
ATOM     13  N   UNL     1       1.514   2.747  19.237  0.00  0.00    +0.000 NA
ATOM     14  H   UNL     1       1.187   1.777  19.411  0.00  0.00    +0.000 HD
BRANCH  13  15
ATOM     15  C   UNL     1       1.888   3.393  20.550  0.00  0.00    +0.000 C 
ATOM     16  C   UNL     1       1.318   4.797  20.688  0.00  0.00    +0.000 C 
ATOM     17  C   UNL     1       1.396   2.554  21.737  0.00  0.00    +0.000 C 
ENDBRANCH  13  15
ENDBRANCH  10  13
ENDBRANCH   6  10
BRANCH   1  18
ATOM     18  C   UNL     1       8.101   8.454  17.497  0.00  0.00    +0.000 C 
BRANCH  18  19
ATOM     19  C   UNL     1       8.808   9.417  18.812  0.00  0.00    +0.000 C 
BRANCH  19  22
ATOM     20  C   UNL     1       9.705  11.873  18.015  0.00  0.00    +0.000 C 
ATOM     21  O   UNL     1      10.669  11.414  17.408  0.00  0.00    +0.000 OA
ATOM     22  N   UNL     1       8.817  11.020  18.719  0.00  0.00    +0.000 N 
ATOM     23  H   UNL     1       8.167  11.494  19.344  0.00  0.00    +0.000 HD
BRANCH  20  27
ATOM     24  C   UNL     1       9.185  16.336  18.159  0.00  0.00    +0.000 A 
ATOM     25  C   UNL     1      10.464  15.764  18.159  0.00  0.00    +0.000 A 
ATOM     26  C   UNL     1      10.629  14.339  18.082  0.00  0.00    +0.000 A 
ATOM     27  C   UNL     1       9.527  13.435  18.042  0.00  0.00    +0.000 A 
ATOM     28  C   UNL     1       8.271  14.044  18.005  0.00  0.00    +0.000 A 
ATOM     29  C   UNL     1       8.107  15.453  18.046  0.00  0.00    +0.000 A 
BRANCH  24  31
ATOM     30  C   UNL     1      10.098  18.605  18.845  0.00  0.00    +0.000 C 
ATOM     31  C   UNL     1       8.935  17.837  18.218  0.00  0.00    +0.000 C 
ENDBRANCH  24  31
ENDBRANCH  20  27
ENDBRANCH  19  22
ENDBRANCH  18  19
ENDBRANCH   1  18
TORSDOF 8
ENDMDL
MODEL 3
REMARK VINA RESULT:      -7.7      4.091     10.952
REMARK  Name = 
REMARK  11 active torsions:
REMARK  status: ('A' for Active; 'I' for Inactive)
REMARK    1  A    between atoms: C_1  and  C_2
REMARK    2  A    between atoms: C_2  and  C_3
REMARK    3  A    between atoms: C_6  and  C_7
REMARK    4  A    between atoms: N_9  and  C_10
REMARK    5  A    between atoms: C_10  and  C_11
REMARK    6  A    between atoms: C_11  and  N_12
REMARK    7  A    between atoms: C_17  and  S_18
REMARK    8  A    between atoms: S_18  and  N_21
REMARK    9  A    between atoms: N_21  and  C_22
REMARK   10  A    between atoms: C_22  and  C_23
REMARK   11  A    between atoms: C_22  and  C_24
REMARK                            x       y       z     vdW  Elec       q    Type
REMARK                         _______ _______ _______ _____ _____    ______ ____
ROOT
ATOM      1  N   UNL     1       1.233   7.717  20.425  0.00  0.00    +0.000 N 
ATOM      2  N   UNL     1       1.488   8.824  19.738  0.00  0.00    +0.000 NA
ATOM      3  N   UNL     1       1.921   8.477  18.581  0.00  0.00    +0.000 NA
ATOM      4  C   UNL     1       2.537   7.297  18.742  0.00  0.00    +0.000 A 
ATOM      5  C   UNL     1       3.506   6.988  17.686  0.00  0.00    +0.000 A 
ATOM      6  C   UNL     1       4.342   5.926  17.501  0.00  0.00    +0.000 A 
ATOM      7  C   UNL     1       4.211   5.051  18.537  0.00  0.00    +0.000 A 
ATOM      8  C   UNL     1       3.147   5.359  19.638  0.00  0.00    +0.000 A 
ATOM      9  C   UNL     1       2.162   6.542  20.058  0.00  0.00    +0.000 A 
ENDROOT
BRANCH   6  10
ATOM     10  S   UNL     1       5.461   5.966  16.080  0.00  0.00    +0.000 S 
ATOM     11  O   UNL     1       5.542   4.606  15.582  0.00  0.00    +0.000 OA
ATOM     12  O   UNL     1       5.052   7.051  15.216  0.00  0.00    +0.000 OA
BRANCH  10  13
ATOM     13  N   UNL     1       7.103   6.341  16.554  0.00  0.00    +0.000 NA
ATOM     14  H   UNL     1       7.494   6.940  15.801  0.00  0.00    +0.000 HD
BRANCH  13  15
ATOM     15  C   UNL     1       7.265   7.038  17.883  0.00  0.00    +0.000 C 
ATOM     16  C   UNL     1       8.004   6.182  18.901  0.00  0.00    +0.000 C 
ATOM     17  C   UNL     1       8.026   8.361  17.723  0.00  0.00    +0.000 C 
ENDBRANCH  13  15
ENDBRANCH  10  13
ENDBRANCH   6  10
BRANCH   1  18
ATOM     18  C   UNL     1       0.302   8.158  21.647  0.00  0.00    +0.000 C 
BRANCH  18  19
ATOM     19  C   UNL     1       0.602   9.513  22.757  0.00  0.00    +0.000 C 
BRANCH  19  22
ATOM     20  C   UNL     1      -1.029  11.634  22.196  0.00  0.00    +0.000 C 
ATOM     21  O   UNL     1      -0.508  11.851  21.105  0.00  0.00    +0.000 OA
ATOM     22  N   UNL     1      -0.553  10.594  23.034  0.00  0.00    +0.000 N 
ATOM     23  H   UNL     1      -0.912  10.609  23.988  0.00  0.00    +0.000 HD
BRANCH  20  27
ATOM     24  C   UNL     1      -4.394  14.333  23.460  0.00  0.00    +0.000 A 
ATOM     25  C   UNL     1      -4.289  13.033  23.971  0.00  0.00    +0.000 A 
ATOM     26  C   UNL     1      -3.195  12.182  23.590  0.00  0.00    +0.000 A 
ATOM     27  C   UNL     1      -2.194  12.584  22.657  0.00  0.00    +0.000 A 
ATOM     28  C   UNL     1      -2.312  13.898  22.201  0.00  0.00    +0.000 A 
ATOM     29  C   UNL     1      -3.372  14.751  22.603  0.00  0.00    +0.000 A 
BRANCH  24  31
ATOM     30  C   UNL     1      -6.891  14.633  23.823  0.00  0.00    +0.000 C 
ATOM     31  C   UNL     1      -5.514  15.295  23.835  0.00  0.00    +0.000 C 
ENDBRANCH  24  31
ENDBRANCH  20  27
ENDBRANCH  19  22
ENDBRANCH  18  19
ENDBRANCH   1  18
TORSDOF 8
ENDMDL
MODEL 4
REMARK VINA RESULT:      -7.7      4.338     11.205
REMARK  Name = 
REMARK  11 active torsions:
REMARK  status: ('A' for Active; 'I' for Inactive)
REMARK    1  A    between atoms: C_1  and  C_2
REMARK    2  A    between atoms: C_2  and  C_3
REMARK    3  A    between atoms: C_6  and  C_7
REMARK    4  A    between atoms: N_9  and  C_10
REMARK    5  A    between atoms: C_10  and  C_11
REMARK    6  A    between atoms: C_11  and  N_12
REMARK    7  A    between atoms: C_17  and  S_18
REMARK    8  A    between atoms: S_18  and  N_21
REMARK    9  A    between atoms: N_21  and  C_22
REMARK   10  A    between atoms: C_22  and  C_23
REMARK   11  A    between atoms: C_22  and  C_24
REMARK                            x       y       z     vdW  Elec       q    Type
REMARK                         _______ _______ _______ _____ _____    ______ ____
ROOT
ATOM      1  N   UNL     1       1.303   8.668  19.327  0.00  0.00    +0.000 N 
ATOM      2  N   UNL     1       1.749   9.534  18.425  0.00  0.00    +0.000 NA
ATOM      3  N   UNL     1       2.308   8.867  17.482  0.00  0.00    +0.000 NA
ATOM      4  C   UNL     1       2.788   7.747  18.040  0.00  0.00    +0.000 A 
ATOM      5  C   UNL     1       3.864   7.118  17.268  0.00  0.00    +0.000 A 
ATOM      6  C   UNL     1       4.621   6.008  17.500  0.00  0.00    +0.000 A 
ATOM      7  C   UNL     1       4.270   5.452  18.693  0.00  0.00    +0.000 A 
ATOM      8  C   UNL     1       3.094   6.097  19.494  0.00  0.00    +0.000 A 
ATOM      9  C   UNL     1       2.168   7.395  19.430  0.00  0.00    +0.000 A 
ENDROOT
BRANCH   6  10
ATOM     10  S   UNL     1       5.929   5.609  16.313  0.00  0.00    +0.000 S 
ATOM     11  O   UNL     1       6.370   4.263  16.626  0.00  0.00    +0.000 OA
ATOM     12  O   UNL     1       5.453   5.948  14.991  0.00  0.00    +0.000 OA
BRANCH  10  13
ATOM     13  N   UNL     1       7.356   6.590  16.562  0.00  0.00    +0.000 NA
ATOM     14  H   UNL     1       7.354   7.302  15.806  0.00  0.00    +0.000 HD
BRANCH  13  15
ATOM     15  C   UNL     1       7.458   7.282  17.900  0.00  0.00    +0.000 C 
ATOM     16  C   UNL     1       8.123   6.409  18.954  0.00  0.00    +0.000 C 
ATOM     17  C   UNL     1       8.253   8.590  17.786  0.00  0.00    +0.000 C 
ENDBRANCH  13  15
ENDBRANCH  10  13
ENDBRANCH   6  10
BRANCH   1  18
ATOM     18  C   UNL     1       0.253   9.466  20.229  0.00  0.00    +0.000 C 
BRANCH  18  19
ATOM     19  C   UNL     1       0.421   9.831  21.959  0.00  0.00    +0.000 C 
BRANCH  19  22
ATOM     20  C   UNL     1      -0.550  12.374  22.208  0.00  0.00    +0.000 C 
ATOM     21  O   UNL     1       0.102  12.803  21.260  0.00  0.00    +0.000 OA
ATOM     22  N   UNL     1      -0.434  11.021  22.616  0.00  0.00    +0.000 N 
ATOM     23  H   UNL     1      -0.858  10.803  23.517  0.00  0.00    +0.000 HD
BRANCH  20  27
ATOM     24  C   UNL     1      -3.187  15.292  24.386  0.00  0.00    +0.000 A 
ATOM     25  C   UNL     1      -3.622  13.984  24.133  0.00  0.00    +0.000 A 
ATOM     26  C   UNL     1      -2.766  13.044  23.465  0.00  0.00    +0.000 A 
ATOM     27  C   UNL     1      -1.465  13.385  22.991  0.00  0.00    +0.000 A 
ATOM     28  C   UNL     1      -1.053  14.684  23.295  0.00  0.00    +0.000 A 
ATOM     29  C   UNL     1      -1.884  15.604  23.986  0.00  0.00    +0.000 A 
BRANCH  24  31
ATOM     30  C   UNL     1      -5.287  16.719  24.326  0.00  0.00    +0.000 C 
ATOM     31  C   UNL     1      -4.031  16.335  25.106  0.00  0.00    +0.000 C 
ENDBRANCH  24  31
ENDBRANCH  20  27
ENDBRANCH  19  22
ENDBRANCH  18  19
ENDBRANCH   1  18
TORSDOF 8
ENDMDL
MODEL 5
REMARK VINA RESULT:      -7.6      4.073     11.241
REMARK  Name = 
REMARK  11 active torsions:
REMARK  status: ('A' for Active; 'I' for Inactive)
REMARK    1  A    between atoms: C_1  and  C_2
REMARK    2  A    between atoms: C_2  and  C_3
REMARK    3  A    between atoms: C_6  and  C_7
REMARK    4  A    between atoms: N_9  and  C_10
REMARK    5  A    between atoms: C_10  and  C_11
REMARK    6  A    between atoms: C_11  and  N_12
REMARK    7  A    between atoms: C_17  and  S_18
REMARK    8  A    between atoms: S_18  and  N_21
REMARK    9  A    between atoms: N_21  and  C_22
REMARK   10  A    between atoms: C_22  and  C_23
REMARK   11  A    between atoms: C_22  and  C_24
REMARK                            x       y       z     vdW  Elec       q    Type
REMARK                         _______ _______ _______ _____ _____    ______ ____
ROOT
ATOM      1  N   UNL     1       1.458   9.468  18.914  0.00  0.00    +0.000 N 
ATOM      2  N   UNL     1       2.225   9.600  17.838  0.00  0.00    +0.000 NA
ATOM      3  N   UNL     1       2.436   8.428  17.360  0.00  0.00    +0.000 NA
ATOM      4  C   UNL     1       2.395   7.580  18.396  0.00  0.00    +0.000 A 
ATOM      5  C   UNL     1       3.092   6.314  18.151  0.00  0.00    +0.000 A 
ATOM      6  C   UNL     1       3.302   5.222  18.941  0.00  0.00    +0.000 A 
ATOM      7  C   UNL     1       2.756   5.433  20.171  0.00  0.00    +0.000 A 
ATOM      8  C   UNL     1       1.976   6.763  20.418  0.00  0.00    +0.000 A 
ATOM      9  C   UNL     1       1.695   8.147  19.673  0.00  0.00    +0.000 A 
ENDROOT
BRANCH   6  10
ATOM     10  S   UNL     1       4.302   3.870  18.273  0.00  0.00    +0.000 S 
ATOM     11  O   UNL     1       5.659   4.097  18.732  0.00  0.00    +0.000 OA
ATOM     12  O   UNL     1       3.620   2.627  18.552  0.00  0.00    +0.000 OA
BRANCH  10  13
ATOM     13  N   UNL     1       4.427   3.952  16.529  0.00  0.00    +0.000 NA
ATOM     14  H   UNL     1       3.595   4.481  16.203  0.00  0.00    +0.000 HD
BRANCH  13  15
ATOM     15  C   UNL     1       5.678   4.600  15.986  0.00  0.00    +0.000 C 
ATOM     16  C   UNL     1       6.238   3.858  14.781  0.00  0.00    +0.000 C 
ATOM     17  C   UNL     1       5.412   6.054  15.576  0.00  0.00    +0.000 C 
ENDBRANCH  13  15
ENDBRANCH  10  13
ENDBRANCH   6  10
BRANCH   1  18
ATOM     18  C   UNL     1       0.860  10.919  19.213  0.00  0.00    +0.000 C 
BRANCH  18  19
ATOM     19  C   UNL     1       0.852  11.746  20.785  0.00  0.00    +0.000 C 
BRANCH  19  22
ATOM     20  C   UNL     1      -1.230  12.106  22.521  0.00  0.00    +0.000 C 
ATOM     21  O   UNL     1      -0.878  11.190  23.260  0.00  0.00    +0.000 OA
ATOM     22  N   UNL     1      -0.504  12.405  21.339  0.00  0.00    +0.000 N 
ATOM     23  H   UNL     1      -0.970  13.043  20.697  0.00  0.00    +0.000 HD
BRANCH  20  27
ATOM     24  C   UNL     1      -4.994  14.299  23.627  0.00  0.00    +0.000 A 
ATOM     25  C   UNL     1      -3.769  14.641  24.212  0.00  0.00    +0.000 A 
ATOM     26  C   UNL     1      -2.561  13.960  23.834  0.00  0.00    +0.000 A 
ATOM     27  C   UNL     1      -2.541  12.890  22.892  0.00  0.00    +0.000 A 
ATOM     28  C   UNL     1      -3.774  12.605  22.303  0.00  0.00    +0.000 A 
ATOM     29  C   UNL     1      -4.962  13.299  22.649  0.00  0.00    +0.000 A 
BRANCH  24  31
ATOM     30  C   UNL     1      -6.299  16.478  23.616  0.00  0.00    +0.000 C 
ATOM     31  C   UNL     1      -6.309  14.990  23.963  0.00  0.00    +0.000 C 
ENDBRANCH  24  31
ENDBRANCH  20  27
ENDBRANCH  19  22
ENDBRANCH  18  19
ENDBRANCH   1  18
TORSDOF 8
ENDMDL
MODEL 6
REMARK VINA RESULT:      -7.6      4.395      5.388
REMARK  Name = 
REMARK  11 active torsions:
REMARK  status: ('A' for Active; 'I' for Inactive)
REMARK    1  A    between atoms: C_1  and  C_2
REMARK    2  A    between atoms: C_2  and  C_3
REMARK    3  A    between atoms: C_6  and  C_7
REMARK    4  A    between atoms: N_9  and  C_10
REMARK    5  A    between atoms: C_10  and  C_11
REMARK    6  A    between atoms: C_11  and  N_12
REMARK    7  A    between atoms: C_17  and  S_18
REMARK    8  A    between atoms: S_18  and  N_21
REMARK    9  A    between atoms: N_21  and  C_22
REMARK   10  A    between atoms: C_22  and  C_23
REMARK   11  A    between atoms: C_22  and  C_24
REMARK                            x       y       z     vdW  Elec       q    Type
REMARK                         _______ _______ _______ _____ _____    ______ ____
ROOT
ATOM      1  N   UNL     1       3.760   5.853  18.003  0.00  0.00    +0.000 N 
ATOM      2  N   UNL     1       4.066   5.399  19.212  0.00  0.00    +0.000 NA
ATOM      3  N   UNL     1       3.115   5.727  20.008  0.00  0.00    +0.000 NA
ATOM      4  C   UNL     1       2.589   6.861  19.527  0.00  0.00    +0.000 A 
ATOM      5  C   UNL     1       1.859   7.645  20.528  0.00  0.00    +0.000 A 
ATOM      6  C   UNL     1       1.216   8.845  20.453  0.00  0.00    +0.000 A 
ATOM      7  C   UNL     1       1.339   9.355  19.195  0.00  0.00    +0.000 A 
ATOM      8  C   UNL     1       2.079   8.500  18.118  0.00  0.00    +0.000 A 
ATOM      9  C   UNL     1       2.934   7.155  18.032  0.00  0.00    +0.000 A 
ENDROOT
BRANCH   6  10
ATOM     10  S   UNL     1       0.494   9.518  21.970  0.00  0.00    +0.000 S 
ATOM     11  O   UNL     1      -0.813   8.905  22.110  0.00  0.00    +0.000 OA
ATOM     12  O   UNL     1       1.481   9.414  23.021  0.00  0.00    +0.000 OA
BRANCH  10  13
ATOM     13  N   UNL     1       0.146  11.227  21.824  0.00  0.00    +0.000 NA
ATOM     14  H   UNL     1       0.959  11.648  21.334  0.00  0.00    +0.000 HD
BRANCH  13  15
ATOM     15  C   UNL     1      -1.122  11.583  21.087  0.00  0.00    +0.000 C 
ATOM     16  C   UNL     1      -2.074  12.411  21.938  0.00  0.00    +0.000 C 
ATOM     17  C   UNL     1      -0.814  12.368  19.805  0.00  0.00    +0.000 C 
ENDBRANCH  13  15
ENDBRANCH  10  13
ENDBRANCH   6  10
BRANCH   1  18
ATOM     18  C   UNL     1       4.704   5.068  16.981  0.00  0.00    +0.000 C 
BRANCH  18  19
ATOM     19  C   UNL     1       6.183   5.698  16.224  0.00  0.00    +0.000 C 
BRANCH  19  22
ATOM     20  C   UNL     1       7.643   7.421  17.764  0.00  0.00    +0.000 C 
ATOM     21  O   UNL     1       7.998   6.547  18.550  0.00  0.00    +0.000 OA
ATOM     22  N   UNL     1       6.777   7.117  16.682  0.00  0.00    +0.000 N 
ATOM     23  H   UNL     1       6.386   7.926  16.202  0.00  0.00    +0.000 HD
BRANCH  20  27
ATOM     24  C   UNL     1       8.970  11.640  18.569  0.00  0.00    +0.000 A 
ATOM     25  C   UNL     1       9.501  10.570  19.301  0.00  0.00    +0.000 A 
ATOM     26  C   UNL     1       9.100   9.220  19.021  0.00  0.00    +0.000 A 
ATOM     27  C   UNL     1       8.126   8.893  18.031  0.00  0.00    +0.000 A 
ATOM     28  C   UNL     1       7.649   9.982  17.298  0.00  0.00    +0.000 A 
ATOM     29  C   UNL     1       8.070  11.313  17.550  0.00  0.00    +0.000 A 
BRANCH  24  31
ATOM     30  C   UNL     1      10.634  13.486  18.043  0.00  0.00    +0.000 C 
ATOM     31  C   UNL     1       9.364  13.094  18.797  0.00  0.00    +0.000 C 
ENDBRANCH  24  31
ENDBRANCH  20  27
ENDBRANCH  19  22
ENDBRANCH  18  19
ENDBRANCH   1  18
TORSDOF 8
ENDMDL
MODEL 7
REMARK VINA RESULT:      -7.6      6.353      9.991
REMARK  Name = 
REMARK  11 active torsions:
REMARK  status: ('A' for Active; 'I' for Inactive)
REMARK    1  A    between atoms: C_1  and  C_2
REMARK    2  A    between atoms: C_2  and  C_3
REMARK    3  A    between atoms: C_6  and  C_7
REMARK    4  A    between atoms: N_9  and  C_10
REMARK    5  A    between atoms: C_10  and  C_11
REMARK    6  A    between atoms: C_11  and  N_12
REMARK    7  A    between atoms: C_17  and  S_18
REMARK    8  A    between atoms: S_18  and  N_21
REMARK    9  A    between atoms: N_21  and  C_22
REMARK   10  A    between atoms: C_22  and  C_23
REMARK   11  A    between atoms: C_22  and  C_24
REMARK                            x       y       z     vdW  Elec       q    Type
REMARK                         _______ _______ _______ _____ _____    ______ ____
ROOT
ATOM      1  N   UNL     1       7.277   7.647  17.770  0.00  0.00    +0.000 N 
ATOM      2  N   UNL     1       7.994   6.973  18.661  0.00  0.00    +0.000 NA
ATOM      3  N   UNL     1       7.665   5.736  18.577  0.00  0.00    +0.000 NA
ATOM      4  C   UNL     1       6.389   5.707  18.170  0.00  0.00    +0.000 A 
ATOM      5  C   UNL     1       5.694   4.457  18.492  0.00  0.00    +0.000 A 
ATOM      6  C   UNL     1       4.410   4.048  18.282  0.00  0.00    +0.000 A 
ATOM      7  C   UNL     1       3.702   5.046  17.682  0.00  0.00    +0.000 A 
ATOM      8  C   UNL     1       4.453   6.361  17.300  0.00  0.00    +0.000 A 
ATOM      9  C   UNL     1       5.883   7.036  17.522  0.00  0.00    +0.000 A 
ENDROOT
BRANCH   6  10
ATOM     10  S   UNL     1       3.921   2.426  18.916  0.00  0.00    +0.000 S 
ATOM     11  O   UNL     1       3.805   1.552  17.764  0.00  0.00    +0.000 OA
ATOM     12  O   UNL     1       4.795   2.092  20.018  0.00  0.00    +0.000 OA
BRANCH  10  13
ATOM     13  N   UNL     1       2.307   2.449  19.592  0.00  0.00    +0.000 NA
ATOM     14  H   UNL     1       2.079   1.466  19.836  0.00  0.00    +0.000 HD
BRANCH  13  15
ATOM     15  C   UNL     1       2.111   3.324  20.807  0.00  0.00    +0.000 C 
ATOM     16  C   UNL     1       1.242   4.539  20.513  0.00  0.00    +0.000 C 
ATOM     17  C   UNL     1       1.468   2.537  21.956  0.00  0.00    +0.000 C 
ENDBRANCH  13  15
ENDBRANCH  10  13
ENDBRANCH   6  10
BRANCH   1  18
ATOM     18  C   UNL     1       8.005   9.057  17.589  0.00  0.00    +0.000 C 
BRANCH  18  19
ATOM     19  C   UNL     1       9.326   9.691  18.593  0.00  0.00    +0.000 C 
BRANCH  19  22
ATOM     20  C   UNL     1       9.537  11.773  20.353  0.00  0.00    +0.000 C 
ATOM     21  O   UNL     1      10.437  12.322  19.721  0.00  0.00    +0.000 OA
ATOM     22  N   UNL     1       8.993  10.538  19.916  0.00  0.00    +0.000 N 
ATOM     23  H   UNL     1       8.396  10.066  20.593  0.00  0.00    +0.000 HD
BRANCH  20  27
ATOM     24  C   UNL     1       8.218  13.682  24.202  0.00  0.00    +0.000 A 
ATOM     25  C   UNL     1       8.884  14.431  23.223  0.00  0.00    +0.000 A 
ATOM     26  C   UNL     1       9.277  13.827  21.980  0.00  0.00    +0.000 A 
ATOM     27  C   UNL     1       9.056  12.448  21.688  0.00  0.00    +0.000 A 
ATOM     28  C   UNL     1       8.357  11.746  22.671  0.00  0.00    +0.000 A 
ATOM     29  C   UNL     1       7.937  12.349  23.885  0.00  0.00    +0.000 A 
BRANCH  24  31
ATOM     30  C   UNL     1       6.355  13.788  25.925  0.00  0.00    +0.000 C 
ATOM     31  C   UNL     1       7.754  14.260  25.533  0.00  0.00    +0.000 C 
ENDBRANCH  24  31
ENDBRANCH  20  27
ENDBRANCH  19  22
ENDBRANCH  18  19
ENDBRANCH   1  18
TORSDOF 8
ENDMDL
MODEL 8
REMARK VINA RESULT:      -7.6      4.519      5.833
REMARK  Name = 
REMARK  11 active torsions:
REMARK  status: ('A' for Active; 'I' for Inactive)
REMARK    1  A    between atoms: C_1  and  C_2
REMARK    2  A    between atoms: C_2  and  C_3
REMARK    3  A    between atoms: C_6  and  C_7
REMARK    4  A    between atoms: N_9  and  C_10
REMARK    5  A    between atoms: C_10  and  C_11
REMARK    6  A    between atoms: C_11  and  N_12
REMARK    7  A    between atoms: C_17  and  S_18
REMARK    8  A    between atoms: S_18  and  N_21
REMARK    9  A    between atoms: N_21  and  C_22
REMARK   10  A    between atoms: C_22  and  C_23
REMARK   11  A    between atoms: C_22  and  C_24
REMARK                            x       y       z     vdW  Elec       q    Type
REMARK                         _______ _______ _______ _____ _____    ______ ____
ROOT
ATOM      1  N   UNL     1       4.248   5.999  17.975  0.00  0.00    +0.000 N 
ATOM      2  N   UNL     1       4.262   5.611  19.245  0.00  0.00    +0.000 NA
ATOM      3  N   UNL     1       3.144   5.952  19.773  0.00  0.00    +0.000 NA
ATOM      4  C   UNL     1       2.732   7.047  19.121  0.00  0.00    +0.000 A 
ATOM      5  C   UNL     1       1.772   7.858  19.877  0.00  0.00    +0.000 A 
ATOM      6  C   UNL     1       1.150   9.037  19.588  0.00  0.00    +0.000 A 
ATOM      7  C   UNL     1       1.563   9.489  18.371  0.00  0.00    +0.000 A 
ATOM      8  C   UNL     1       2.551   8.604  17.547  0.00  0.00    +0.000 A 
ATOM      9  C   UNL     1       3.422   7.280  17.738  0.00  0.00    +0.000 A 
ENDROOT
BRANCH   6  10
ATOM     10  S   UNL     1       0.076   9.762  20.851  0.00  0.00    +0.000 S 
ATOM     11  O   UNL     1      -1.044  10.357  20.147  0.00  0.00    +0.000 OA
ATOM     12  O   UNL     1      -0.137   8.771  21.882  0.00  0.00    +0.000 OA
BRANCH  10  13
ATOM     13  N   UNL     1       0.837  11.116  21.655  0.00  0.00    +0.000 NA
ATOM     14  H   UNL     1       1.862  10.962  21.577  0.00  0.00    +0.000 HD
BRANCH  13  15
ATOM     15  C   UNL     1       0.495  12.483  21.116  0.00  0.00    +0.000 C 
ATOM     16  C   UNL     1      -0.331  13.304  22.097  0.00  0.00    +0.000 C 
ATOM     17  C   UNL     1       1.764  13.276  20.774  0.00  0.00    +0.000 C 
ENDBRANCH  13  15
ENDBRANCH  10  13
ENDBRANCH   6  10
BRANCH   1  18
ATOM     18  C   UNL     1       5.421   5.191  17.251  0.00  0.00    +0.000 C 
BRANCH  18  19
ATOM     19  C   UNL     1       6.867   5.894  16.496  0.00  0.00    +0.000 C 
BRANCH  19  22
ATOM     20  C   UNL     1       8.061   7.784  18.070  0.00  0.00    +0.000 C 
ATOM     21  O   UNL     1       8.332   6.986  18.963  0.00  0.00    +0.000 OA
ATOM     22  N   UNL     1       7.356   7.366  16.913  0.00  0.00    +0.000 N 
ATOM     23  H   UNL     1       7.010   8.121  16.322  0.00  0.00    +0.000 HD
BRANCH  20  27
ATOM     24  C   UNL     1       9.268  12.077  18.634  0.00  0.00    +0.000 A 
ATOM     25  C   UNL     1       8.378  11.711  17.617  0.00  0.00    +0.000 A 
ATOM     26  C   UNL     1       7.968  10.343  17.457  0.00  0.00    +0.000 A 
ATOM     27  C   UNL     1       8.463   9.289  18.280  0.00  0.00    +0.000 A 
ATOM     28  C   UNL     1       9.318   9.698  19.305  0.00  0.00    +0.000 A 
ATOM     29  C   UNL     1       9.696  11.054  19.486  0.00  0.00    +0.000 A 
BRANCH  24  31
ATOM     30  C   UNL     1       8.983  14.183  20.025  0.00  0.00    +0.000 C 
ATOM     31  C   UNL     1       9.729  13.509  18.875  0.00  0.00    +0.000 C 
ENDBRANCH  24  31
ENDBRANCH  20  27
ENDBRANCH  19  22
ENDBRANCH  18  19
ENDBRANCH   1  18
TORSDOF 8
ENDMDL
MODEL 9
REMARK VINA RESULT:      -7.6      7.204      9.750
REMARK  Name = 
REMARK  11 active torsions:
REMARK  status: ('A' for Active; 'I' for Inactive)
REMARK    1  A    between atoms: C_1  and  C_2
REMARK    2  A    between atoms: C_2  and  C_3
REMARK    3  A    between atoms: C_6  and  C_7
REMARK    4  A    between atoms: N_9  and  C_10
REMARK    5  A    between atoms: C_10  and  C_11
REMARK    6  A    between atoms: C_11  and  N_12
REMARK    7  A    between atoms: C_17  and  S_18
REMARK    8  A    between atoms: S_18  and  N_21
REMARK    9  A    between atoms: N_21  and  C_22
REMARK   10  A    between atoms: C_22  and  C_23
REMARK   11  A    between atoms: C_22  and  C_24
REMARK                            x       y       z     vdW  Elec       q    Type
REMARK                         _______ _______ _______ _____ _____    ______ ____
ROOT
ATOM      1  N   UNL     1       7.258   7.531  17.578  0.00  0.00    +0.000 N 
ATOM      2  N   UNL     1       7.932   6.575  18.208  0.00  0.00    +0.000 NA
ATOM      3  N   UNL     1       7.361   5.456  17.950  0.00  0.00    +0.000 NA
ATOM      4  C   UNL     1       6.064   5.726  17.750  0.00  0.00    +0.000 A 
ATOM      5  C   UNL     1       5.183   4.570  17.941  0.00  0.00    +0.000 A 
ATOM      6  C   UNL     1       3.828   4.435  17.862  0.00  0.00    +0.000 A 
ATOM      7  C   UNL     1       3.262   5.640  17.573  0.00  0.00    +0.000 A 
ATOM      8  C   UNL     1       4.203   6.862  17.326  0.00  0.00    +0.000 A 
ATOM      9  C   UNL     1       5.752   7.227  17.443  0.00  0.00    +0.000 A 
ENDROOT
BRANCH   6  10
ATOM     10  S   UNL     1       3.112   2.820  18.256  0.00  0.00    +0.000 S 
ATOM     11  O   UNL     1       2.461   2.353  17.047  0.00  0.00    +0.000 OA
ATOM     12  O   UNL     1       4.128   2.026  18.908  0.00  0.00    +0.000 OA
BRANCH  10  13
ATOM     13  N   UNL     1       1.807   2.951  19.414  0.00  0.00    +0.000 NA
ATOM     14  H   UNL     1       1.383   2.006  19.482  0.00  0.00    +0.000 HD
BRANCH  13  15
ATOM     15  C   UNL     1       2.193   3.427  20.794  0.00  0.00    +0.000 C 
ATOM     16  C   UNL     1       1.934   4.914  20.989  0.00  0.00    +0.000 C 
ATOM     17  C   UNL     1       1.425   2.657  21.878  0.00  0.00    +0.000 C 
ENDBRANCH  13  15
ENDBRANCH  10  13
ENDBRANCH   6  10
BRANCH   1  18
ATOM     18  C   UNL     1       8.220   8.806  17.548  0.00  0.00    +0.000 C 
BRANCH  18  19
ATOM     19  C   UNL     1       8.797   9.718  18.959  0.00  0.00    +0.000 C 
BRANCH  19  22
ATOM     20  C   UNL     1      10.420  11.822  18.314  0.00  0.00    +0.000 C 
ATOM     21  O   UNL     1      11.361  11.102  17.993  0.00  0.00    +0.000 OA
ATOM     22  N   UNL     1       9.211  11.262  18.803  0.00  0.00    +0.000 N 
ATOM     23  H   UNL     1       8.564  11.929  19.220  0.00  0.00    +0.000 HD
BRANCH  20  27
ATOM     24  C   UNL     1      11.054  16.266  18.092  0.00  0.00    +0.000 A 
ATOM     25  C   UNL     1      11.256  15.457  16.967  0.00  0.00    +0.000 A 
ATOM     26  C   UNL     1      11.023  14.041  17.031  0.00  0.00    +0.000 A 
ATOM     27  C   UNL     1      10.619  13.379  18.227  0.00  0.00    +0.000 A 
ATOM     28  C   UNL     1      10.391  14.223  19.315  0.00  0.00    +0.000 A 
ATOM     29  C   UNL     1      10.587  15.627  19.244  0.00  0.00    +0.000 A 
BRANCH  24  31
ATOM     30  C   UNL     1      10.636  18.457  19.308  0.00  0.00    +0.000 C 
ATOM     31  C   UNL     1      11.261  17.775  18.091  0.00  0.00    +0.000 C 
ENDBRANCH  24  31
ENDBRANCH  20  27
ENDBRANCH  19  22
ENDBRANCH  18  19
ENDBRANCH   1  18
TORSDOF 8
ENDMDL
