MODEL 1
REMARK VINA RESULT:      -6.9      0.000      0.000
REMARK  Name = 
REMARK  3 active torsions:
REMARK  status: ('A' for Active; 'I' for Inactive)
REMARK    1  A    between atoms: C_1  and  C_2
REMARK    2  A    between atoms: C_8  and  O_9
REMARK    3  A    between atoms: C_10  and  C_11
REMARK                            x       y       z     vdW  Elec       q    Type
REMARK                         _______ _______ _______ _____ _____    ______ ____
ROOT
ATOM      1  C   UNL     1       3.843   2.958  17.828  0.00  0.00    +0.000 C 
ATOM      2  C   UNL     1       4.943   3.982  17.832  0.00  0.00    +0.000 A 
ATOM      3  N   UNL     1       5.201   4.551  19.034  0.00  0.00    +0.000 NA
ATOM      4  C   UNL     1       6.205   5.443  19.099  0.00  0.00    +0.000 A 
ATOM      5  C   UNL     1       6.988   5.788  18.016  0.00  0.00    +0.000 A 
ATOM      6  C   UNL     1       6.728   5.223  16.785  0.00  0.00    +0.000 A 
ATOM      7  N   UNL     1       7.502   5.581  15.744  0.00  0.00    +0.000 NA
ATOM      8  C   UNL     1       7.214   5.053  14.539  0.00  0.00    +0.000 A 
ATOM      9  C   UNL     1       6.182   4.169  14.280  0.00  0.00    +0.000 A 
ATOM     10  C   UNL     1       5.407   3.782  15.377  0.00  0.00    +0.000 A 
ATOM     11  C   UNL     1       5.667   4.304  16.665  0.00  0.00    +0.000 A 
ENDROOT
BRANCH   9  12
ATOM     12  C   UNL     1       5.839   3.636  12.940  0.00  0.00    +0.000 C 
ATOM     13  N   UNL     1       6.849   3.167  12.152  0.00  0.00    +0.000 N 
ATOM     14  O   UNL     1       4.680   3.627  12.539  0.00  0.00    +0.000 OA
ATOM     15  H   UNL     1       7.815   3.171  12.460  0.00  0.00    +0.000 HD
ATOM     16  H   UNL     1       6.627   2.824  11.228  0.00  0.00    +0.000 HD
ENDBRANCH   9  12
BRANCH   8  17
ATOM     17  O   UNL     1       8.071   5.495  13.582  0.00  0.00    +0.000 OA
ATOM     18  H   UNL     1       8.801   4.858  13.711  0.00  0.00    +0.000 HD
ENDBRANCH   8  17
TORSDOF 2
ENDMDL
MODEL 2
REMARK VINA RESULT:      -6.8      3.191      5.046
REMARK  Name = 
REMARK  3 active torsions:
REMARK  status: ('A' for Active; 'I' for Inactive)
REMARK    1  A    between atoms: C_1  and  C_2
REMARK    2  A    between atoms: C_8  and  O_9
REMARK    3  A    between atoms: C_10  and  C_11
REMARK                            x       y       z     vdW  Elec       q    Type
REMARK                         _______ _______ _______ _____ _____    ______ ____
ROOT
ATOM      1  C   UNL     1       5.981   3.832  15.275  0.00  0.00    +0.000 C 
ATOM      2  C   UNL     1       6.242   4.374  16.653  0.00  0.00    +0.000 A 
ATOM      3  N   UNL     1       7.527   4.719  16.906  0.00  0.00    +0.000 NA
ATOM      4  C   UNL     1       7.804   5.249  18.111  0.00  0.00    +0.000 A 
ATOM      5  C   UNL     1       6.850   5.473  19.082  0.00  0.00    +0.000 A 
ATOM      6  C   UNL     1       5.539   5.117  18.838  0.00  0.00    +0.000 A 
ATOM      7  N   UNL     1       4.629   5.340  19.804  0.00  0.00    +0.000 NA
ATOM      8  C   UNL     1       3.360   4.952  19.570  0.00  0.00    +0.000 A 
ATOM      9  C   UNL     1       2.913   4.337  18.415  0.00  0.00    +0.000 A 
ATOM     10  C   UNL     1       3.863   4.142  17.409  0.00  0.00    +0.000 A 
ATOM     11  C   UNL     1       5.209   4.532  17.600  0.00  0.00    +0.000 A 
ENDROOT
BRANCH   9  12
ATOM     12  C   UNL     1       1.526   3.865  18.190  0.00  0.00    +0.000 C 
ATOM     13  N   UNL     1       0.953   3.065  19.134  0.00  0.00    +0.000 N 
ATOM     14  O   UNL     1       0.909   4.173  17.175  0.00  0.00    +0.000 OA
ATOM     15  H   UNL     1       1.446   2.793  19.978  0.00  0.00    +0.000 HD
ATOM     16  H   UNL     1       0.016   2.719  18.977  0.00  0.00    +0.000 HD
ENDBRANCH   9  12
BRANCH   8  17
ATOM     17  O   UNL     1       2.549   5.238  20.622  0.00  0.00    +0.000 OA
ATOM     18  H   UNL     1       1.788   5.618  20.141  0.00  0.00    +0.000 HD
ENDBRANCH   8  17
TORSDOF 2
ENDMDL
MODEL 3
REMARK VINA RESULT:      -6.7      4.192      6.021
REMARK  Name = 
REMARK  3 active torsions:
REMARK  status: ('A' for Active; 'I' for Inactive)
REMARK    1  A    between atoms: C_1  and  C_2
REMARK    2  A    between atoms: C_8  and  O_9
REMARK    3  A    between atoms: C_10  and  C_11
REMARK                            x       y       z     vdW  Elec       q    Type
REMARK                         _______ _______ _______ _____ _____    ______ ____
ROOT
ATOM      1  C   UNL     1       2.328   7.546  18.266  0.00  0.00    +0.000 C 
ATOM      2  C   UNL     1       3.525   6.698  17.938  0.00  0.00    +0.000 A 
ATOM      3  N   UNL     1       4.362   7.212  17.005  0.00  0.00    +0.000 NA
ATOM      4  C   UNL     1       5.470   6.511  16.710  0.00  0.00    +0.000 A 
ATOM      5  C   UNL     1       5.802   5.317  17.316  0.00  0.00    +0.000 A 
ATOM      6  C   UNL     1       4.952   4.779  18.261  0.00  0.00    +0.000 A 
ATOM      7  N   UNL     1       5.295   3.611  18.834  0.00  0.00    +0.000 NA
ATOM      8  C   UNL     1       4.438   3.075  19.726  0.00  0.00    +0.000 A 
ATOM      9  C   UNL     1       3.228   3.629  20.102  0.00  0.00    +0.000 A 
ATOM     10  C   UNL     1       2.901   4.858  19.523  0.00  0.00    +0.000 A 
ATOM     11  C   UNL     1       3.764   5.466  18.582  0.00  0.00    +0.000 A 
ENDROOT
BRANCH   9  12
ATOM     12  C   UNL     1       2.268   3.005  21.043  0.00  0.00    +0.000 C 
ATOM     13  N   UNL     1       0.942   3.024  20.724  0.00  0.00    +0.000 N 
ATOM     14  O   UNL     1       2.650   2.493  22.091  0.00  0.00    +0.000 OA
ATOM     15  H   UNL     1       0.603   3.447  19.866  0.00  0.00    +0.000 HD
ATOM     16  H   UNL     1       0.279   2.621  21.371  0.00  0.00    +0.000 HD
ENDBRANCH   9  12
BRANCH   8  17
ATOM     17  O   UNL     1       4.907   1.903  20.226  0.00  0.00    +0.000 OA
ATOM     18  H   UNL     1       4.570   1.970  21.141  0.00  0.00    +0.000 HD
ENDBRANCH   8  17
TORSDOF 2
ENDMDL
MODEL 4
REMARK VINA RESULT:      -6.7      3.542      4.749
REMARK  Name = 
REMARK  3 active torsions:
REMARK  status: ('A' for Active; 'I' for Inactive)
REMARK    1  A    between atoms: C_1  and  C_2
REMARK    2  A    between atoms: C_8  and  O_9
REMARK    3  A    between atoms: C_10  and  C_11
REMARK                            x       y       z     vdW  Elec       q    Type
REMARK                         _______ _______ _______ _____ _____    ______ ____
ROOT
ATOM      1  C   UNL     1       5.132   6.758  15.426  0.00  0.00    +0.000 C 
ATOM      2  C   UNL     1       5.832   6.274  16.665  0.00  0.00    +0.000 A 
ATOM      3  N   UNL     1       7.034   6.848  16.914  0.00  0.00    +0.000 NA
ATOM      4  C   UNL     1       7.680   6.479  18.034  0.00  0.00    +0.000 A 
ATOM      5  C   UNL     1       7.176   5.569  18.940  0.00  0.00    +0.000 A 
ATOM      6  C   UNL     1       5.957   4.970  18.692  0.00  0.00    +0.000 A 
ATOM      7  N   UNL     1       5.490   4.082  19.588  0.00  0.00    +0.000 NA
ATOM      8  C   UNL     1       4.319   3.475  19.315  0.00  0.00    +0.000 A 
ATOM      9  C   UNL     1       3.553   3.688  18.184  0.00  0.00    +0.000 A 
ATOM     10  C   UNL     1       4.035   4.638  17.279  0.00  0.00    +0.000 A 
ATOM     11  C   UNL     1       5.258   5.306  17.516  0.00  0.00    +0.000 A 
ENDROOT
BRANCH   9  12
ATOM     12  C   UNL     1       2.292   2.975  17.868  0.00  0.00    +0.000 C 
ATOM     13  N   UNL     1       2.270   1.616  17.987  0.00  0.00    +0.000 N 
ATOM     14  O   UNL     1       1.295   3.585  17.496  0.00  0.00    +0.000 OA
ATOM     15  H   UNL     1       3.084   1.091  18.286  0.00  0.00    +0.000 HD
ATOM     16  H   UNL     1       1.421   1.121  17.751  0.00  0.00    +0.000 HD
ENDBRANCH   9  12
BRANCH   8  17
ATOM     17  O   UNL     1       3.966   2.608  20.300  0.00  0.00    +0.000 OA
ATOM     18  H   UNL     1       3.027   2.859  20.408  0.00  0.00    +0.000 HD
ENDBRANCH   8  17
TORSDOF 2
ENDMDL
MODEL 5
REMARK VINA RESULT:      -6.7      3.610      5.561
REMARK  Name = 
REMARK  3 active torsions:
REMARK  status: ('A' for Active; 'I' for Inactive)
REMARK    1  A    between atoms: C_1  and  C_2
REMARK    2  A    between atoms: C_8  and  O_9
REMARK    3  A    between atoms: C_10  and  C_11
REMARK                            x       y       z     vdW  Elec       q    Type
REMARK                         _______ _______ _______ _____ _____    ______ ____
ROOT
ATOM      1  C   UNL     1       3.085   7.711  17.838  0.00  0.00    +0.000 C 
ATOM      2  C   UNL     1       3.961   6.578  17.382  0.00  0.00    +0.000 A 
ATOM      3  N   UNL     1       5.092   6.944  16.733  0.00  0.00    +0.000 NA
ATOM      4  C   UNL     1       5.930   5.968  16.343  0.00  0.00    +0.000 A 
ATOM      5  C   UNL     1       5.705   4.628  16.586  0.00  0.00    +0.000 A 
ATOM      6  C   UNL     1       4.552   4.243  17.239  0.00  0.00    +0.000 A 
ATOM      7  N   UNL     1       4.353   2.930  17.458  0.00  0.00    +0.000 NA
ATOM      8  C   UNL     1       3.205   2.563  18.060  0.00  0.00    +0.000 A 
ATOM      9  C   UNL     1       2.207   3.427  18.471  0.00  0.00    +0.000 A 
ATOM     10  C   UNL     1       2.443   4.790  18.266  0.00  0.00    +0.000 A 
ATOM     11  C   UNL     1       3.631   5.231  17.640  0.00  0.00    +0.000 A 
ENDROOT
BRANCH   9  12
ATOM     12  C   UNL     1       0.924   3.009  19.083  0.00  0.00    +0.000 C 
ATOM     13  N   UNL     1       0.557   3.573  20.269  0.00  0.00    +0.000 N 
ATOM     14  O   UNL     1       0.211   2.166  18.546  0.00  0.00    +0.000 OA
ATOM     15  H   UNL     1       1.133   4.266  20.734  0.00  0.00    +0.000 HD
ATOM     16  H   UNL     1      -0.305   3.275  20.705  0.00  0.00    +0.000 HD
ENDBRANCH   9  12
BRANCH   8  17
ATOM     17  O   UNL     1       3.136   1.216  18.222  0.00  0.00    +0.000 OA
ATOM     18  H   UNL     1       2.768   1.180  19.126  0.00  0.00    +0.000 HD
ENDBRANCH   8  17
TORSDOF 2
ENDMDL
MODEL 6
REMARK VINA RESULT:      -6.7      3.215      5.578
REMARK  Name = 
REMARK  3 active torsions:
REMARK  status: ('A' for Active; 'I' for Inactive)
REMARK    1  A    between atoms: C_1  and  C_2
REMARK    2  A    between atoms: C_8  and  O_9
REMARK    3  A    between atoms: C_10  and  C_11
REMARK                            x       y       z     vdW  Elec       q    Type
REMARK                         _______ _______ _______ _____ _____    ______ ____
ROOT
ATOM      1  C   UNL     1       7.443   7.263  17.502  0.00  0.00    +0.000 C 
ATOM      2  C   UNL     1       6.775   6.131  16.773  0.00  0.00    +0.000 A 
ATOM      3  N   UNL     1       7.465   5.633  15.718  0.00  0.00    +0.000 NA
ATOM      4  C   UNL     1       6.929   4.591  15.060  0.00  0.00    +0.000 A 
ATOM      5  C   UNL     1       5.734   3.999  15.413  0.00  0.00    +0.000 A 
ATOM      6  C   UNL     1       5.018   4.503  16.480  0.00  0.00    +0.000 A 
ATOM      7  N   UNL     1       3.852   3.912  16.800  0.00  0.00    +0.000 NA
ATOM      8  C   UNL     1       3.143   4.438  17.818  0.00  0.00    +0.000 A 
ATOM      9  C   UNL     1       3.514   5.543  18.563  0.00  0.00    +0.000 A 
ATOM     10  C   UNL     1       4.742   6.126  18.239  0.00  0.00    +0.000 A 
ATOM     11  C   UNL     1       5.528   5.613  17.181  0.00  0.00    +0.000 A 
ENDROOT
BRANCH   9  12
ATOM     12  C   UNL     1       2.700   6.146  19.645  0.00  0.00    +0.000 C 
ATOM     13  N   UNL     1       2.404   5.383  20.736  0.00  0.00    +0.000 N 
ATOM     14  O   UNL     1       2.289   7.299  19.560  0.00  0.00    +0.000 OA
ATOM     15  H   UNL     1       2.728   4.426  20.824  0.00  0.00    +0.000 HD
ATOM     16  H   UNL     1       1.830   5.780  21.467  0.00  0.00    +0.000 HD
ENDBRANCH   9  12
BRANCH   8  17
ATOM     17  O   UNL     1       1.995   3.746  18.035  0.00  0.00    +0.000 OA
ATOM     18  H   UNL     1       1.946   3.815  19.009  0.00  0.00    +0.000 HD
ENDBRANCH   8  17
TORSDOF 2
ENDMDL
MODEL 7
REMARK VINA RESULT:      -6.7      2.086      2.870
REMARK  Name = 
REMARK  3 active torsions:
REMARK  status: ('A' for Active; 'I' for Inactive)
REMARK    1  A    between atoms: C_1  and  C_2
REMARK    2  A    between atoms: C_8  and  O_9
REMARK    3  A    between atoms: C_10  and  C_11
REMARK                            x       y       z     vdW  Elec       q    Type
REMARK                         _______ _______ _______ _____ _____    ______ ____
ROOT
ATOM      1  C   UNL     1       2.710   2.154  17.457  0.00  0.00    +0.000 C 
ATOM      2  C   UNL     1       2.917   3.537  18.007  0.00  0.00    +0.000 A 
ATOM      3  N   UNL     1       2.082   3.892  19.013  0.00  0.00    +0.000 NA
ATOM      4  C   UNL     1       2.255   5.105  19.567  0.00  0.00    +0.000 A 
ATOM      5  C   UNL     1       3.242   5.987  19.178  0.00  0.00    +0.000 A 
ATOM      6  C   UNL     1       4.093   5.640  18.148  0.00  0.00    +0.000 A 
ATOM      7  N   UNL     1       5.043   6.519  17.783  0.00  0.00    +0.000 NA
ATOM      8  C   UNL     1       5.842   6.186  16.751  0.00  0.00    +0.000 A 
ATOM      9  C   UNL     1       5.764   5.009  16.029  0.00  0.00    +0.000 A 
ATOM     10  C   UNL     1       4.793   4.092  16.440  0.00  0.00    +0.000 A 
ATOM     11  C   UNL     1       3.929   4.390  17.519  0.00  0.00    +0.000 A 
ENDROOT
BRANCH   9  12
ATOM     12  C   UNL     1       6.612   4.676  14.859  0.00  0.00    +0.000 C 
ATOM     13  N   UNL     1       6.292   3.577  14.119  0.00  0.00    +0.000 N 
ATOM     14  O   UNL     1       7.587   5.363  14.568  0.00  0.00    +0.000 OA
ATOM     15  H   UNL     1       5.495   2.992  14.345  0.00  0.00    +0.000 HD
ATOM     16  H   UNL     1       6.879   3.330  13.334  0.00  0.00    +0.000 HD
ENDBRANCH   9  12
BRANCH   8  17
ATOM     17  O   UNL     1       6.754   7.159  16.492  0.00  0.00    +0.000 OA
ATOM     18  H   UNL     1       6.883   7.010  15.535  0.00  0.00    +0.000 HD
ENDBRANCH   8  17
TORSDOF 2
ENDMDL
MODEL 8
REMARK VINA RESULT:      -6.6      3.155      4.758
REMARK  Name = 
REMARK  3 active torsions:
REMARK  status: ('A' for Active; 'I' for Inactive)
REMARK    1  A    between atoms: C_1  and  C_2
REMARK    2  A    between atoms: C_8  and  O_9
REMARK    3  A    between atoms: C_10  and  C_11
REMARK                            x       y       z     vdW  Elec       q    Type
REMARK                         _______ _______ _______ _____ _____    ______ ____
ROOT
ATOM      1  C   UNL     1       6.003   4.104  14.530  0.00  0.00    +0.000 C 
ATOM      2  C   UNL     1       6.180   4.859  15.818  0.00  0.00    +0.000 A 
ATOM      3  N   UNL     1       7.268   5.664  15.874  0.00  0.00    +0.000 NA
ATOM      4  C   UNL     1       7.447   6.393  16.989  0.00  0.00    +0.000 A 
ATOM      5  C   UNL     1       6.575   6.376  18.058  0.00  0.00    +0.000 A 
ATOM      6  C   UNL     1       5.467   5.554  18.016  0.00  0.00    +0.000 A 
ATOM      7  N   UNL     1       4.636   5.551  19.074  0.00  0.00    +0.000 NA
ATOM      8  C   UNL     1       3.580   4.715  19.038  0.00  0.00    +0.000 A 
ATOM      9  C   UNL     1       3.279   3.852  18.000  0.00  0.00    +0.000 A 
ATOM     10  C   UNL     1       4.134   3.890  16.895  0.00  0.00    +0.000 A 
ATOM     11  C   UNL     1       5.256   4.750  16.879  0.00  0.00    +0.000 A 
ENDROOT
BRANCH   9  12
ATOM     12  C   UNL     1       2.146   2.897  17.995  0.00  0.00    +0.000 C 
ATOM     13  N   UNL     1       2.424   1.562  18.005  0.00  0.00    +0.000 N 
ATOM     14  O   UNL     1       0.985   3.293  17.968  0.00  0.00    +0.000 OA
ATOM     15  H   UNL     1       3.376   1.213  18.021  0.00  0.00    +0.000 HD
ATOM     16  H   UNL     1       1.657   0.905  17.978  0.00  0.00    +0.000 HD
ENDBRANCH   9  12
BRANCH   8  17
ATOM     17  O   UNL     1       2.826   4.816  20.163  0.00  0.00    +0.000 OA
ATOM     18  H   UNL     1       3.510   5.122  20.791  0.00  0.00    +0.000 HD
ENDBRANCH   8  17
TORSDOF 2
ENDMDL
MODEL 9
REMARK VINA RESULT:      -6.6      3.360      5.638
REMARK  Name = 
REMARK  3 active torsions:
REMARK  status: ('A' for Active; 'I' for Inactive)
REMARK    1  A    between atoms: C_1  and  C_2
REMARK    2  A    between atoms: C_8  and  O_9
REMARK    3  A    between atoms: C_10  and  C_11
REMARK                            x       y       z     vdW  Elec       q    Type
REMARK                         _______ _______ _______ _____ _____    ______ ____
ROOT
ATOM      1  C   UNL     1       7.441   5.684  19.352  0.00  0.00    +0.000 C 
ATOM      2  C   UNL     1       6.761   5.112  18.139  0.00  0.00    +0.000 A 
ATOM      3  N   UNL     1       7.576   4.835  17.094  0.00  0.00    +0.000 NA
ATOM      4  C   UNL     1       7.021   4.282  16.001  0.00  0.00    +0.000 A 
ATOM      5  C   UNL     1       5.681   3.969  15.902  0.00  0.00    +0.000 A 
ATOM      6  C   UNL     1       4.839   4.254  16.958  0.00  0.00    +0.000 A 
ATOM      7  N   UNL     1       3.535   3.945  16.835  0.00  0.00    +0.000 NA
ATOM      8  C   UNL     1       2.717   4.266  17.855  0.00  0.00    +0.000 A 
ATOM      9  C   UNL     1       3.106   4.891  19.025  0.00  0.00    +0.000 A 
ATOM     10  C   UNL     1       4.469   5.177  19.152  0.00  0.00    +0.000 A 
ATOM     11  C   UNL     1       5.373   4.861  18.112  0.00  0.00    +0.000 A 
ENDROOT
BRANCH   9  12
ATOM     12  C   UNL     1       2.188   5.289  20.119  0.00  0.00    +0.000 C 
ATOM     13  N   UNL     1       2.256   6.567  20.589  0.00  0.00    +0.000 N 
ATOM     14  O   UNL     1       1.393   4.487  20.601  0.00  0.00    +0.000 OA
ATOM     15  H   UNL     1       2.908   7.244  20.210  0.00  0.00    +0.000 HD
ATOM     16  H   UNL     1       1.649   6.838  21.351  0.00  0.00    +0.000 HD
ENDBRANCH   9  12
BRANCH   8  17
ATOM     17  O   UNL     1       1.435   3.896  17.601  0.00  0.00    +0.000 OA
ATOM     18  H   UNL     1       1.183   3.564  18.484  0.00  0.00    +0.000 HD
ENDBRANCH   8  17
TORSDOF 2
ENDMDL
