MODEL 1
REMARK VINA RESULT:      -7.8      0.000      0.000
REMARK  Name = 
REMARK  6 active torsions:
REMARK  status: ('A' for Active; 'I' for Inactive)
REMARK    1  A    between atoms: C_1  and  C_2
REMARK    2  A    between atoms: C_2  and  C_18
REMARK    3  A    between atoms: N_3  and  N_4
REMARK    4  A    between atoms: C_5  and  C_7
REMARK    5  A    between atoms: C_7  and  N_8
REMARK    6  A    between atoms: C_9  and  C_11
REMARK                            x       y       z     vdW  Elec       q    Type
REMARK                         _______ _______ _______ _____ _____    ______ ____
ROOT
ATOM      1  N   UNL     1       5.235   6.001  18.267  0.00  0.00    +0.000 N 
ATOM      2  C   UNL     1       6.544   5.926  18.730  0.00  0.00    +0.000 C 
ATOM      3  O   UNL     1       6.921   5.306  19.723  0.00  0.00    +0.000 OA
ATOM      4  H   UNL     1       5.087   6.298  17.305  0.00  0.00    +0.000 HD
ENDROOT
BRANCH   1   7
ATOM      5  C   UNL     1       3.937   3.665  17.166  0.00  0.00    +0.000 C 
ATOM      6  C   UNL     1       3.657   4.320  18.502  0.00  0.00    +0.000 C 
ATOM      7  N   UNL     1       4.238   5.388  18.970  0.00  0.00    +0.000 NA
BRANCH   6   8
ATOM      8  C   UNL     1       2.629   3.696  19.316  0.00  0.00    +0.000 A 
ATOM      9  C   UNL     1       1.300   3.402  19.067  0.00  0.00    +0.000 A 
ATOM     10  C   UNL     1       0.783   2.802  20.242  0.00  0.00    +0.000 A 
ATOM     11  C   UNL     1       1.824   2.759  21.137  0.00  0.00    +0.000 A 
ATOM     12  O   UNL     1       2.945   3.295  20.588  0.00  0.00    +0.000 OA
ENDBRANCH   6   8
ENDBRANCH   1   7
BRANCH   2  13
ATOM     13  C   UNL     1       7.536   6.648  17.819  0.00  0.00    +0.000 C 
BRANCH  13  14
ATOM     14  N   UNL     1       7.309   6.303  16.428  0.00  0.00    +0.000 N 
ATOM     15  C   UNL     1       7.501   5.018  15.975  0.00  0.00    +0.000 C 
ATOM     16  O   UNL     1       7.849   4.106  16.717  0.00  0.00    +0.000 OA
ATOM     17  H   UNL     1       7.047   7.050  15.798  0.00  0.00    +0.000 HD
BRANCH  15  18
ATOM     18  C   UNL     1       7.251   4.774  14.527  0.00  0.00    +0.000 A 
ATOM     19  C   UNL     1       7.953   5.463  13.527  0.00  0.00    +0.000 A 
ATOM     20  C   UNL     1       7.697   5.197  12.177  0.00  0.00    +0.000 A 
ATOM     21  C   UNL     1       6.744   4.246  11.825  0.00  0.00    +0.000 A 
ATOM     22  C   UNL     1       6.059   3.559  12.820  0.00  0.00    +0.000 A 
ATOM     23  F   UNL     1       5.146   2.640  12.477  0.00  0.00    +0.000 F 
ATOM     24  C   UNL     1       6.303   3.809  14.167  0.00  0.00    +0.000 A 
ENDBRANCH  15  18
ENDBRANCH  13  14
ENDBRANCH   2  13
TORSDOF 5
ENDMDL
MODEL 2
REMARK VINA RESULT:      -7.7      1.120      1.631
REMARK  Name = 
REMARK  6 active torsions:
REMARK  status: ('A' for Active; 'I' for Inactive)
REMARK    1  A    between atoms: C_1  and  C_2
REMARK    2  A    between atoms: C_2  and  C_18
REMARK    3  A    between atoms: N_3  and  N_4
REMARK    4  A    between atoms: C_5  and  C_7
REMARK    5  A    between atoms: C_7  and  N_8
REMARK    6  A    between atoms: C_9  and  C_11
REMARK                            x       y       z     vdW  Elec       q    Type
REMARK                         _______ _______ _______ _____ _____    ______ ____
ROOT
ATOM      1  N   UNL     1       5.374   5.798  18.566  0.00  0.00    +0.000 N 
ATOM      2  C   UNL     1       6.702   5.898  18.963  0.00  0.00    +0.000 C 
ATOM      3  O   UNL     1       7.178   5.443  20.003  0.00  0.00    +0.000 OA
ATOM      4  H   UNL     1       5.157   5.958  17.585  0.00  0.00    +0.000 HD
ENDROOT
BRANCH   1   7
ATOM      5  C   UNL     1       3.502   3.883  17.477  0.00  0.00    +0.000 C 
ATOM      6  C   UNL     1       3.634   4.309  18.924  0.00  0.00    +0.000 C 
ATOM      7  N   UNL     1       4.470   5.192  19.391  0.00  0.00    +0.000 NA
BRANCH   6   8
ATOM      8  C   UNL     1       2.724   3.675  19.861  0.00  0.00    +0.000 A 
ATOM      9  C   UNL     1       2.939   2.998  21.048  0.00  0.00    +0.000 A 
ATOM     10  C   UNL     1       1.669   2.586  21.524  0.00  0.00    +0.000 A 
ATOM     11  C   UNL     1       0.754   3.038  20.605  0.00  0.00    +0.000 A 
ATOM     12  O   UNL     1       1.379   3.699  19.597  0.00  0.00    +0.000 OA
ENDBRANCH   6   8
ENDBRANCH   1   7
BRANCH   2  13
ATOM     13  C   UNL     1       7.582   6.585  17.919  0.00  0.00    +0.000 C 
BRANCH  13  14
ATOM     14  N   UNL     1       7.202   6.185  16.577  0.00  0.00    +0.000 N 
ATOM     15  C   UNL     1       7.488   4.925  16.104  0.00  0.00    +0.000 C 
ATOM     16  O   UNL     1       8.052   4.079  16.790  0.00  0.00    +0.000 OA
ATOM     17  H   UNL     1       6.760   6.880  15.990  0.00  0.00    +0.000 HD
BRANCH  15  18
ATOM     18  C   UNL     1       7.065   4.622  14.709  0.00  0.00    +0.000 A 
ATOM     19  C   UNL     1       6.031   3.716  14.427  0.00  0.00    +0.000 A 
ATOM     20  C   UNL     1       5.656   3.466  13.103  0.00  0.00    +0.000 A 
ATOM     21  C   UNL     1       6.309   4.119  12.060  0.00  0.00    +0.000 A 
ATOM     22  C   UNL     1       7.325   5.024  12.346  0.00  0.00    +0.000 A 
ATOM     23  F   UNL     1       7.946   5.655  11.341  0.00  0.00    +0.000 F 
ATOM     24  C   UNL     1       7.708   5.286  13.658  0.00  0.00    +0.000 A 
ENDBRANCH  15  18
ENDBRANCH  13  14
ENDBRANCH   2  13
TORSDOF 5
ENDMDL
MODEL 3
REMARK VINA RESULT:      -7.6      1.623      2.060
REMARK  Name = 
REMARK  6 active torsions:
REMARK  status: ('A' for Active; 'I' for Inactive)
REMARK    1  A    between atoms: C_1  and  C_2
REMARK    2  A    between atoms: C_2  and  C_18
REMARK    3  A    between atoms: N_3  and  N_4
REMARK    4  A    between atoms: C_5  and  C_7
REMARK    5  A    between atoms: C_7  and  N_8
REMARK    6  A    between atoms: C_9  and  C_11
REMARK                            x       y       z     vdW  Elec       q    Type
REMARK                         _______ _______ _______ _____ _____    ______ ____
ROOT
ATOM      1  N   UNL     1       5.604   3.725  17.819  0.00  0.00    +0.000 N 
ATOM      2  C   UNL     1       6.639   4.642  17.968  0.00  0.00    +0.000 C 
ATOM      3  O   UNL     1       6.887   5.287  18.986  0.00  0.00    +0.000 OA
ATOM      4  H   UNL     1       5.664   3.062  17.051  0.00  0.00    +0.000 HD
ENDROOT
BRANCH   1   7
ATOM      5  C   UNL     1       2.779   3.455  17.271  0.00  0.00    +0.000 C 
ATOM      6  C   UNL     1       3.458   3.375  18.621  0.00  0.00    +0.000 C 
ATOM      7  N   UNL     1       4.731   3.523  18.850  0.00  0.00    +0.000 NA
BRANCH   6   8
ATOM      8  C   UNL     1       2.590   3.127  19.758  0.00  0.00    +0.000 A 
ATOM      9  C   UNL     1       1.231   3.309  19.944  0.00  0.00    +0.000 A 
ATOM     10  C   UNL     1       0.937   2.903  21.270  0.00  0.00    +0.000 A 
ATOM     11  C   UNL     1       2.130   2.493  21.814  0.00  0.00    +0.000 A 
ATOM     12  O   UNL     1       3.134   2.622  20.910  0.00  0.00    +0.000 OA
ENDBRANCH   6   8
ENDBRANCH   1   7
BRANCH   2  13
ATOM     13  C   UNL     1       7.531   4.733  16.732  0.00  0.00    +0.000 C 
BRANCH  13  14
ATOM     14  N   UNL     1       6.908   4.083  15.593  0.00  0.00    +0.000 N 
ATOM     15  C   UNL     1       7.051   4.590  14.322  0.00  0.00    +0.000 C 
ATOM     16  O   UNL     1       7.720   5.591  14.085  0.00  0.00    +0.000 OA
ATOM     17  H   UNL     1       6.332   3.273  15.775  0.00  0.00    +0.000 HD
BRANCH  15  18
ATOM     18  C   UNL     1       6.361   3.854  13.226  0.00  0.00    +0.000 A 
ATOM     19  C   UNL     1       4.996   4.034  12.956  0.00  0.00    +0.000 A 
ATOM     20  C   UNL     1       4.387   3.332  11.911  0.00  0.00    +0.000 A 
ATOM     21  C   UNL     1       5.137   2.453  11.134  0.00  0.00    +0.000 A 
ATOM     22  C   UNL     1       6.491   2.287  11.400  0.00  0.00    +0.000 A 
ATOM     23  F   UNL     1       7.211   1.444  10.646  0.00  0.00    +0.000 F 
ATOM     24  C   UNL     1       7.113   2.980  12.434  0.00  0.00    +0.000 A 
ENDBRANCH  15  18
ENDBRANCH  13  14
ENDBRANCH   2  13
TORSDOF 5
ENDMDL
MODEL 4
REMARK VINA RESULT:      -7.6      3.278      7.352
REMARK  Name = 
REMARK  6 active torsions:
REMARK  status: ('A' for Active; 'I' for Inactive)
REMARK    1  A    between atoms: C_1  and  C_2
REMARK    2  A    between atoms: C_2  and  C_18
REMARK    3  A    between atoms: N_3  and  N_4
REMARK    4  A    between atoms: C_5  and  C_7
REMARK    5  A    between atoms: C_7  and  N_8
REMARK    6  A    between atoms: C_9  and  C_11
REMARK                            x       y       z     vdW  Elec       q    Type
REMARK                         _______ _______ _______ _____ _____    ______ ____
ROOT
ATOM      1  N   UNL     1       6.612   6.191  16.666  0.00  0.00    +0.000 N 
ATOM      2  C   UNL     1       5.607   6.042  15.717  0.00  0.00    +0.000 C 
ATOM      3  O   UNL     1       5.121   6.944  15.036  0.00  0.00    +0.000 OA
ATOM      4  H   UNL     1       7.118   5.358  16.957  0.00  0.00    +0.000 HD
ENDROOT
BRANCH   1   7
ATOM      5  C   UNL     1       8.188   6.623  19.050  0.00  0.00    +0.000 C 
ATOM      6  C   UNL     1       7.835   7.646  17.992  0.00  0.00    +0.000 C 
ATOM      7  N   UNL     1       7.103   7.436  16.936  0.00  0.00    +0.000 NA
BRANCH   6   8
ATOM      8  C   UNL     1       8.356   8.985  18.200  0.00  0.00    +0.000 A 
ATOM      9  C   UNL     1       8.220  10.156  17.475  0.00  0.00    +0.000 A 
ATOM     10  C   UNL     1       8.966  11.151  18.154  0.00  0.00    +0.000 A 
ATOM     11  C   UNL     1       9.509  10.534  19.254  0.00  0.00    +0.000 A 
ATOM     12  O   UNL     1       9.147   9.226  19.293  0.00  0.00    +0.000 OA
ENDBRANCH   6   8
ENDBRANCH   1   7
BRANCH   2  13
ATOM     13  C   UNL     1       5.186   4.586  15.524  0.00  0.00    +0.000 C 
BRANCH  13  14
ATOM     14  N   UNL     1       4.101   4.236  16.421  0.00  0.00    +0.000 N 
ATOM     15  C   UNL     1       4.337   3.963  17.749  0.00  0.00    +0.000 C 
ATOM     16  O   UNL     1       5.459   4.022  18.241  0.00  0.00    +0.000 OA
ATOM     17  H   UNL     1       3.174   4.158  16.025  0.00  0.00    +0.000 HD
BRANCH  15  18
ATOM     18  C   UNL     1       3.154   3.603  18.580  0.00  0.00    +0.000 A 
ATOM     19  C   UNL     1       2.006   3.022  18.022  0.00  0.00    +0.000 A 
ATOM     20  C   UNL     1       0.920   2.687  18.838  0.00  0.00    +0.000 A 
ATOM     21  C   UNL     1       0.978   2.931  20.208  0.00  0.00    +0.000 A 
ATOM     22  C   UNL     1       2.123   3.498  20.756  0.00  0.00    +0.000 A 
ATOM     23  F   UNL     1       2.178   3.725  22.075  0.00  0.00    +0.000 F 
ATOM     24  C   UNL     1       3.213   3.833  19.959  0.00  0.00    +0.000 A 
ENDBRANCH  15  18
ENDBRANCH  13  14
ENDBRANCH   2  13
TORSDOF 5
ENDMDL
MODEL 5
REMARK VINA RESULT:      -7.6      2.156      6.843
REMARK  Name = 
REMARK  6 active torsions:
REMARK  status: ('A' for Active; 'I' for Inactive)
REMARK    1  A    between atoms: C_1  and  C_2
REMARK    2  A    between atoms: C_2  and  C_18
REMARK    3  A    between atoms: N_3  and  N_4
REMARK    4  A    between atoms: C_5  and  C_7
REMARK    5  A    between atoms: C_7  and  N_8
REMARK    6  A    between atoms: C_9  and  C_11
REMARK                            x       y       z     vdW  Elec       q    Type
REMARK                         _______ _______ _______ _____ _____    ______ ____
ROOT
ATOM      1  N   UNL     1       7.282   4.436  17.362  0.00  0.00    +0.000 N 
ATOM      2  C   UNL     1       7.335   5.634  18.066  0.00  0.00    +0.000 C 
ATOM      3  O   UNL     1       7.542   6.745  17.580  0.00  0.00    +0.000 OA
ATOM      4  H   UNL     1       6.836   3.640  17.812  0.00  0.00    +0.000 HD
ENDROOT
BRANCH   1   7
ATOM      5  C   UNL     1       5.063   4.352  15.512  0.00  0.00    +0.000 C 
ATOM      6  C   UNL     1       6.535   4.423  15.168  0.00  0.00    +0.000 C 
ATOM      7  N   UNL     1       7.522   4.436  16.018  0.00  0.00    +0.000 NA
BRANCH   6   8
ATOM      8  C   UNL     1       6.859   4.460  13.753  0.00  0.00    +0.000 A 
ATOM      9  C   UNL     1       6.481   3.654  12.694  0.00  0.00    +0.000 A 
ATOM     10  C   UNL     1       7.120   4.166  11.538  0.00  0.00    +0.000 A 
ATOM     11  C   UNL     1       7.846   5.255  11.955  0.00  0.00    +0.000 A 
ATOM     12  O   UNL     1       7.694   5.443  13.291  0.00  0.00    +0.000 OA
ENDBRANCH   6   8
ENDBRANCH   1   7
BRANCH   2  13
ATOM     13  C   UNL     1       7.024   5.461  19.552  0.00  0.00    +0.000 C 
BRANCH  13  14
ATOM     14  N   UNL     1       5.771   4.755  19.742  0.00  0.00    +0.000 N 
ATOM     15  C   UNL     1       4.583   5.286  19.295  0.00  0.00    +0.000 C 
ATOM     16  O   UNL     1       4.524   6.359  18.704  0.00  0.00    +0.000 OA
ATOM     17  H   UNL     1       5.799   3.881  20.251  0.00  0.00    +0.000 HD
BRANCH  15  18
ATOM     18  C   UNL     1       3.353   4.485  19.551  0.00  0.00    +0.000 A 
ATOM     19  C   UNL     1       2.525   4.730  20.656  0.00  0.00    +0.000 A 
ATOM     20  C   UNL     1       1.372   3.963  20.856  0.00  0.00    +0.000 A 
ATOM     21  C   UNL     1       1.044   2.954  19.955  0.00  0.00    +0.000 A 
ATOM     22  C   UNL     1       1.863   2.723  18.855  0.00  0.00    +0.000 A 
ATOM     23  F   UNL     1       1.541   1.755  17.987  0.00  0.00    +0.000 F 
ATOM     24  C   UNL     1       3.012   3.479  18.641  0.00  0.00    +0.000 A 
ENDBRANCH  15  18
ENDBRANCH  13  14
ENDBRANCH   2  13
TORSDOF 5
ENDMDL
MODEL 6
REMARK VINA RESULT:      -7.5      4.496      8.114
REMARK  Name = 
REMARK  6 active torsions:
REMARK  status: ('A' for Active; 'I' for Inactive)
REMARK    1  A    between atoms: C_1  and  C_2
REMARK    2  A    between atoms: C_2  and  C_18
REMARK    3  A    between atoms: N_3  and  N_4
REMARK    4  A    between atoms: C_5  and  C_7
REMARK    5  A    between atoms: C_7  and  N_8
REMARK    6  A    between atoms: C_9  and  C_11
REMARK                            x       y       z     vdW  Elec       q    Type
REMARK                         _______ _______ _______ _____ _____    ______ ____
ROOT
ATOM      1  N   UNL     1       8.652   8.461  18.851  0.00  0.00    +0.000 N 
ATOM      2  C   UNL     1       8.000   7.512  18.073  0.00  0.00    +0.000 C 
ATOM      3  O   UNL     1       7.671   7.652  16.895  0.00  0.00    +0.000 OA
ATOM      4  H   UNL     1       9.114   8.144  19.700  0.00  0.00    +0.000 HD
ENDROOT
BRANCH   1   7
ATOM      5  C   UNL     1       9.336  10.655  20.604  0.00  0.00    +0.000 C 
ATOM      6  C   UNL     1       9.266  10.684  19.093  0.00  0.00    +0.000 C 
ATOM      7  N   UNL     1       8.932   9.688  18.321  0.00  0.00    +0.000 NA
BRANCH   6   8
ATOM      8  C   UNL     1       9.586  11.952  18.462  0.00  0.00    +0.000 A 
ATOM      9  C   UNL     1      10.567  12.315  17.556  0.00  0.00    +0.000 A 
ATOM     10  C   UNL     1      10.404  13.700  17.304  0.00  0.00    +0.000 A 
ATOM     11  C   UNL     1       9.333  14.101  18.066  0.00  0.00    +0.000 A 
ATOM     12  O   UNL     1       8.831  13.053  18.768  0.00  0.00    +0.000 OA
ENDBRANCH   6   8
ENDBRANCH   1   7
BRANCH   2  13
ATOM     13  C   UNL     1       7.781   6.192  18.809  0.00  0.00    +0.000 C 
BRANCH  13  14
ATOM     14  N   UNL     1       6.371   5.851  18.856  0.00  0.00    +0.000 N 
ATOM     15  C   UNL     1       5.836   4.928  17.987  0.00  0.00    +0.000 C 
ATOM     16  O   UNL     1       6.516   4.339  17.153  0.00  0.00    +0.000 OA
ATOM     17  H   UNL     1       5.792   6.347  19.520  0.00  0.00    +0.000 HD
BRANCH  15  18
ATOM     18  C   UNL     1       4.376   4.660  18.112  0.00  0.00    +0.000 A 
ATOM     19  C   UNL     1       3.696   3.819  17.217  0.00  0.00    +0.000 A 
ATOM     20  C   UNL     1       2.327   3.584  17.375  0.00  0.00    +0.000 A 
ATOM     21  C   UNL     1       1.634   4.184  18.423  0.00  0.00    +0.000 A 
ATOM     22  C   UNL     1       2.315   5.007  19.313  0.00  0.00    +0.000 A 
ATOM     23  F   UNL     1       1.646   5.578  20.324  0.00  0.00    +0.000 F 
ATOM     24  C   UNL     1       3.678   5.250  19.172  0.00  0.00    +0.000 A 
ENDBRANCH  15  18
ENDBRANCH  13  14
ENDBRANCH   2  13
TORSDOF 5
ENDMDL
MODEL 7
REMARK VINA RESULT:      -7.5      2.862      7.062
REMARK  Name = 
REMARK  6 active torsions:
REMARK  status: ('A' for Active; 'I' for Inactive)
REMARK    1  A    between atoms: C_1  and  C_2
REMARK    2  A    between atoms: C_2  and  C_18
REMARK    3  A    between atoms: N_3  and  N_4
REMARK    4  A    between atoms: C_5  and  C_7
REMARK    5  A    between atoms: C_7  and  N_8
REMARK    6  A    between atoms: C_9  and  C_11
REMARK                            x       y       z     vdW  Elec       q    Type
REMARK                         _______ _______ _______ _____ _____    ______ ____
ROOT
ATOM      1  N   UNL     1       6.010   6.420  16.785  0.00  0.00    +0.000 N 
ATOM      2  C   UNL     1       6.596   5.502  15.921  0.00  0.00    +0.000 C 
ATOM      3  O   UNL     1       7.688   5.631  15.369  0.00  0.00    +0.000 OA
ATOM      4  H   UNL     1       5.258   6.092  17.387  0.00  0.00    +0.000 HD
ENDROOT
BRANCH   1   7
ATOM      5  C   UNL     1       8.010   6.558  18.867  0.00  0.00    +0.000 C 
ATOM      6  C   UNL     1       7.563   7.681  17.956  0.00  0.00    +0.000 C 
ATOM      7  N   UNL     1       6.642   7.604  17.038  0.00  0.00    +0.000 NA
BRANCH   6   8
ATOM      8  C   UNL     1       8.221   8.960  18.149  0.00  0.00    +0.000 A 
ATOM      9  C   UNL     1       8.132  10.161  17.468  0.00  0.00    +0.000 A 
ATOM     10  C   UNL     1       9.022  11.063  18.102  0.00  0.00    +0.000 A 
ATOM     11  C   UNL     1       9.599  10.364  19.134  0.00  0.00    +0.000 A 
ATOM     12  O   UNL     1       9.122   9.094  19.174  0.00  0.00    +0.000 OA
ENDBRANCH   6   8
ENDBRANCH   1   7
BRANCH   2  13
ATOM     13  C   UNL     1       5.770   4.227  15.763  0.00  0.00    +0.000 C 
BRANCH  13  14
ATOM     14  N   UNL     1       4.604   4.253  16.626  0.00  0.00    +0.000 N 
ATOM     15  C   UNL     1       4.715   4.012  17.976  0.00  0.00    +0.000 C 
ATOM     16  O   UNL     1       5.793   3.786  18.516  0.00  0.00    +0.000 OA
ATOM     17  H   UNL     1       3.705   4.412  16.192  0.00  0.00    +0.000 HD
BRANCH  15  18
ATOM     18  C   UNL     1       3.455   4.052  18.769  0.00  0.00    +0.000 A 
ATOM     19  C   UNL     1       3.280   4.939  19.841  0.00  0.00    +0.000 A 
ATOM     20  C   UNL     1       2.077   4.954  20.554  0.00  0.00    +0.000 A 
ATOM     21  C   UNL     1       1.048   4.085  20.199  0.00  0.00    +0.000 A 
ATOM     22  C   UNL     1       1.223   3.215  19.129  0.00  0.00    +0.000 A 
ATOM     23  F   UNL     1       0.229   2.385  18.787  0.00  0.00    +0.000 F 
ATOM     24  C   UNL     1       2.413   3.191  18.407  0.00  0.00    +0.000 A 
ENDBRANCH  15  18
ENDBRANCH  13  14
ENDBRANCH   2  13
TORSDOF 5
ENDMDL
MODEL 8
REMARK VINA RESULT:      -7.4      2.748      6.995
REMARK  Name = 
REMARK  6 active torsions:
REMARK  status: ('A' for Active; 'I' for Inactive)
REMARK    1  A    between atoms: C_1  and  C_2
REMARK    2  A    between atoms: C_2  and  C_18
REMARK    3  A    between atoms: N_3  and  N_4
REMARK    4  A    between atoms: C_5  and  C_7
REMARK    5  A    between atoms: C_7  and  N_8
REMARK    6  A    between atoms: C_9  and  C_11
REMARK                            x       y       z     vdW  Elec       q    Type
REMARK                         _______ _______ _______ _____ _____    ______ ____
ROOT
ATOM      1  N   UNL     1       7.049   4.386  17.369  0.00  0.00    +0.000 N 
ATOM      2  C   UNL     1       7.235   5.564  18.083  0.00  0.00    +0.000 C 
ATOM      3  O   UNL     1       7.617   6.636  17.615  0.00  0.00    +0.000 OA
ATOM      4  H   UNL     1       6.476   3.659  17.792  0.00  0.00    +0.000 HD
ENDROOT
BRANCH   1   7
ATOM      5  C   UNL     1       4.914   4.334  15.422  0.00  0.00    +0.000 C 
ATOM      6  C   UNL     1       6.402   4.353  15.144  0.00  0.00    +0.000 C 
ATOM      7  N   UNL     1       7.349   4.353  16.038  0.00  0.00    +0.000 NA
BRANCH   6   8
ATOM      8  C   UNL     1       6.790   4.354  13.745  0.00  0.00    +0.000 A 
ATOM      9  C   UNL     1       7.612   5.191  13.012  0.00  0.00    +0.000 A 
ATOM     10  C   UNL     1       7.607   4.710  11.679  0.00  0.00    +0.000 A 
ATOM     11  C   UNL     1       6.788   3.607  11.676  0.00  0.00    +0.000 A 
ATOM     12  O   UNL     1       6.290   3.382  12.918  0.00  0.00    +0.000 OA
ENDBRANCH   6   8
ENDBRANCH   1   7
BRANCH   2  13
ATOM     13  C   UNL     1       6.834   5.436  19.552  0.00  0.00    +0.000 C 
BRANCH  13  14
ATOM     14  N   UNL     1       5.570   4.736  19.686  0.00  0.00    +0.000 N 
ATOM     15  C   UNL     1       4.424   5.224  19.100  0.00  0.00    +0.000 C 
ATOM     16  O   UNL     1       4.416   6.249  18.427  0.00  0.00    +0.000 OA
ATOM     17  H   UNL     1       5.555   3.903  20.259  0.00  0.00    +0.000 HD
BRANCH  15  18
ATOM     18  C   UNL     1       3.178   4.435  19.309  0.00  0.00    +0.000 A 
ATOM     19  C   UNL     1       2.330   4.092  18.246  0.00  0.00    +0.000 A 
ATOM     20  C   UNL     1       1.174   3.340  18.482  0.00  0.00    +0.000 A 
ATOM     21  C   UNL     1       0.864   2.929  19.775  0.00  0.00    +0.000 A 
ATOM     22  C   UNL     1       1.714   3.263  20.824  0.00  0.00    +0.000 A 
ATOM     23  F   UNL     1       1.415   2.860  22.066  0.00  0.00    +0.000 F 
ATOM     24  C   UNL     1       2.869   4.008  20.606  0.00  0.00    +0.000 A 
ENDBRANCH  15  18
ENDBRANCH  13  14
ENDBRANCH   2  13
TORSDOF 5
ENDMDL
MODEL 9
REMARK VINA RESULT:      -7.4      3.744      7.535
REMARK  Name = 
REMARK  6 active torsions:
REMARK  status: ('A' for Active; 'I' for Inactive)
REMARK    1  A    between atoms: C_1  and  C_2
REMARK    2  A    between atoms: C_2  and  C_18
REMARK    3  A    between atoms: N_3  and  N_4
REMARK    4  A    between atoms: C_5  and  C_7
REMARK    5  A    between atoms: C_7  and  N_8
REMARK    6  A    between atoms: C_9  and  C_11
REMARK                            x       y       z     vdW  Elec       q    Type
REMARK                         _______ _______ _______ _____ _____    ______ ____
ROOT
ATOM      1  N   UNL     1       4.462   4.163  17.381  0.00  0.00    +0.000 N 
ATOM      2  C   UNL     1       5.187   4.211  18.566  0.00  0.00    +0.000 C 
ATOM      3  O   UNL     1       6.411   4.127  18.664  0.00  0.00    +0.000 OA
ATOM      4  H   UNL     1       3.508   4.516  17.393  0.00  0.00    +0.000 HD
ENDROOT
BRANCH   1   7
ATOM      5  C   UNL     1       5.188   6.425  15.735  0.00  0.00    +0.000 C 
ATOM      6  C   UNL     1       5.474   4.965  15.456  0.00  0.00    +0.000 C 
ATOM      7  N   UNL     1       5.117   3.958  16.200  0.00  0.00    +0.000 NA
BRANCH   6   8
ATOM      8  C   UNL     1       6.199   4.680  14.231  0.00  0.00    +0.000 A 
ATOM      9  C   UNL     1       6.011   3.731  13.243  0.00  0.00    +0.000 A 
ATOM     10  C   UNL     1       7.042   3.919  12.288  0.00  0.00    +0.000 A 
ATOM     11  C   UNL     1       7.795   4.973  12.746  0.00  0.00    +0.000 A 
ATOM     12  O   UNL     1       7.295   5.441  13.917  0.00  0.00    +0.000 OA
ENDBRANCH   6   8
ENDBRANCH   1   7
BRANCH   2  13
ATOM     13  C   UNL     1       4.307   4.465  19.789  0.00  0.00    +0.000 C 
BRANCH  13  14
ATOM     14  N   UNL     1       3.694   5.779  19.722  0.00  0.00    +0.000 N 
ATOM     15  C   UNL     1       2.394   5.976  20.129  0.00  0.00    +0.000 C 
ATOM     16  O   UNL     1       1.703   5.070  20.581  0.00  0.00    +0.000 OA
ATOM     17  H   UNL     1       4.242   6.531  19.328  0.00  0.00    +0.000 HD
BRANCH  15  18
ATOM     18  C   UNL     1       1.859   7.361  20.008  0.00  0.00    +0.000 A 
ATOM     19  C   UNL     1       1.200   7.997  21.071  0.00  0.00    +0.000 A 
ATOM     20  C   UNL     1       0.721   9.303  20.922  0.00  0.00    +0.000 A 
ATOM     21  C   UNL     1       0.899   9.975  19.715  0.00  0.00    +0.000 A 
ATOM     22  C   UNL     1       1.561   9.343  18.669  0.00  0.00    +0.000 A 
ATOM     23  F   UNL     1       1.736   9.996  17.512  0.00  0.00    +0.000 F 
ATOM     24  C   UNL     1       2.047   8.046  18.802  0.00  0.00    +0.000 A 
ENDBRANCH  15  18
ENDBRANCH  13  14
ENDBRANCH   2  13
TORSDOF 5
ENDMDL
