MODEL 1
REMARK VINA RESULT:      -8.0      0.000      0.000
REMARK  Name = 
REMARK  8 active torsions:
REMARK  status: ('A' for Active; 'I' for Inactive)
REMARK    1  A    between atoms: C_1  and  C_2
REMARK    2  A    between atoms: C_2  and  O_3
REMARK    3  A    between atoms: O_3  and  C_4
REMARK    4  A    between atoms: C_4  and  C_6
REMARK    5  A    between atoms: C_8  and  C_9
REMARK    6  A    between atoms: C_10  and  C_11
REMARK    7  A    between atoms: N_16  and  C_17
REMARK    8  A    between atoms: C_26  and  C_27
REMARK                            x       y       z     vdW  Elec       q    Type
REMARK                         _______ _______ _______ _____ _____    ______ ____
ROOT
ATOM      1  C   UNL     1       4.564   5.077  18.432  0.00  0.00    +0.000 C 
ATOM      2  O   UNL     1       4.594   4.021  19.067  0.00  0.00    +0.000 OA
ATOM      3  N   UNL     1       3.580   6.037  18.718  0.00  0.00    +0.000 N 
ATOM      4  C   UNL     1       3.402   7.267  17.967  0.00  0.00    +0.000 C 
ATOM      5  C   UNL     1       2.022   7.908  18.085  0.00  0.00    +0.000 C 
ATOM      6  N   UNL     1       1.747   8.104  19.512  0.00  0.00    +0.000 N 
ATOM      7  C   UNL     1       1.730   6.845  20.279  0.00  0.00    +0.000 C 
ATOM      8  C   UNL     1       3.062   6.075  20.103  0.00  0.00    +0.000 C 
ENDROOT
BRANCH   1  13
ATOM      9  C   UNL     1       6.678   5.166  15.339  0.00  0.00    +0.000 A 
ATOM     10  N   UNL     1       7.387   5.939  16.212  0.00  0.00    +0.000 N 
ATOM     11  C   UNL     1       6.842   5.896  17.467  0.00  0.00    +0.000 A 
ATOM     12  C   UNL     1       7.692   6.406  18.575  0.00  0.00    +0.000 C 
ATOM     13  C   UNL     1       5.570   5.324  17.362  0.00  0.00    +0.000 A 
ATOM     14  C   UNL     1       5.485   4.835  15.985  0.00  0.00    +0.000 A 
ATOM     15  C   UNL     1       4.360   4.073  15.365  0.00  0.00    +0.000 C 
ATOM     16  H   UNL     1       8.283   6.348  15.980  0.00  0.00    +0.000 HD
BRANCH   9  17
ATOM     17  C   UNL     1       7.238   4.874  14.043  0.00  0.00    +0.000 C 
ATOM     18  O   UNL     1       8.029   5.614  13.471  0.00  0.00    +0.000 OA
BRANCH  17  19
ATOM     19  O   UNL     1       6.784   3.690  13.564  0.00  0.00    +0.000 OA
BRANCH  19  21
ATOM     20  C   UNL     1       5.064   3.279  11.906  0.00  0.00    +0.000 C 
ATOM     21  C   UNL     1       6.515   3.639  12.159  0.00  0.00    +0.000 C 
ENDBRANCH  19  21
ENDBRANCH  17  19
ENDBRANCH   9  17
ENDBRANCH   1  13
BRANCH   6  22
ATOM     22  C   UNL     1       1.016   9.202  19.936  0.00  0.00    +0.000 A 
ATOM     23  C   UNL     1       0.680  10.215  19.024  0.00  0.00    +0.000 A 
ATOM     24  C   UNL     1      -0.129  11.297  19.400  0.00  0.00    +0.000 A 
ATOM     25  C   UNL     1      -0.624  11.382  20.694  0.00  0.00    +0.000 A 
ATOM     26  C   UNL     1      -0.307  10.386  21.612  0.00  0.00    +0.000 A 
ATOM     27 CL   UNL     1      -0.928  10.471  23.214  0.00  0.00    +0.000 Cl
ATOM     28  C   UNL     1       0.499   9.311  21.235  0.00  0.00    +0.000 A 
ENDBRANCH   6  22
TORSDOF 5
ENDMDL
MODEL 2
REMARK VINA RESULT:      -7.8      1.021      1.388
REMARK  Name = 
REMARK  8 active torsions:
REMARK  status: ('A' for Active; 'I' for Inactive)
REMARK    1  A    between atoms: C_1  and  C_2
REMARK    2  A    between atoms: C_2  and  O_3
REMARK    3  A    between atoms: O_3  and  C_4
REMARK    4  A    between atoms: C_4  and  C_6
REMARK    5  A    between atoms: C_8  and  C_9
REMARK    6  A    between atoms: C_10  and  C_11
REMARK    7  A    between atoms: N_16  and  C_17
REMARK    8  A    between atoms: C_26  and  C_27
REMARK                            x       y       z     vdW  Elec       q    Type
REMARK                         _______ _______ _______ _____ _____    ______ ____
ROOT
ATOM      1  C   UNL     1       4.556   4.615  18.606  0.00  0.00    +0.000 C 
ATOM      2  O   UNL     1       4.533   3.502  19.133  0.00  0.00    +0.000 OA
ATOM      3  N   UNL     1       3.606   5.582  18.975  0.00  0.00    +0.000 N 
ATOM      4  C   UNL     1       3.491   6.887  18.347  0.00  0.00    +0.000 C 
ATOM      5  C   UNL     1       2.135   7.570  18.511  0.00  0.00    +0.000 C 
ATOM      6  N   UNL     1       1.845   7.635  19.948  0.00  0.00    +0.000 N 
ATOM      7  C   UNL     1       1.765   6.308  20.585  0.00  0.00    +0.000 C 
ATOM      8  C   UNL     1       3.068   5.505  20.350  0.00  0.00    +0.000 C 
ENDROOT
BRANCH   1  13
ATOM      9  C   UNL     1       6.699   4.957  15.551  0.00  0.00    +0.000 A 
ATOM     10  N   UNL     1       7.460   5.544  16.521  0.00  0.00    +0.000 N 
ATOM     11  C   UNL     1       6.901   5.373  17.759  0.00  0.00    +0.000 A 
ATOM     12  C   UNL     1       7.779   5.657  18.925  0.00  0.00    +0.000 C 
ATOM     13  C   UNL     1       5.588   4.926  17.578  0.00  0.00    +0.000 A 
ATOM     14  C   UNL     1       5.478   4.638  16.148  0.00  0.00    +0.000 A 
ATOM     15  C   UNL     1       4.301   4.061  15.431  0.00  0.00    +0.000 C 
ATOM     16  H   UNL     1       8.387   5.908  16.346  0.00  0.00    +0.000 HD
BRANCH   9  17
ATOM     17  C   UNL     1       7.247   4.802  14.226  0.00  0.00    +0.000 C 
ATOM     18  O   UNL     1       8.006   5.615  13.714  0.00  0.00    +0.000 OA
BRANCH  17  19
ATOM     19  O   UNL     1       6.819   3.654  13.647  0.00  0.00    +0.000 OA
BRANCH  19  21
ATOM     20  C   UNL     1       5.175   3.263  11.910  0.00  0.00    +0.000 C 
ATOM     21  C   UNL     1       6.587   3.706  12.236  0.00  0.00    +0.000 C 
ENDBRANCH  19  21
ENDBRANCH  17  19
ENDBRANCH   9  17
ENDBRANCH   1  13
BRANCH   6  22
ATOM     22  C   UNL     1       1.152   8.714  20.470  0.00  0.00    +0.000 A 
ATOM     23  C   UNL     1       0.807   8.735  21.831  0.00  0.00    +0.000 A 
ATOM     24  C   UNL     1       0.179   9.847  22.408  0.00  0.00    +0.000 A 
ATOM     25  C   UNL     1      -0.110  10.965  21.637  0.00  0.00    +0.000 A 
ATOM     26  C   UNL     1       0.228  10.967  20.287  0.00  0.00    +0.000 A 
ATOM     27 CL   UNL     1      -0.109  12.352  19.325  0.00  0.00    +0.000 Cl
ATOM     28  C   UNL     1       0.852   9.858  19.716  0.00  0.00    +0.000 A 
ENDBRANCH   6  22
TORSDOF 5
ENDMDL
MODEL 3
REMARK VINA RESULT:      -7.6      3.176      4.634
REMARK  Name = 
REMARK  8 active torsions:
REMARK  status: ('A' for Active; 'I' for Inactive)
REMARK    1  A    between atoms: C_1  and  C_2
REMARK    2  A    between atoms: C_2  and  O_3
REMARK    3  A    between atoms: O_3  and  C_4
REMARK    4  A    between atoms: C_4  and  C_6
REMARK    5  A    between atoms: C_8  and  C_9
REMARK    6  A    between atoms: C_10  and  C_11
REMARK    7  A    between atoms: N_16  and  C_17
REMARK    8  A    between atoms: C_26  and  C_27
REMARK                            x       y       z     vdW  Elec       q    Type
REMARK                         _______ _______ _______ _____ _____    ______ ____
ROOT
ATOM      1  C   UNL     1       3.511   6.874  17.621  0.00  0.00    +0.000 C 
ATOM      2  O   UNL     1       3.912   7.325  16.547  0.00  0.00    +0.000 OA
ATOM      3  N   UNL     1       2.786   7.697  18.498  0.00  0.00    +0.000 N 
ATOM      4  C   UNL     1       2.352   7.290  19.823  0.00  0.00    +0.000 C 
ATOM      5  C   UNL     1       2.048   8.433  20.788  0.00  0.00    +0.000 C 
ATOM      6  N   UNL     1       1.060   9.303  20.142  0.00  0.00    +0.000 N 
ATOM      7  C   UNL     1       1.541   9.892  18.879  0.00  0.00    +0.000 C 
ATOM      8  C   UNL     1       1.989   8.786  17.892  0.00  0.00    +0.000 C 
ENDROOT
BRANCH   1  13
ATOM      9  C   UNL     1       3.466   3.228  18.487  0.00  0.00    +0.000 A 
ATOM     10  N   UNL     1       4.770   3.572  18.696  0.00  0.00    +0.000 N 
ATOM     11  C   UNL     1       4.951   4.923  18.581  0.00  0.00    +0.000 A 
ATOM     12  C   UNL     1       6.228   5.469  19.111  0.00  0.00    +0.000 C 
ATOM     13  C   UNL     1       3.804   5.459  17.984  0.00  0.00    +0.000 A 
ATOM     14  C   UNL     1       2.843   4.356  17.950  0.00  0.00    +0.000 A 
ATOM     15  C   UNL     1       1.426   4.407  17.478  0.00  0.00    +0.000 C 
ATOM     16  H   UNL     1       5.460   2.921  19.048  0.00  0.00    +0.000 HD
BRANCH   9  17
ATOM     17  C   UNL     1       3.029   1.895  18.819  0.00  0.00    +0.000 C 
ATOM     18  O   UNL     1       3.666   0.888  18.535  0.00  0.00    +0.000 OA
BRANCH  17  19
ATOM     19  O   UNL     1       1.847   1.915  19.483  0.00  0.00    +0.000 OA
BRANCH  19  21
ATOM     20  C   UNL     1       1.218   3.610  21.097  0.00  0.00    +0.000 C 
ATOM     21  C   UNL     1       1.905   2.278  20.865  0.00  0.00    +0.000 C 
ENDBRANCH  19  21
ENDBRANCH  17  19
ENDBRANCH   9  17
ENDBRANCH   1  13
BRANCH   6  22
ATOM     22  C   UNL     1       0.097   9.948  20.902  0.00  0.00    +0.000 A 
ATOM     23  C   UNL     1      -0.039   9.644  22.266  0.00  0.00    +0.000 A 
ATOM     24  C   UNL     1      -0.945  10.337  23.081  0.00  0.00    +0.000 A 
ATOM     25  C   UNL     1      -1.729  11.352  22.550  0.00  0.00    +0.000 A 
ATOM     26  C   UNL     1      -1.606  11.671  21.201  0.00  0.00    +0.000 A 
ATOM     27 CL   UNL     1      -2.560  12.938  20.533  0.00  0.00    +0.000 Cl
ATOM     28  C   UNL     1      -0.704  10.980  20.392  0.00  0.00    +0.000 A 
ENDBRANCH   6  22
TORSDOF 5
ENDMDL
MODEL 4
REMARK VINA RESULT:      -7.2      1.913      2.852
REMARK  Name = 
REMARK  8 active torsions:
REMARK  status: ('A' for Active; 'I' for Inactive)
REMARK    1  A    between atoms: C_1  and  C_2
REMARK    2  A    between atoms: C_2  and  O_3
REMARK    3  A    between atoms: O_3  and  C_4
REMARK    4  A    between atoms: C_4  and  C_6
REMARK    5  A    between atoms: C_8  and  C_9
REMARK    6  A    between atoms: C_10  and  C_11
REMARK    7  A    between atoms: N_16  and  C_17
REMARK    8  A    between atoms: C_26  and  C_27
REMARK                            x       y       z     vdW  Elec       q    Type
REMARK                         _______ _______ _______ _____ _____    ______ ____
ROOT
ATOM      1  C   UNL     1       2.994   5.399  19.532  0.00  0.00    +0.000 C 
ATOM      2  O   UNL     1       2.719   4.747  20.540  0.00  0.00    +0.000 OA
ATOM      3  N   UNL     1       2.428   6.671  19.347  0.00  0.00    +0.000 N 
ATOM      4  C   UNL     1       2.614   7.478  18.152  0.00  0.00    +0.000 C 
ATOM      5  C   UNL     1       1.553   8.550  17.920  0.00  0.00    +0.000 C 
ATOM      6  N   UNL     1       1.494   9.381  19.127  0.00  0.00    +0.000 N 
ATOM      7  C   UNL     1       1.117   8.625  20.335  0.00  0.00    +0.000 C 
ATOM      8  C   UNL     1       2.084   7.436  20.564  0.00  0.00    +0.000 C 
ENDROOT
BRANCH   1  13
ATOM      9  C   UNL     1       5.769   4.601  17.144  0.00  0.00    +0.000 A 
ATOM     10  N   UNL     1       4.826   3.665  16.833  0.00  0.00    +0.000 N 
ATOM     11  C   UNL     1       3.657   3.899  17.505  0.00  0.00    +0.000 A 
ATOM     12  C   UNL     1       2.454   3.175  17.014  0.00  0.00    +0.000 C 
ATOM     13  C   UNL     1       3.922   4.832  18.513  0.00  0.00    +0.000 A 
ATOM     14  C   UNL     1       5.285   5.295  18.254  0.00  0.00    +0.000 A 
ATOM     15  C   UNL     1       6.036   6.353  18.994  0.00  0.00    +0.000 C 
ATOM     16  H   UNL     1       4.942   2.996  16.084  0.00  0.00    +0.000 HD
BRANCH   9  17
ATOM     17  C   UNL     1       6.970   4.679  16.348  0.00  0.00    +0.000 C 
ATOM     18  O   UNL     1       8.020   4.133  16.662  0.00  0.00    +0.000 OA
BRANCH  17  19
ATOM     19  O   UNL     1       6.772   5.416  15.228  0.00  0.00    +0.000 OA
BRANCH  19  21
ATOM     20  C   UNL     1       6.111   3.807  13.541  0.00  0.00    +0.000 C 
ATOM     21  C   UNL     1       7.158   4.805  13.993  0.00  0.00    +0.000 C 
ENDBRANCH  19  21
ENDBRANCH  17  19
ENDBRANCH   9  17
ENDBRANCH   1  13
BRANCH   6  22
ATOM     22  C   UNL     1       1.224  10.736  19.027  0.00  0.00    +0.000 A 
ATOM     23  C   UNL     1       2.111  11.579  18.339  0.00  0.00    +0.000 A 
ATOM     24  C   UNL     1       1.827  12.938  18.148  0.00  0.00    +0.000 A 
ATOM     25  C   UNL     1       0.645  13.480  18.635  0.00  0.00    +0.000 A 
ATOM     26  C   UNL     1      -0.251  12.661  19.315  0.00  0.00    +0.000 A 
ATOM     27 CL   UNL     1      -1.726  13.316  19.909  0.00  0.00    +0.000 Cl
ATOM     28  C   UNL     1       0.036  11.308  19.504  0.00  0.00    +0.000 A 
ENDBRANCH   6  22
TORSDOF 5
ENDMDL
MODEL 5
REMARK VINA RESULT:      -7.2      5.036      8.889
REMARK  Name = 
REMARK  8 active torsions:
REMARK  status: ('A' for Active; 'I' for Inactive)
REMARK    1  A    between atoms: C_1  and  C_2
REMARK    2  A    between atoms: C_2  and  O_3
REMARK    3  A    between atoms: O_3  and  C_4
REMARK    4  A    between atoms: C_4  and  C_6
REMARK    5  A    between atoms: C_8  and  C_9
REMARK    6  A    between atoms: C_10  and  C_11
REMARK    7  A    between atoms: N_16  and  C_17
REMARK    8  A    between atoms: C_26  and  C_27
REMARK                            x       y       z     vdW  Elec       q    Type
REMARK                         _______ _______ _______ _____ _____    ______ ____
ROOT
ATOM      1  C   UNL     1      -0.007  10.264  19.914  0.00  0.00    +0.000 C 
ATOM      2  O   UNL     1      -0.106  10.486  21.122  0.00  0.00    +0.000 OA
ATOM      3  N   UNL     1       0.893   9.288  19.454  0.00  0.00    +0.000 N 
ATOM      4  C   UNL     1       1.151   9.018  18.050  0.00  0.00    +0.000 C 
ATOM      5  C   UNL     1       2.477   8.322  17.755  0.00  0.00    +0.000 C 
ATOM      6  N   UNL     1       2.519   7.095  18.557  0.00  0.00    +0.000 N 
ATOM      7  C   UNL     1       2.452   7.346  20.008  0.00  0.00    +0.000 C 
ATOM      8  C   UNL     1       1.186   8.163  20.367  0.00  0.00    +0.000 C 
ENDROOT
BRANCH   1  13
ATOM      9  C   UNL     1      -2.453  11.511  17.364  0.00  0.00    +0.000 A 
ATOM     10  N   UNL     1      -1.642  12.591  17.557  0.00  0.00    +0.000 N 
ATOM     11  C   UNL     1      -0.575  12.273  18.353  0.00  0.00    +0.000 A 
ATOM     12  C   UNL     1       0.553  13.242  18.367  0.00  0.00    +0.000 C 
ATOM     13  C   UNL     1      -0.839  11.035  18.949  0.00  0.00    +0.000 A 
ATOM     14  C   UNL     1      -2.046  10.543  18.284  0.00  0.00    +0.000 A 
ATOM     15  C   UNL     1      -2.718   9.225  18.492  0.00  0.00    +0.000 C 
ATOM     16  H   UNL     1      -1.746  13.455  17.042  0.00  0.00    +0.000 HD
BRANCH   9  17
ATOM     17  C   UNL     1      -3.479  11.575  16.352  0.00  0.00    +0.000 C 
ATOM     18  O   UNL     1      -4.647  11.850  16.596  0.00  0.00    +0.000 OA
BRANCH  17  19
ATOM     19  O   UNL     1      -2.977  11.302  15.123  0.00  0.00    +0.000 OA
BRANCH  19  21
ATOM     20  C   UNL     1      -3.764   9.895  13.314  0.00  0.00    +0.000 C 
ATOM     21  C   UNL     1      -3.102   9.948  14.676  0.00  0.00    +0.000 C 
ENDBRANCH  19  21
ENDBRANCH  17  19
ENDBRANCH   9  17
ENDBRANCH   1  13
BRANCH   6  22
ATOM     22  C   UNL     1       3.144   5.961  18.063  0.00  0.00    +0.000 A 
ATOM     23  C   UNL     1       2.410   4.778  17.883  0.00  0.00    +0.000 A 
ATOM     24  C   UNL     1       2.990   3.639  17.307  0.00  0.00    +0.000 A 
ATOM     25  C   UNL     1       4.315   3.663  16.893  0.00  0.00    +0.000 A 
ATOM     26  C   UNL     1       5.059   4.828  17.058  0.00  0.00    +0.000 A 
ATOM     27 CL   UNL     1       6.696   4.876  16.535  0.00  0.00    +0.000 Cl
ATOM     28  C   UNL     1       4.478   5.959  17.632  0.00  0.00    +0.000 A 
ENDBRANCH   6  22
TORSDOF 5
ENDMDL
MODEL 6
REMARK VINA RESULT:      -7.2      2.227      3.097
REMARK  Name = 
REMARK  8 active torsions:
REMARK  status: ('A' for Active; 'I' for Inactive)
REMARK    1  A    between atoms: C_1  and  C_2
REMARK    2  A    between atoms: C_2  and  O_3
REMARK    3  A    between atoms: O_3  and  C_4
REMARK    4  A    between atoms: C_4  and  C_6
REMARK    5  A    between atoms: C_8  and  C_9
REMARK    6  A    between atoms: C_10  and  C_11
REMARK    7  A    between atoms: N_16  and  C_17
REMARK    8  A    between atoms: C_26  and  C_27
REMARK                            x       y       z     vdW  Elec       q    Type
REMARK                         _______ _______ _______ _____ _____    ______ ____
ROOT
ATOM      1  C   UNL     1       2.961   5.466  19.492  0.00  0.00    +0.000 C 
ATOM      2  O   UNL     1       2.765   4.892  20.564  0.00  0.00    +0.000 OA
ATOM      3  N   UNL     1       2.375   6.720  19.252  0.00  0.00    +0.000 N 
ATOM      4  C   UNL     1       2.470   7.433  17.990  0.00  0.00    +0.000 C 
ATOM      5  C   UNL     1       1.388   8.484  17.754  0.00  0.00    +0.000 C 
ATOM      6  N   UNL     1       1.411   9.404  18.896  0.00  0.00    +0.000 N 
ATOM      7  C   UNL     1       1.127   8.742  20.182  0.00  0.00    +0.000 C 
ATOM      8  C   UNL     1       2.116   7.575  20.430  0.00  0.00    +0.000 C 
ENDROOT
BRANCH   1  13
ATOM      9  C   UNL     1       5.488   4.542  16.883  0.00  0.00    +0.000 A 
ATOM     10  N   UNL     1       4.640   3.472  16.874  0.00  0.00    +0.000 N 
ATOM     11  C   UNL     1       3.547   3.701  17.664  0.00  0.00    +0.000 A 
ATOM     12  C   UNL     1       2.394   2.780  17.483  0.00  0.00    +0.000 C 
ATOM     13  C   UNL     1       3.817   4.824  18.455  0.00  0.00    +0.000 A 
ATOM     14  C   UNL     1       5.065   5.371  17.923  0.00  0.00    +0.000 A 
ATOM     15  C   UNL     1       5.763   6.618  18.360  0.00  0.00    +0.000 C 
ATOM     16  H   UNL     1       4.745   2.694  16.236  0.00  0.00    +0.000 HD
BRANCH   9  17
ATOM     17  C   UNL     1       6.557   4.599  15.917  0.00  0.00    +0.000 C 
ATOM     18  O   UNL     1       7.738   4.466  16.213  0.00  0.00    +0.000 OA
BRANCH  17  19
ATOM     19  O   UNL     1       6.080   4.806  14.665  0.00  0.00    +0.000 OA
BRANCH  19  21
ATOM     20  C   UNL     1       6.091   3.474  12.641  0.00  0.00    +0.000 C 
ATOM     21  C   UNL     1       6.899   4.335  13.591  0.00  0.00    +0.000 C 
ENDBRANCH  19  21
ENDBRANCH  17  19
ENDBRANCH   9  17
ENDBRANCH   1  13
BRANCH   6  22
ATOM     22  C   UNL     1       1.126  10.748  18.713  0.00  0.00    +0.000 A 
ATOM     23  C   UNL     1      -0.190  11.212  18.864  0.00  0.00    +0.000 A 
ATOM     24  C   UNL     1      -0.499  12.576  18.768  0.00  0.00    +0.000 A 
ATOM     25  C   UNL     1       0.505  13.505  18.527  0.00  0.00    +0.000 A 
ATOM     26  C   UNL     1       1.818  13.065  18.379  0.00  0.00    +0.000 A 
ATOM     27 CL   UNL     1       3.073  14.206  18.096  0.00  0.00    +0.000 Cl
ATOM     28  C   UNL     1       2.121  11.707  18.474  0.00  0.00    +0.000 A 
ENDBRANCH   6  22
TORSDOF 5
ENDMDL
MODEL 7
REMARK VINA RESULT:      -7.1      3.214      4.721
REMARK  Name = 
REMARK  8 active torsions:
REMARK  status: ('A' for Active; 'I' for Inactive)
REMARK    1  A    between atoms: C_1  and  C_2
REMARK    2  A    between atoms: C_2  and  O_3
REMARK    3  A    between atoms: O_3  and  C_4
REMARK    4  A    between atoms: C_4  and  C_6
REMARK    5  A    between atoms: C_8  and  C_9
REMARK    6  A    between atoms: C_10  and  C_11
REMARK    7  A    between atoms: N_16  and  C_17
REMARK    8  A    between atoms: C_26  and  C_27
REMARK                            x       y       z     vdW  Elec       q    Type
REMARK                         _______ _______ _______ _____ _____    ______ ____
ROOT
ATOM      1  C   UNL     1       4.126   6.790  17.538  0.00  0.00    +0.000 C 
ATOM      2  O   UNL     1       4.765   7.119  16.537  0.00  0.00    +0.000 OA
ATOM      3  N   UNL     1       3.215   7.691  18.113  0.00  0.00    +0.000 N 
ATOM      4  C   UNL     1       2.485   7.435  19.343  0.00  0.00    +0.000 C 
ATOM      5  C   UNL     1       1.963   8.677  20.060  0.00  0.00    +0.000 C 
ATOM      6  N   UNL     1       1.151   9.432  19.099  0.00  0.00    +0.000 N 
ATOM      7  C   UNL     1       1.913   9.877  17.918  0.00  0.00    +0.000 C 
ATOM      8  C   UNL     1       2.580   8.673  17.208  0.00  0.00    +0.000 C 
ENDROOT
BRANCH   1  13
ATOM      9  C   UNL     1       3.851   3.339  18.972  0.00  0.00    +0.000 A 
ATOM     10  N   UNL     1       5.166   3.646  19.174  0.00  0.00    +0.000 N 
ATOM     11  C   UNL     1       5.425   4.950  18.850  0.00  0.00    +0.000 A 
ATOM     12  C   UNL     1       6.715   5.509  19.336  0.00  0.00    +0.000 C 
ATOM     13  C   UNL     1       4.328   5.440  18.133  0.00  0.00    +0.000 A 
ATOM     14  C   UNL     1       3.308   4.396  18.239  0.00  0.00    +0.000 A 
ATOM     15  C   UNL     1       1.911   4.441  17.711  0.00  0.00    +0.000 C 
ATOM     16  H   UNL     1       5.807   3.026  19.651  0.00  0.00    +0.000 HD
BRANCH   9  17
ATOM     17  C   UNL     1       3.330   2.101  19.496  0.00  0.00    +0.000 C 
ATOM     18  O   UNL     1       2.927   1.188  18.787  0.00  0.00    +0.000 OA
BRANCH  17  19
ATOM     19  O   UNL     1       3.357   2.089  20.851  0.00  0.00    +0.000 OA
BRANCH  19  21
ATOM     20  C   UNL     1       1.073   2.881  21.025  0.00  0.00    +0.000 C 
ATOM     21  C   UNL     1       2.502   3.029  21.509  0.00  0.00    +0.000 C 
ENDBRANCH  19  21
ENDBRANCH  17  19
ENDBRANCH   9  17
ENDBRANCH   1  13
BRANCH   6  22
ATOM     22  C   UNL     1       0.037  10.134  19.529  0.00  0.00    +0.000 A 
ATOM     23  C   UNL     1      -0.000  10.661  20.830  0.00  0.00    +0.000 A 
ATOM     24  C   UNL     1      -1.075  11.447  21.269  0.00  0.00    +0.000 A 
ATOM     25  C   UNL     1      -2.131  11.727  20.412  0.00  0.00    +0.000 A 
ATOM     26  C   UNL     1      -2.111  11.218  19.117  0.00  0.00    +0.000 A 
ATOM     27 CL   UNL     1      -3.405  11.572  18.040  0.00  0.00    +0.000 Cl
ATOM     28  C   UNL     1      -1.040  10.436  18.684  0.00  0.00    +0.000 A 
ENDBRANCH   6  22
TORSDOF 5
ENDMDL
MODEL 8
REMARK VINA RESULT:      -7.1      4.977      8.849
REMARK  Name = 
REMARK  8 active torsions:
REMARK  status: ('A' for Active; 'I' for Inactive)
REMARK    1  A    between atoms: C_1  and  C_2
REMARK    2  A    between atoms: C_2  and  O_3
REMARK    3  A    between atoms: O_3  and  C_4
REMARK    4  A    between atoms: C_4  and  C_6
REMARK    5  A    between atoms: C_8  and  C_9
REMARK    6  A    between atoms: C_10  and  C_11
REMARK    7  A    between atoms: N_16  and  C_17
REMARK    8  A    between atoms: C_26  and  C_27
REMARK                            x       y       z     vdW  Elec       q    Type
REMARK                         _______ _______ _______ _____ _____    ______ ____
ROOT
ATOM      1  C   UNL     1      -0.054  10.225  19.850  0.00  0.00    +0.000 C 
ATOM      2  O   UNL     1      -0.152  10.414  21.064  0.00  0.00    +0.000 OA
ATOM      3  N   UNL     1       0.854   9.272  19.362  0.00  0.00    +0.000 N 
ATOM      4  C   UNL     1       1.110   9.041  17.950  0.00  0.00    +0.000 C 
ATOM      5  C   UNL     1       2.443   8.369  17.633  0.00  0.00    +0.000 C 
ATOM      6  N   UNL     1       2.501   7.121  18.401  0.00  0.00    +0.000 N 
ATOM      7  C   UNL     1       2.437   7.332  19.859  0.00  0.00    +0.000 C 
ATOM      8  C   UNL     1       1.163   8.125  20.243  0.00  0.00    +0.000 C 
ENDROOT
BRANCH   1  13
ATOM      9  C   UNL     1      -2.524  11.512  17.342  0.00  0.00    +0.000 A 
ATOM     10  N   UNL     1      -1.722  12.595  17.561  0.00  0.00    +0.000 N 
ATOM     11  C   UNL     1      -0.649  12.267  18.344  0.00  0.00    +0.000 A 
ATOM     12  C   UNL     1       0.469  13.247  18.379  0.00  0.00    +0.000 C 
ATOM     13  C   UNL     1      -0.899  11.012  18.909  0.00  0.00    +0.000 A 
ATOM     14  C   UNL     1      -2.103  10.525  18.235  0.00  0.00    +0.000 A 
ATOM     15  C   UNL     1      -2.761   9.196  18.412  0.00  0.00    +0.000 C 
ATOM     16  H   UNL     1      -1.838  13.471  17.068  0.00  0.00    +0.000 HD
BRANCH   9  17
ATOM     17  C   UNL     1      -3.554  11.592  16.336  0.00  0.00    +0.000 C 
ATOM     18  O   UNL     1      -4.698  11.955  16.574  0.00  0.00    +0.000 OA
BRANCH  17  19
ATOM     19  O   UNL     1      -3.084  11.224  15.120  0.00  0.00    +0.000 OA
BRANCH  19  21
ATOM     20  C   UNL     1      -2.979   9.674  13.259  0.00  0.00    +0.000 C 
ATOM     21  C   UNL     1      -3.722  10.097  14.510  0.00  0.00    +0.000 C 
ENDBRANCH  19  21
ENDBRANCH  17  19
ENDBRANCH   9  17
ENDBRANCH   1  13
BRANCH   6  22
ATOM     22  C   UNL     1       3.137   6.008  17.875  0.00  0.00    +0.000 A 
ATOM     23  C   UNL     1       4.390   6.143  17.256  0.00  0.00    +0.000 A 
ATOM     24  C   UNL     1       5.097   5.027  16.788  0.00  0.00    +0.000 A 
ATOM     25  C   UNL     1       4.568   3.751  16.936  0.00  0.00    +0.000 A 
ATOM     26  C   UNL     1       3.329   3.595  17.551  0.00  0.00    +0.000 A 
ATOM     27 CL   UNL     1       2.670   2.020  17.756  0.00  0.00    +0.000 Cl
ATOM     28  C   UNL     1       2.628   4.709  18.015  0.00  0.00    +0.000 A 
ENDBRANCH   6  22
TORSDOF 5
ENDMDL
MODEL 9
REMARK VINA RESULT:      -6.9      4.278      8.564
REMARK  Name = 
REMARK  8 active torsions:
REMARK  status: ('A' for Active; 'I' for Inactive)
REMARK    1  A    between atoms: C_1  and  C_2
REMARK    2  A    between atoms: C_2  and  O_3
REMARK    3  A    between atoms: O_3  and  C_4
REMARK    4  A    between atoms: C_4  and  C_6
REMARK    5  A    between atoms: C_8  and  C_9
REMARK    6  A    between atoms: C_10  and  C_11
REMARK    7  A    between atoms: N_16  and  C_17
REMARK    8  A    between atoms: C_26  and  C_27
REMARK                            x       y       z     vdW  Elec       q    Type
REMARK                         _______ _______ _______ _____ _____    ______ ____
ROOT
ATOM      1  C   UNL     1       5.627   5.038  19.024  0.00  0.00    +0.000 C 
ATOM      2  O   UNL     1       6.647   5.304  19.663  0.00  0.00    +0.000 OA
ATOM      3  N   UNL     1       5.694   4.901  17.628  0.00  0.00    +0.000 N 
ATOM      4  C   UNL     1       4.536   4.681  16.777  0.00  0.00    +0.000 C 
ATOM      5  C   UNL     1       4.726   5.061  15.311  0.00  0.00    +0.000 C 
ATOM      6  N   UNL     1       5.903   4.338  14.817  0.00  0.00    +0.000 N 
ATOM      7  C   UNL     1       7.141   4.682  15.538  0.00  0.00    +0.000 C 
ATOM      8  C   UNL     1       6.978   4.439  17.059  0.00  0.00    +0.000 C 
ENDROOT
BRANCH   1  13
ATOM      9  C   UNL     1       2.517   3.843  20.739  0.00  0.00    +0.000 A 
ATOM     10  N   UNL     1       2.313   5.190  20.649  0.00  0.00    +0.000 N 
ATOM     11  C   UNL     1       3.289   5.788  19.899  0.00  0.00    +0.000 A 
ATOM     12  C   UNL     1       3.012   7.175  19.437  0.00  0.00    +0.000 C 
ATOM     13  C   UNL     1       4.331   4.869  19.737  0.00  0.00    +0.000 A 
ATOM     14  C   UNL     1       3.809   3.608  20.266  0.00  0.00    +0.000 A 
ATOM     15  C   UNL     1       4.491   2.279  20.268  0.00  0.00    +0.000 C 
ATOM     16  H   UNL     1       1.463   5.639  20.963  0.00  0.00    +0.000 HD
BRANCH   9  17
ATOM     17  C   UNL     1       1.465   3.007  21.262  0.00  0.00    +0.000 C 
ATOM     18  O   UNL     1       1.510   2.484  22.369  0.00  0.00    +0.000 OA
BRANCH  17  19
ATOM     19  O   UNL     1       0.442   2.892  20.381  0.00  0.00    +0.000 OA
BRANCH  19  21
ATOM     20  C   UNL     1       0.985   3.311  18.056  0.00  0.00    +0.000 C 
ATOM     21  C   UNL     1       0.751   2.268  19.131  0.00  0.00    +0.000 C 
ENDBRANCH  19  21
ENDBRANCH  17  19
ENDBRANCH   9  17
ENDBRANCH   1  13
BRANCH   6  22
ATOM     22  C   UNL     1       5.947   3.893  13.506  0.00  0.00    +0.000 A 
ATOM     23  C   UNL     1       7.175   3.537  12.927  0.00  0.00    +0.000 A 
ATOM     24  C   UNL     1       7.246   3.006  11.631  0.00  0.00    +0.000 A 
ATOM     25  C   UNL     1       6.086   2.813  10.892  0.00  0.00    +0.000 A 
ATOM     26  C   UNL     1       4.858   3.154  11.449  0.00  0.00    +0.000 A 
ATOM     27 CL   UNL     1       3.413   2.905  10.549  0.00  0.00    +0.000 Cl
ATOM     28  C   UNL     1       4.792   3.684  12.738  0.00  0.00    +0.000 A 
ENDBRANCH   6  22
TORSDOF 5
ENDMDL
