MODEL 1
REMARK VINA RESULT:      -8.8      0.000      0.000
REMARK  Name = 
REMARK  4 active torsions:
REMARK  status: ('A' for Active; 'I' for Inactive)
REMARK    1  A    between atoms: C_1  and  N_2
REMARK    2  A    between atoms: C_4  and  C_5
REMARK    3  A    between atoms: C_5  and  N_6
REMARK    4  A    between atoms: C_11  and  C_12
REMARK                            x       y       z     vdW  Elec       q    Type
REMARK                         _______ _______ _______ _____ _____    ______ ____
ROOT
ATOM      1  N   UNL     1       4.701   3.200  18.419  0.00  0.00    +0.000 N 
ATOM      2  C   UNL     1       3.701   3.768  19.227  0.00  0.00    +0.000 A 
ATOM      3  C   UNL     1       3.240   3.011  20.302  0.00  0.00    +0.000 A 
ATOM      4  C   UNL     1       2.297   3.551  21.163  0.00  0.00    +0.000 A 
ATOM      5  C   UNL     1       1.876   4.857  20.959  0.00  0.00    +0.000 A 
ATOM      6  C   UNL     1       2.401   5.583  19.888  0.00  0.00    +0.000 A 
ATOM      7  N   UNL     1       3.298   5.038  19.025  0.00  0.00    +0.000 NA
ATOM      8  H   UNL     1       5.585   3.342  18.894  0.00  0.00    +0.000 HD
ENDROOT
BRANCH   6   9
ATOM      9  C   UNL     1       2.065   7.005  19.681  0.00  0.00    +0.000 A 
ATOM     10  C   UNL     1       2.281   7.635  18.439  0.00  0.00    +0.000 A 
ATOM     11  C   UNL     1       1.866   8.948  18.204  0.00  0.00    +0.000 A 
ATOM     12  C   UNL     1       1.239   9.665  19.216  0.00  0.00    +0.000 A 
ATOM     13  C   UNL     1       1.028   9.074  20.462  0.00  0.00    +0.000 A 
ATOM     14  C   UNL     1       1.456   7.764  20.699  0.00  0.00    +0.000 A 
ATOM     15  O   UNL     1       0.398   9.717  21.498  0.00  0.00    +0.000 OA
ATOM     16  C   UNL     1      -0.321  10.867  21.037  0.00  0.00    +0.000 C 
ATOM     17  C   UNL     1       0.526  11.689  20.081  0.00  0.00    +0.000 C 
ATOM     18  O   UNL     1       0.845  10.941  18.904  0.00  0.00    +0.000 OA
ENDBRANCH   6   9
BRANCH   1  19
ATOM     19  C   UNL     1       4.756   3.744  17.062  0.00  0.00    +0.000 C 
BRANCH  19  23
ATOM     20  C   UNL     1       7.753   7.754  17.550  0.00  0.00    +0.000 C 
ATOM     21  N   UNL     1       7.126   6.539  17.093  0.00  0.00    +0.000 N 
ATOM     22  C   UNL     1       6.107   5.863  17.697  0.00  0.00    +0.000 A 
ATOM     23  C   UNL     1       5.810   4.789  16.879  0.00  0.00    +0.000 A 
ATOM     24  C   UNL     1       6.736   4.909  15.817  0.00  0.00    +0.000 A 
ATOM     25  N   UNL     1       7.534   5.971  15.945  0.00  0.00    +0.000 NA
ENDBRANCH  19  23
ENDBRANCH   1  19
TORSDOF 3
ENDMDL
MODEL 2
REMARK VINA RESULT:      -8.7      1.366      1.905
REMARK  Name = 
REMARK  4 active torsions:
REMARK  status: ('A' for Active; 'I' for Inactive)
REMARK    1  A    between atoms: C_1  and  N_2
REMARK    2  A    between atoms: C_4  and  C_5
REMARK    3  A    between atoms: C_5  and  N_6
REMARK    4  A    between atoms: C_11  and  C_12
REMARK                            x       y       z     vdW  Elec       q    Type
REMARK                         _______ _______ _______ _____ _____    ______ ____
ROOT
ATOM      1  N   UNL     1       5.713   3.621  18.767  0.00  0.00    +0.000 N 
ATOM      2  C   UNL     1       4.344   3.938  18.746  0.00  0.00    +0.000 A 
ATOM      3  C   UNL     1       3.442   2.877  18.713  0.00  0.00    +0.000 A 
ATOM      4  C   UNL     1       2.081   3.137  18.750  0.00  0.00    +0.000 A 
ATOM      5  C   UNL     1       1.654   4.451  18.874  0.00  0.00    +0.000 A 
ATOM      6  C   UNL     1       2.604   5.472  18.943  0.00  0.00    +0.000 A 
ATOM      7  N   UNL     1       3.937   5.217  18.869  0.00  0.00    +0.000 NA
ATOM      8  H   UNL     1       5.951   3.392  19.725  0.00  0.00    +0.000 HD
ENDROOT
BRANCH   6   9
ATOM      9  C   UNL     1       2.212   6.876  19.173  0.00  0.00    +0.000 A 
ATOM     10  C   UNL     1       2.206   7.817  18.124  0.00  0.00    +0.000 A 
ATOM     11  C   UNL     1       1.734   9.118  18.311  0.00  0.00    +0.000 A 
ATOM     12  C   UNL     1       1.273   9.511  19.561  0.00  0.00    +0.000 A 
ATOM     13  C   UNL     1       1.284   8.608  20.625  0.00  0.00    +0.000 A 
ATOM     14  C   UNL     1       1.769   7.310  20.437  0.00  0.00    +0.000 A 
ATOM     15  O   UNL     1       0.825   8.923  21.879  0.00  0.00    +0.000 OA
ATOM     16  C   UNL     1       0.018  10.106  21.856  0.00  0.00    +0.000 C 
ATOM     17  C   UNL     1       0.679  11.197  21.030  0.00  0.00    +0.000 C 
ATOM     18  O   UNL     1       0.809  10.798  19.662  0.00  0.00    +0.000 OA
ENDBRANCH   6   9
BRANCH   1  19
ATOM     19  C   UNL     1       6.583   4.684  18.264  0.00  0.00    +0.000 C 
BRANCH  19  23
ATOM     20  C   UNL     1       6.210   3.683  13.348  0.00  0.00    +0.000 C 
ATOM     21  N   UNL     1       6.516   4.286  14.621  0.00  0.00    +0.000 N 
ATOM     22  C   UNL     1       6.114   3.857  15.852  0.00  0.00    +0.000 A 
ATOM     23  C   UNL     1       6.683   4.718  16.772  0.00  0.00    +0.000 A 
ATOM     24  C   UNL     1       7.391   5.645  15.972  0.00  0.00    +0.000 A 
ATOM     25  N   UNL     1       7.293   5.383  14.668  0.00  0.00    +0.000 NA
ENDBRANCH  19  23
ENDBRANCH   1  19
TORSDOF 3
ENDMDL
MODEL 3
REMARK VINA RESULT:      -8.7      1.044      1.459
REMARK  Name = 
REMARK  4 active torsions:
REMARK  status: ('A' for Active; 'I' for Inactive)
REMARK    1  A    between atoms: C_1  and  N_2
REMARK    2  A    between atoms: C_4  and  C_5
REMARK    3  A    between atoms: C_5  and  N_6
REMARK    4  A    between atoms: C_11  and  C_12
REMARK                            x       y       z     vdW  Elec       q    Type
REMARK                         _______ _______ _______ _____ _____    ______ ____
ROOT
ATOM      1  N   UNL     1       4.419   3.097  17.972  0.00  0.00    +0.000 N 
ATOM      2  C   UNL     1       3.600   3.741  18.916  0.00  0.00    +0.000 A 
ATOM      3  C   UNL     1       3.333   3.061  20.101  0.00  0.00    +0.000 A 
ATOM      4  C   UNL     1       2.579   3.678  21.087  0.00  0.00    +0.000 A 
ATOM      5  C   UNL     1       2.156   4.983  20.886  0.00  0.00    +0.000 A 
ATOM      6  C   UNL     1       2.487   5.631  19.695  0.00  0.00    +0.000 A 
ATOM      7  N   UNL     1       3.195   5.010  18.715  0.00  0.00    +0.000 NA
ATOM      8  H   UNL     1       5.379   3.236  18.265  0.00  0.00    +0.000 HD
ENDROOT
BRANCH   6   9
ATOM      9  C   UNL     1       2.149   7.050  19.468  0.00  0.00    +0.000 A 
ATOM     10  C   UNL     1       2.349   7.659  18.213  0.00  0.00    +0.000 A 
ATOM     11  C   UNL     1       1.932   8.967  17.961  0.00  0.00    +0.000 A 
ATOM     12  C   UNL     1       1.319   9.703  18.968  0.00  0.00    +0.000 A 
ATOM     13  C   UNL     1       1.124   9.133  20.228  0.00  0.00    +0.000 A 
ATOM     14  C   UNL     1       1.554   7.827  20.481  0.00  0.00    +0.000 A 
ATOM     15  O   UNL     1       0.508   9.794  21.260  0.00  0.00    +0.000 OA
ATOM     16  C   UNL     1      -0.217  10.936  20.789  0.00  0.00    +0.000 C 
ATOM     17  C   UNL     1       0.618  11.741  19.808  0.00  0.00    +0.000 C 
ATOM     18  O   UNL     1       0.921  10.973  18.639  0.00  0.00    +0.000 OA
ENDBRANCH   6   9
BRANCH   1  19
ATOM     19  C   UNL     1       4.231   3.562  16.598  0.00  0.00    +0.000 C 
BRANCH  19  23
ATOM     20  C   UNL     1       7.750   5.147  13.371  0.00  0.00    +0.000 C 
ATOM     21  N   UNL     1       7.019   4.793  14.562  0.00  0.00    +0.000 N 
ATOM     22  C   UNL     1       5.734   4.341  14.635  0.00  0.00    +0.000 A 
ATOM     23  C   UNL     1       5.480   4.095  15.971  0.00  0.00    +0.000 A 
ATOM     24  C   UNL     1       6.685   4.459  16.615  0.00  0.00    +0.000 A 
ATOM     25  N   UNL     1       7.620   4.882  15.762  0.00  0.00    +0.000 NA
ENDBRANCH  19  23
ENDBRANCH   1  19
TORSDOF 3
ENDMDL
MODEL 4
REMARK VINA RESULT:      -8.6      0.989      1.300
REMARK  Name = 
REMARK  4 active torsions:
REMARK  status: ('A' for Active; 'I' for Inactive)
REMARK    1  A    between atoms: C_1  and  N_2
REMARK    2  A    between atoms: C_4  and  C_5
REMARK    3  A    between atoms: C_5  and  N_6
REMARK    4  A    between atoms: C_11  and  C_12
REMARK                            x       y       z     vdW  Elec       q    Type
REMARK                         _______ _______ _______ _____ _____    ______ ____
ROOT
ATOM      1  N   UNL     1       5.690   3.801  18.733  0.00  0.00    +0.000 N 
ATOM      2  C   UNL     1       4.409   4.117  19.219  0.00  0.00    +0.000 A 
ATOM      3  C   UNL     1       3.747   3.142  19.962  0.00  0.00    +0.000 A 
ATOM      4  C   UNL     1       2.507   3.427  20.512  0.00  0.00    +0.000 A 
ATOM      5  C   UNL     1       1.982   4.701  20.352  0.00  0.00    +0.000 A 
ATOM      6  C   UNL     1       2.707   5.651  19.632  0.00  0.00    +0.000 A 
ATOM      7  N   UNL     1       3.905   5.357  19.062  0.00  0.00    +0.000 NA
ATOM      8  H   UNL     1       6.341   3.943  19.496  0.00  0.00    +0.000 HD
ENDROOT
BRANCH   6   9
ATOM      9  C   UNL     1       2.244   7.048  19.513  0.00  0.00    +0.000 A 
ATOM     10  C   UNL     1       2.327   7.746  18.292  0.00  0.00    +0.000 A 
ATOM     11  C   UNL     1       1.793   9.028  18.145  0.00  0.00    +0.000 A 
ATOM     12  C   UNL     1       1.178   9.647  19.226  0.00  0.00    +0.000 A 
ATOM     13  C   UNL     1       1.097   8.989  20.454  0.00  0.00    +0.000 A 
ATOM     14  C   UNL     1       1.644   7.710  20.601  0.00  0.00    +0.000 A 
ATOM     15  O   UNL     1       0.487   9.533  21.556  0.00  0.00    +0.000 OA
ATOM     16  C   UNL     1      -0.352  10.637  21.195  0.00  0.00    +0.000 C 
ATOM     17  C   UNL     1       0.362  11.566  20.228  0.00  0.00    +0.000 C 
ATOM     18  O   UNL     1       0.662  10.898  18.999  0.00  0.00    +0.000 OA
ENDBRANCH   6   9
BRANCH   1  19
ATOM     19  C   UNL     1       6.095   4.578  17.562  0.00  0.00    +0.000 C 
BRANCH  19  23
ATOM     20  C   UNL     1       8.144   9.171  17.636  0.00  0.00    +0.000 C 
ATOM     21  N   UNL     1       7.783   7.808  17.938  0.00  0.00    +0.000 N 
ATOM     22  C   UNL     1       6.863   7.039  17.290  0.00  0.00    +0.000 A 
ATOM     23  C   UNL     1       6.890   5.799  17.900  0.00  0.00    +0.000 A 
ATOM     24  C   UNL     1       7.855   5.948  18.923  0.00  0.00    +0.000 A 
ATOM     25  N   UNL     1       8.399   7.166  18.946  0.00  0.00    +0.000 NA
ENDBRANCH  19  23
ENDBRANCH   1  19
TORSDOF 3
ENDMDL
MODEL 5
REMARK VINA RESULT:      -8.6      1.264      2.051
REMARK  Name = 
REMARK  4 active torsions:
REMARK  status: ('A' for Active; 'I' for Inactive)
REMARK    1  A    between atoms: C_1  and  N_2
REMARK    2  A    between atoms: C_4  and  C_5
REMARK    3  A    between atoms: C_5  and  N_6
REMARK    4  A    between atoms: C_11  and  C_12
REMARK                            x       y       z     vdW  Elec       q    Type
REMARK                         _______ _______ _______ _____ _____    ______ ____
ROOT
ATOM      1  N   UNL     1       5.782   3.626  18.664  0.00  0.00    +0.000 N 
ATOM      2  C   UNL     1       4.512   3.813  19.238  0.00  0.00    +0.000 A 
ATOM      3  C   UNL     1       3.970   2.749  19.954  0.00  0.00    +0.000 A 
ATOM      4  C   UNL     1       2.747   2.905  20.588  0.00  0.00    +0.000 A 
ATOM      5  C   UNL     1       2.121   4.142  20.536  0.00  0.00    +0.000 A 
ATOM      6  C   UNL     1       2.729   5.185  19.837  0.00  0.00    +0.000 A 
ATOM      7  N   UNL     1       3.910   5.018  19.185  0.00  0.00    +0.000 NA
ATOM      8  H   UNL     1       6.465   3.774  19.397  0.00  0.00    +0.000 HD
ENDROOT
BRANCH   6   9
ATOM      9  C   UNL     1       2.158   6.546  19.830  0.00  0.00    +0.000 A 
ATOM     10  C   UNL     1       1.480   7.062  20.952  0.00  0.00    +0.000 A 
ATOM     11  C   UNL     1       1.032   8.384  20.993  0.00  0.00    +0.000 A 
ATOM     12  C   UNL     1       1.240   9.216  19.899  0.00  0.00    +0.000 A 
ATOM     13  C   UNL     1       1.892   8.729  18.765  0.00  0.00    +0.000 A 
ATOM     14  C   UNL     1       2.327   7.401  18.724  0.00  0.00    +0.000 A 
ATOM     15  O   UNL     1       2.148   9.500  17.660  0.00  0.00    +0.000 OA
ATOM     16  C   UNL     1       2.015  10.896  17.957  0.00  0.00    +0.000 C 
ATOM     17  C   UNL     1       0.748  11.163  18.750  0.00  0.00    +0.000 C 
ATOM     18  O   UNL     1       0.789  10.506  20.021  0.00  0.00    +0.000 OA
ENDBRANCH   6   9
BRANCH   1  19
ATOM     19  C   UNL     1       6.058   4.497  17.522  0.00  0.00    +0.000 C 
BRANCH  19  23
ATOM     20  C   UNL     1       8.078   9.101  17.683  0.00  0.00    +0.000 C 
ATOM     21  N   UNL     1       7.734   7.728  17.954  0.00  0.00    +0.000 N 
ATOM     22  C   UNL     1       6.803   6.971  17.305  0.00  0.00    +0.000 A 
ATOM     23  C   UNL     1       6.853   5.713  17.877  0.00  0.00    +0.000 A 
ATOM     24  C   UNL     1       7.841   5.839  18.881  0.00  0.00    +0.000 A 
ATOM     25  N   UNL     1       8.378   7.060  18.927  0.00  0.00    +0.000 NA
ENDBRANCH  19  23
ENDBRANCH   1  19
TORSDOF 3
ENDMDL
MODEL 6
REMARK VINA RESULT:      -8.5      1.316      2.193
REMARK  Name = 
REMARK  4 active torsions:
REMARK  status: ('A' for Active; 'I' for Inactive)
REMARK    1  A    between atoms: C_1  and  N_2
REMARK    2  A    between atoms: C_4  and  C_5
REMARK    3  A    between atoms: C_5  and  N_6
REMARK    4  A    between atoms: C_11  and  C_12
REMARK                            x       y       z     vdW  Elec       q    Type
REMARK                         _______ _______ _______ _____ _____    ______ ____
ROOT
ATOM      1  N   UNL     1       4.511   3.021  17.996  0.00  0.00    +0.000 N 
ATOM      2  C   UNL     1       3.667   3.479  19.023  0.00  0.00    +0.000 A 
ATOM      3  C   UNL     1       3.492   2.649  20.127  0.00  0.00    +0.000 A 
ATOM      4  C   UNL     1       2.717   3.082  21.191  0.00  0.00    +0.000 A 
ATOM      5  C   UNL     1       2.177   4.359  21.149  0.00  0.00    +0.000 A 
ATOM      6  C   UNL     1       2.418   5.164  20.034  0.00  0.00    +0.000 A 
ATOM      7  N   UNL     1       3.148   4.722  18.976  0.00  0.00    +0.000 NA
ATOM      8  H   UNL     1       5.463   3.210  18.287  0.00  0.00    +0.000 HD
ENDROOT
BRANCH   6   9
ATOM      9  C   UNL     1       1.953   6.563  19.977  0.00  0.00    +0.000 A 
ATOM     10  C   UNL     1       1.337   7.176  21.087  0.00  0.00    +0.000 A 
ATOM     11  C   UNL     1       0.993   8.529  21.077  0.00  0.00    +0.000 A 
ATOM     12  C   UNL     1       1.244   9.297  19.946  0.00  0.00    +0.000 A 
ATOM     13  C   UNL     1       1.835   8.714  18.824  0.00  0.00    +0.000 A 
ATOM     14  C   UNL     1       2.167   7.355  18.833  0.00  0.00    +0.000 A 
ATOM     15  O   UNL     1       2.130   9.417  17.683  0.00  0.00    +0.000 OA
ATOM     16  C   UNL     1       2.110  10.829  17.922  0.00  0.00    +0.000 C 
ATOM     17  C   UNL     1       0.882  11.226  18.722  0.00  0.00    +0.000 C 
ATOM     18  O   UNL     1       0.895  10.621  20.018  0.00  0.00    +0.000 OA
ENDBRANCH   6   9
BRANCH   1  19
ATOM     19  C   UNL     1       4.246   3.620  16.689  0.00  0.00    +0.000 C 
BRANCH  19  23
ATOM     20  C   UNL     1       7.659   5.055  13.284  0.00  0.00    +0.000 C 
ATOM     21  N   UNL     1       6.968   4.753  14.513  0.00  0.00    +0.000 N 
ATOM     22  C   UNL     1       5.684   4.312  14.646  0.00  0.00    +0.000 A 
ATOM     23  C   UNL     1       5.475   4.119  15.999  0.00  0.00    +0.000 A 
ATOM     24  C   UNL     1       6.704   4.500  16.587  0.00  0.00    +0.000 A 
ATOM     25  N   UNL     1       7.611   4.883  15.686  0.00  0.00    +0.000 NA
ENDBRANCH  19  23
ENDBRANCH   1  19
TORSDOF 3
ENDMDL
MODEL 7
REMARK VINA RESULT:      -8.5      1.486      2.398
REMARK  Name = 
REMARK  4 active torsions:
REMARK  status: ('A' for Active; 'I' for Inactive)
REMARK    1  A    between atoms: C_1  and  N_2
REMARK    2  A    between atoms: C_4  and  C_5
REMARK    3  A    between atoms: C_5  and  N_6
REMARK    4  A    between atoms: C_11  and  C_12
REMARK                            x       y       z     vdW  Elec       q    Type
REMARK                         _______ _______ _______ _____ _____    ______ ____
ROOT
ATOM      1  N   UNL     1       6.178   4.027  19.039  0.00  0.00    +0.000 N 
ATOM      2  C   UNL     1       4.783   4.110  19.199  0.00  0.00    +0.000 A 
ATOM      3  C   UNL     1       4.095   2.925  19.443  0.00  0.00    +0.000 A 
ATOM      4  C   UNL     1       2.727   2.963  19.667  0.00  0.00    +0.000 A 
ATOM      5  C   UNL     1       2.089   4.194  19.695  0.00  0.00    +0.000 A 
ATOM      6  C   UNL     1       2.836   5.354  19.483  0.00  0.00    +0.000 A 
ATOM      7  N   UNL     1       4.170   5.310  19.228  0.00  0.00    +0.000 NA
ATOM      8  H   UNL     1       6.583   3.985  19.966  0.00  0.00    +0.000 HD
ENDROOT
BRANCH   6   9
ATOM      9  C   UNL     1       2.229   6.694  19.599  0.00  0.00    +0.000 A 
ATOM     10  C   UNL     1       1.582   7.106  20.782  0.00  0.00    +0.000 A 
ATOM     11  C   UNL     1       1.102   8.408  20.937  0.00  0.00    +0.000 A 
ATOM     12  C   UNL     1       1.244   9.324  19.902  0.00  0.00    +0.000 A 
ATOM     13  C   UNL     1       1.864   8.940  18.711  0.00  0.00    +0.000 A 
ATOM     14  C   UNL     1       2.332   7.632  18.554  0.00  0.00    +0.000 A 
ATOM     15  O   UNL     1       2.055   9.798  17.658  0.00  0.00    +0.000 OA
ATOM     16  C   UNL     1       1.898  11.163  18.062  0.00  0.00    +0.000 C 
ATOM     17  C   UNL     1       0.656  11.335  18.921  0.00  0.00    +0.000 C 
ATOM     18  O   UNL     1       0.764  10.587  20.136  0.00  0.00    +0.000 OA
ENDBRANCH   6   9
BRANCH   1  19
ATOM     19  C   UNL     1       6.760   5.130  18.274  0.00  0.00    +0.000 C 
BRANCH  19  23
ATOM     20  C   UNL     1       6.240   3.881  13.430  0.00  0.00    +0.000 C 
ATOM     21  N   UNL     1       6.176   4.554  14.703  0.00  0.00    +0.000 N 
ATOM     22  C   UNL     1       6.662   4.105  15.895  0.00  0.00    +0.000 A 
ATOM     23  C   UNL     1       6.410   5.100  16.821  0.00  0.00    +0.000 A 
ATOM     24  C   UNL     1       5.743   6.096  16.071  0.00  0.00    +0.000 A 
ATOM     25  N   UNL     1       5.602   5.768  14.785  0.00  0.00    +0.000 NA
ENDBRANCH  19  23
ENDBRANCH   1  19
TORSDOF 3
ENDMDL
MODEL 8
REMARK VINA RESULT:      -8.5      1.346      1.589
REMARK  Name = 
REMARK  4 active torsions:
REMARK  status: ('A' for Active; 'I' for Inactive)
REMARK    1  A    between atoms: C_1  and  N_2
REMARK    2  A    between atoms: C_4  and  C_5
REMARK    3  A    between atoms: C_5  and  N_6
REMARK    4  A    between atoms: C_11  and  C_12
REMARK                            x       y       z     vdW  Elec       q    Type
REMARK                         _______ _______ _______ _____ _____    ______ ____
ROOT
ATOM      1  N   UNL     1       5.399   3.433  17.184  0.00  0.00    +0.000 N 
ATOM      2  C   UNL     1       4.115   3.724  17.677  0.00  0.00    +0.000 A 
ATOM      3  C   UNL     1       3.299   2.647  18.012  0.00  0.00    +0.000 A 
ATOM      4  C   UNL     1       2.047   2.882  18.558  0.00  0.00    +0.000 A 
ATOM      5  C   UNL     1       1.662   4.192  18.806  0.00  0.00    +0.000 A 
ATOM      6  C   UNL     1       2.536   5.232  18.486  0.00  0.00    +0.000 A 
ATOM      7  N   UNL     1       3.748   4.998  17.918  0.00  0.00    +0.000 NA
ATOM      8  H   UNL     1       5.989   3.239  17.984  0.00  0.00    +0.000 HD
ENDROOT
BRANCH   6   9
ATOM      9  C   UNL     1       2.221   6.635  18.818  0.00  0.00    +0.000 A 
ATOM     10  C   UNL     1       2.221   7.639  17.829  0.00  0.00    +0.000 A 
ATOM     11  C   UNL     1       1.820   8.946  18.114  0.00  0.00    +0.000 A 
ATOM     12  C   UNL     1       1.424   9.280  19.404  0.00  0.00    +0.000 A 
ATOM     13  C   UNL     1       1.431   8.312  20.409  0.00  0.00    +0.000 A 
ATOM     14  C   UNL     1       1.846   7.007  20.123  0.00  0.00    +0.000 A 
ATOM     15  O   UNL     1       1.033   8.568  21.697  0.00  0.00    +0.000 OA
ATOM     16  C   UNL     1       0.284   9.786  21.779  0.00  0.00    +0.000 C 
ATOM     17  C   UNL     1       0.965  10.895  20.995  0.00  0.00    +0.000 C 
ATOM     18  O   UNL     1       1.026  10.577  19.602  0.00  0.00    +0.000 OA
ENDBRANCH   6   9
BRANCH   1  19
ATOM     19  C   UNL     1       5.982   4.496  16.365  0.00  0.00    +0.000 C 
BRANCH  19  23
ATOM     20  C   UNL     1       8.199   8.702  18.007  0.00  0.00    +0.000 C 
ATOM     21  N   UNL     1       7.704   7.354  17.880  0.00  0.00    +0.000 N 
ATOM     22  C   UNL     1       6.925   6.855  16.878  0.00  0.00    +0.000 A 
ATOM     23  C   UNL     1       6.738   5.515  17.157  0.00  0.00    +0.000 A 
ATOM     24  C   UNL     1       7.437   5.323  18.371  0.00  0.00    +0.000 A 
ATOM     25  N   UNL     1       8.025   6.438  18.810  0.00  0.00    +0.000 NA
ENDBRANCH  19  23
ENDBRANCH   1  19
TORSDOF 3
ENDMDL
MODEL 9
REMARK VINA RESULT:      -8.4      3.666      7.457
REMARK  Name = 
REMARK  4 active torsions:
REMARK  status: ('A' for Active; 'I' for Inactive)
REMARK    1  A    between atoms: C_1  and  N_2
REMARK    2  A    between atoms: C_4  and  C_5
REMARK    3  A    between atoms: C_5  and  N_6
REMARK    4  A    between atoms: C_11  and  C_12
REMARK                            x       y       z     vdW  Elec       q    Type
REMARK                         _______ _______ _______ _____ _____    ______ ____
ROOT
ATOM      1  N   UNL     1       1.218   6.516  20.810  0.00  0.00    +0.000 N 
ATOM      2  C   UNL     1       2.078   5.433  20.558  0.00  0.00    +0.000 A 
ATOM      3  C   UNL     1       1.787   4.225  21.185  0.00  0.00    +0.000 A 
ATOM      4  C   UNL     1       2.571   3.112  20.922  0.00  0.00    +0.000 A 
ATOM      5  C   UNL     1       3.597   3.222  19.994  0.00  0.00    +0.000 A 
ATOM      6  C   UNL     1       3.819   4.448  19.366  0.00  0.00    +0.000 A 
ATOM      7  N   UNL     1       3.072   5.546  19.654  0.00  0.00    +0.000 NA
ATOM      8  H   UNL     1       0.411   6.402  20.209  0.00  0.00    +0.000 HD
ENDROOT
BRANCH   6   9
ATOM      9  C   UNL     1       4.830   4.598  18.302  0.00  0.00    +0.000 A 
ATOM     10  C   UNL     1       6.187   4.825  18.606  0.00  0.00    +0.000 A 
ATOM     11  C   UNL     1       7.165   4.859  17.610  0.00  0.00    +0.000 A 
ATOM     12  C   UNL     1       6.801   4.684  16.280  0.00  0.00    +0.000 A 
ATOM     13  C   UNL     1       5.462   4.477  15.945  0.00  0.00    +0.000 A 
ATOM     14  C   UNL     1       4.484   4.455  16.944  0.00  0.00    +0.000 A 
ATOM     15  O   UNL     1       5.036   4.277  14.656  0.00  0.00    +0.000 OA
ATOM     16  C   UNL     1       6.128   3.938  13.793  0.00  0.00    +0.000 C 
ATOM     17  C   UNL     1       7.312   4.860  14.031  0.00  0.00    +0.000 C 
ATOM     18  O   UNL     1       7.818   4.713  15.361  0.00  0.00    +0.000 OA
ENDBRANCH   6   9
BRANCH   1  19
ATOM     19  C   UNL     1       1.830   7.829  20.602  0.00  0.00    +0.000 C 
BRANCH  19  23
ATOM     20  C   UNL     1      -0.459  12.140  21.819  0.00  0.00    +0.000 C 
ATOM     21  N   UNL     1       0.118  10.819  21.851  0.00  0.00    +0.000 N 
ATOM     22  C   UNL     1       0.665  10.136  20.805  0.00  0.00    +0.000 A 
ATOM     23  C   UNL     1       1.124   8.937  21.317  0.00  0.00    +0.000 A 
ATOM     24  C   UNL     1       0.776   9.001  22.686  0.00  0.00    +0.000 A 
ATOM     25  N   UNL     1       0.167  10.143  23.012  0.00  0.00    +0.000 NA
ENDBRANCH  19  23
ENDBRANCH   1  19
TORSDOF 3
ENDMDL
