MODEL 1
REMARK VINA RESULT:      -8.4      0.000      0.000
REMARK  Name = 
REMARK  9 active torsions:
REMARK  status: ('A' for Active; 'I' for Inactive)
REMARK    1  A    between atoms: C_1  and  O_2
REMARK    2  A    between atoms: O_2  and  C_3
REMARK    3  A    between atoms: C_7  and  C_8
REMARK    4  A    between atoms: C_12  and  O_13
REMARK    5  A    between atoms: O_13  and  C_14
REMARK    6  A    between atoms: C_27  and  O_28
REMARK    7  A    between atoms: O_28  and  C_29
REMARK    8  A    between atoms: C_30  and  O_31
REMARK    9  A    between atoms: O_31  and  C_32
REMARK                            x       y       z     vdW  Elec       q    Type
REMARK                         _______ _______ _______ _____ _____    ______ ____
ROOT
ATOM      1  C   UNL     1      -0.109  11.438  21.911  0.00  0.00    +0.000 A 
ATOM      2  C   UNL     1       0.177  10.091  21.797  0.00  0.00    +0.000 A 
ATOM      3  C   UNL     1       0.809   9.609  20.657  0.00  0.00    +0.000 A 
ATOM      4  O   UNL     1       1.069   8.261  20.739  0.00  0.00    +0.000 OA
ATOM      5  C   UNL     1       1.801   7.683  19.741  0.00  0.00    +0.000 A 
ATOM      6  C   UNL     1       2.166   8.305  18.623  0.00  0.00    +0.000 A 
ATOM      7  C   UNL     1       1.784   9.711  18.423  0.00  0.00    +0.000 A 
ATOM      8  O   UNL     1       2.023  10.170  17.317  0.00  0.00    +0.000 OA
ATOM      9  C   UNL     1       1.137  10.437  19.563  0.00  0.00    +0.000 A 
ATOM     10  C   UNL     1       0.823  11.821  19.647  0.00  0.00    +0.000 A 
ATOM     11  C   UNL     1       0.189  12.310  20.840  0.00  0.00    +0.000 A 
ENDROOT
BRANCH   5  12
ATOM     12  C   UNL     1       2.140   6.280  19.966  0.00  0.00    +0.000 A 
ATOM     13  C   UNL     1       1.368   5.498  20.834  0.00  0.00    +0.000 A 
ATOM     14  C   UNL     1       1.727   4.174  21.089  0.00  0.00    +0.000 A 
ATOM     15  C   UNL     1       2.869   3.631  20.493  0.00  0.00    +0.000 A 
ATOM     16  C   UNL     1       3.643   4.416  19.638  0.00  0.00    +0.000 A 
ATOM     17  C   UNL     1       3.262   5.726  19.344  0.00  0.00    +0.000 A 
BRANCH  16  18
ATOM     18  O   UNL     1       4.779   3.802  19.064  0.00  0.00    +0.000 OA
BRANCH  18  19
ATOM     19  C   UNL     1       4.852   3.621  17.680  0.00  0.00    +0.000 C 
ATOM     20  O   UNL     1       3.985   3.073  17.006  0.00  0.00    +0.000 OA
ATOM     21  N   UNL     1       6.008   4.132  17.123  0.00  0.00    +0.000 N 
ATOM     22  C   UNL     1       7.027   4.905  17.831  0.00  0.00    +0.000 C 
ATOM     23  C   UNL     1       7.282   6.238  17.109  0.00  0.00    +0.000 C 
ATOM     24  O   UNL     1       7.558   6.043  15.712  0.00  0.00    +0.000 OA
ATOM     25  C   UNL     1       6.469   5.366  15.061  0.00  0.00    +0.000 C 
ATOM     26  C   UNL     1       6.248   3.990  15.689  0.00  0.00    +0.000 C 
ENDBRANCH  18  19
ENDBRANCH  16  18
ENDBRANCH   5  12
BRANCH   1  28
ATOM     27  C   UNL     1      -2.029  11.490  23.301  0.00  0.00    +0.000 C 
ATOM     28  O   UNL     1      -0.713  11.967  23.029  0.00  0.00    +0.000 OA
ENDBRANCH   1  28
BRANCH  10  29
ATOM     29  O   UNL     1       1.042  12.814  18.743  0.00  0.00    +0.000 OA
ATOM     30  C   UNL     1       2.258  13.480  18.497  0.00  0.00    +0.000 C 
ENDBRANCH  10  29
BRANCH  11  31
ATOM     31  O   UNL     1      -0.191  13.610  21.118  0.00  0.00    +0.000 OA
ATOM     32  C   UNL     1       0.726  14.556  21.645  0.00  0.00    +0.000 C 
ENDBRANCH  11  31
TORSDOF 6
ENDMDL
MODEL 2
REMARK VINA RESULT:      -8.2      3.547      9.246
REMARK  Name = 
REMARK  9 active torsions:
REMARK  status: ('A' for Active; 'I' for Inactive)
REMARK    1  A    between atoms: C_1  and  O_2
REMARK    2  A    between atoms: O_2  and  C_3
REMARK    3  A    between atoms: C_7  and  C_8
REMARK    4  A    between atoms: C_12  and  O_13
REMARK    5  A    between atoms: O_13  and  C_14
REMARK    6  A    between atoms: C_27  and  O_28
REMARK    7  A    between atoms: O_28  and  C_29
REMARK    8  A    between atoms: C_30  and  O_31
REMARK    9  A    between atoms: O_31  and  C_32
REMARK                            x       y       z     vdW  Elec       q    Type
REMARK                         _______ _______ _______ _____ _____    ______ ____
ROOT
ATOM      1  C   UNL     1       2.760   4.099  20.332  0.00  0.00    +0.000 A 
ATOM      2  C   UNL     1       2.191   5.249  20.844  0.00  0.00    +0.000 A 
ATOM      3  C   UNL     1       2.138   6.402  20.071  0.00  0.00    +0.000 A 
ATOM      4  O   UNL     1       1.487   7.429  20.716  0.00  0.00    +0.000 OA
ATOM      5  C   UNL     1       1.252   8.580  20.021  0.00  0.00    +0.000 A 
ATOM      6  C   UNL     1       1.726   8.832  18.804  0.00  0.00    +0.000 A 
ATOM      7  C   UNL     1       2.553   7.820  18.130  0.00  0.00    +0.000 A 
ATOM      8  O   UNL     1       3.074   8.176  17.085  0.00  0.00    +0.000 OA
ATOM      9  C   UNL     1       2.691   6.474  18.776  0.00  0.00    +0.000 A 
ATOM     10  C   UNL     1       3.308   5.312  18.240  0.00  0.00    +0.000 A 
ATOM     11  C   UNL     1       3.338   4.120  19.042  0.00  0.00    +0.000 A 
ENDROOT
BRANCH   5  12
ATOM     12  C   UNL     1       0.447   9.570  20.734  0.00  0.00    +0.000 A 
ATOM     13  C   UNL     1       0.249   9.456  22.115  0.00  0.00    +0.000 A 
ATOM     14  C   UNL     1      -0.565  10.371  22.783  0.00  0.00    +0.000 A 
ATOM     15  C   UNL     1      -1.198  11.394  22.072  0.00  0.00    +0.000 A 
ATOM     16  C   UNL     1      -1.008  11.499  20.693  0.00  0.00    +0.000 A 
ATOM     17  C   UNL     1      -0.158  10.614  20.029  0.00  0.00    +0.000 A 
BRANCH  16  18
ATOM     18  O   UNL     1      -1.672  12.561  20.039  0.00  0.00    +0.000 OA
BRANCH  18  19
ATOM     19  C   UNL     1      -3.046  12.745  20.220  0.00  0.00    +0.000 C 
ATOM     20  O   UNL     1      -3.540  13.491  21.061  0.00  0.00    +0.000 OA
ATOM     21  N   UNL     1      -3.816  12.005  19.345  0.00  0.00    +0.000 N 
ATOM     22  C   UNL     1      -3.310  11.194  18.238  0.00  0.00    +0.000 C 
ATOM     23  C   UNL     1      -3.995  11.601  16.923  0.00  0.00    +0.000 C 
ATOM     24  O   UNL     1      -5.427  11.599  17.046  0.00  0.00    +0.000 OA
ATOM     25  C   UNL     1      -5.857  12.494  18.086  0.00  0.00    +0.000 C 
ATOM     26  C   UNL     1      -5.273  12.064  19.432  0.00  0.00    +0.000 C 
ENDBRANCH  18  19
ENDBRANCH  16  18
ENDBRANCH   5  12
BRANCH   1  28
ATOM     27  C   UNL     1       1.608   2.548  21.704  0.00  0.00    +0.000 C 
ATOM     28  O   UNL     1       2.816   2.926  21.049  0.00  0.00    +0.000 OA
ENDBRANCH   1  28
BRANCH  10  29
ATOM     29  O   UNL     1       3.899   5.126  17.029  0.00  0.00    +0.000 OA
ATOM     30  C   UNL     1       5.235   5.410  16.687  0.00  0.00    +0.000 C 
ENDBRANCH  10  29
BRANCH  11  31
ATOM     31  O   UNL     1       3.882   2.893  18.706  0.00  0.00    +0.000 OA
ATOM     32  C   UNL     1       3.152   1.938  17.953  0.00  0.00    +0.000 C 
ENDBRANCH  11  31
TORSDOF 6
ENDMDL
MODEL 3
REMARK VINA RESULT:      -8.1      3.354      9.119
REMARK  Name = 
REMARK  9 active torsions:
REMARK  status: ('A' for Active; 'I' for Inactive)
REMARK    1  A    between atoms: C_1  and  O_2
REMARK    2  A    between atoms: O_2  and  C_3
REMARK    3  A    between atoms: C_7  and  C_8
REMARK    4  A    between atoms: C_12  and  O_13
REMARK    5  A    between atoms: O_13  and  C_14
REMARK    6  A    between atoms: C_27  and  O_28
REMARK    7  A    between atoms: O_28  and  C_29
REMARK    8  A    between atoms: C_30  and  O_31
REMARK    9  A    between atoms: O_31  and  C_32
REMARK                            x       y       z     vdW  Elec       q    Type
REMARK                         _______ _______ _______ _____ _____    ______ ____
ROOT
ATOM      1  C   UNL     1       5.093   6.300  17.251  0.00  0.00    +0.000 A 
ATOM      2  C   UNL     1       4.176   7.193  17.772  0.00  0.00    +0.000 A 
ATOM      3  C   UNL     1       3.266   6.772  18.733  0.00  0.00    +0.000 A 
ATOM      4  O   UNL     1       2.471   7.803  19.181  0.00  0.00    +0.000 OA
ATOM      5  C   UNL     1       1.619   7.556  20.219  0.00  0.00    +0.000 A 
ATOM      6  C   UNL     1       1.403   6.352  20.742  0.00  0.00    +0.000 A 
ATOM      7  C   UNL     1       2.123   5.190  20.198  0.00  0.00    +0.000 A 
ATOM      8  O   UNL     1       1.767   4.103  20.624  0.00  0.00    +0.000 OA
ATOM      9  C   UNL     1       3.197   5.437  19.182  0.00  0.00    +0.000 A 
ATOM     10  C   UNL     1       4.110   4.495  18.637  0.00  0.00    +0.000 A 
ATOM     11  C   UNL     1       5.060   4.947  17.658  0.00  0.00    +0.000 A 
ENDROOT
BRANCH   5  12
ATOM     12  C   UNL     1       0.905   8.731  20.715  0.00  0.00    +0.000 A 
ATOM     13  C   UNL     1       0.692   8.898  22.089  0.00  0.00    +0.000 A 
ATOM     14  C   UNL     1      -0.038   9.992  22.555  0.00  0.00    +0.000 A 
ATOM     15  C   UNL     1      -0.573  10.913  21.651  0.00  0.00    +0.000 A 
ATOM     16  C   UNL     1      -0.369  10.738  20.282  0.00  0.00    +0.000 A 
ATOM     17  C   UNL     1       0.399   9.671  19.813  0.00  0.00    +0.000 A 
BRANCH  16  18
ATOM     18  O   UNL     1      -0.932  11.710  19.425  0.00  0.00    +0.000 OA
BRANCH  18  19
ATOM     19  C   UNL     1      -2.319  11.872  19.365  0.00  0.00    +0.000 C 
ATOM     20  O   UNL     1      -2.968  12.578  20.131  0.00  0.00    +0.000 OA
ATOM     21  N   UNL     1      -2.908  11.158  18.339  0.00  0.00    +0.000 N 
ATOM     22  C   UNL     1      -2.198  10.397  17.312  0.00  0.00    +0.000 C 
ATOM     23  C   UNL     1      -2.645  10.848  15.912  0.00  0.00    +0.000 C 
ATOM     24  O   UNL     1      -4.077  10.825  15.776  0.00  0.00    +0.000 OA
ATOM     25  C   UNL     1      -4.701  11.673  16.756  0.00  0.00    +0.000 C 
ATOM     26  C   UNL     1      -4.358  11.197  18.168  0.00  0.00    +0.000 C 
ENDBRANCH  18  19
ENDBRANCH  16  18
ENDBRANCH   5  12
BRANCH   1  28
ATOM     27  C   UNL     1       7.240   7.215  16.836  0.00  0.00    +0.000 C 
ATOM     28  O   UNL     1       6.029   6.673  16.314  0.00  0.00    +0.000 OA
ENDBRANCH   1  28
BRANCH  10  29
ATOM     29  O   UNL     1       4.250   3.169  18.907  0.00  0.00    +0.000 OA
ATOM     30  C   UNL     1       3.524   2.108  18.332  0.00  0.00    +0.000 C 
ENDBRANCH  10  29
BRANCH  11  31
ATOM     31  O   UNL     1       6.029   4.196  17.015  0.00  0.00    +0.000 OA
ATOM     32  C   UNL     1       5.823   3.682  15.709  0.00  0.00    +0.000 C 
ENDBRANCH  11  31
TORSDOF 6
ENDMDL
MODEL 4
REMARK VINA RESULT:      -8.1      2.963      9.573
REMARK  Name = 
REMARK  9 active torsions:
REMARK  status: ('A' for Active; 'I' for Inactive)
REMARK    1  A    between atoms: C_1  and  O_2
REMARK    2  A    between atoms: O_2  and  C_3
REMARK    3  A    between atoms: C_7  and  C_8
REMARK    4  A    between atoms: C_12  and  O_13
REMARK    5  A    between atoms: O_13  and  C_14
REMARK    6  A    between atoms: C_27  and  O_28
REMARK    7  A    between atoms: O_28  and  C_29
REMARK    8  A    between atoms: C_30  and  O_31
REMARK    9  A    between atoms: O_31  and  C_32
REMARK                            x       y       z     vdW  Elec       q    Type
REMARK                         _______ _______ _______ _____ _____    ______ ____
ROOT
ATOM      1  C   UNL     1       2.907   3.965  20.457  0.00  0.00    +0.000 A 
ATOM      2  C   UNL     1       2.313   5.203  20.602  0.00  0.00    +0.000 A 
ATOM      3  C   UNL     1       2.532   6.194  19.653  0.00  0.00    +0.000 A 
ATOM      4  O   UNL     1       1.817   7.338  19.924  0.00  0.00    +0.000 OA
ATOM      5  C   UNL     1       1.840   8.346  19.004  0.00  0.00    +0.000 A 
ATOM      6  C   UNL     1       2.614   8.357  17.921  0.00  0.00    +0.000 A 
ATOM      7  C   UNL     1       3.507   7.217  17.664  0.00  0.00    +0.000 A 
ATOM      8  O   UNL     1       4.291   7.360  16.740  0.00  0.00    +0.000 OA
ATOM      9  C   UNL     1       3.388   6.011  18.547  0.00  0.00    +0.000 A 
ATOM     10  C   UNL     1       4.034   4.755  18.395  0.00  0.00    +0.000 A 
ATOM     11  C   UNL     1       3.783   3.732  19.372  0.00  0.00    +0.000 A 
ENDROOT
BRANCH   5  12
ATOM     12  C   UNL     1       0.957   9.471  19.307  0.00  0.00    +0.000 A 
ATOM     13  C   UNL     1       0.147  10.021  18.307  0.00  0.00    +0.000 A 
ATOM     14  C   UNL     1      -0.654  11.130  18.586  0.00  0.00    +0.000 A 
ATOM     15  C   UNL     1      -0.633  11.704  19.860  0.00  0.00    +0.000 A 
ATOM     16  C   UNL     1       0.184  11.161  20.851  0.00  0.00    +0.000 A 
ATOM     17  C   UNL     1       0.950  10.025  20.590  0.00  0.00    +0.000 A 
BRANCH  16  18
ATOM     18  O   UNL     1       0.149  11.787  22.118  0.00  0.00    +0.000 OA
BRANCH  18  19
ATOM     19  C   UNL     1      -1.059  11.894  22.813  0.00  0.00    +0.000 C 
ATOM     20  O   UNL     1      -1.661  10.945  23.306  0.00  0.00    +0.000 OA
ATOM     21  N   UNL     1      -1.522  13.192  22.906  0.00  0.00    +0.000 N 
ATOM     22  C   UNL     1      -0.809  14.387  22.458  0.00  0.00    +0.000 C 
ATOM     23  C   UNL     1      -0.702  15.404  23.606  0.00  0.00    +0.000 C 
ATOM     24  O   UNL     1      -1.983  15.673  24.200  0.00  0.00    +0.000 OA
ATOM     25  C   UNL     1      -2.579  14.467  24.707  0.00  0.00    +0.000 C 
ATOM     26  C   UNL     1      -2.792  13.463  23.574  0.00  0.00    +0.000 C 
ENDBRANCH  18  19
ENDBRANCH  16  18
ENDBRANCH   5  12
BRANCH   1  28
ATOM     27  C   UNL     1       1.343   2.578  21.575  0.00  0.00    +0.000 C 
ATOM     28  O   UNL     1       2.704   2.944  21.357  0.00  0.00    +0.000 OA
ENDBRANCH   1  28
BRANCH  10  29
ATOM     29  O   UNL     1       4.888   4.333  17.424  0.00  0.00    +0.000 OA
ATOM     30  C   UNL     1       6.278   4.552  17.367  0.00  0.00    +0.000 C 
ENDBRANCH  10  29
BRANCH  11  31
ATOM     31  O   UNL     1       4.306   2.451  19.403  0.00  0.00    +0.000 OA
ATOM     32  C   UNL     1       3.753   1.405  18.621  0.00  0.00    +0.000 C 
ENDBRANCH  11  31
TORSDOF 6
ENDMDL
MODEL 5
REMARK VINA RESULT:      -8.1      3.786      9.408
REMARK  Name = 
REMARK  9 active torsions:
REMARK  status: ('A' for Active; 'I' for Inactive)
REMARK    1  A    between atoms: C_1  and  O_2
REMARK    2  A    between atoms: O_2  and  C_3
REMARK    3  A    between atoms: C_7  and  C_8
REMARK    4  A    between atoms: C_12  and  O_13
REMARK    5  A    between atoms: O_13  and  C_14
REMARK    6  A    between atoms: C_27  and  O_28
REMARK    7  A    between atoms: O_28  and  C_29
REMARK    8  A    between atoms: C_30  and  O_31
REMARK    9  A    between atoms: O_31  and  C_32
REMARK                            x       y       z     vdW  Elec       q    Type
REMARK                         _______ _______ _______ _____ _____    ______ ____
ROOT
ATOM      1  C   UNL     1       2.666   4.393  20.466  0.00  0.00    +0.000 A 
ATOM      2  C   UNL     1       2.060   5.581  20.825  0.00  0.00    +0.000 A 
ATOM      3  C   UNL     1       2.073   6.660  19.948  0.00  0.00    +0.000 A 
ATOM      4  O   UNL     1       1.374   7.738  20.442  0.00  0.00    +0.000 OA
ATOM      5  C   UNL     1       1.199   8.820  19.629  0.00  0.00    +0.000 A 
ATOM      6  C   UNL     1       1.773   8.964  18.437  0.00  0.00    +0.000 A 
ATOM      7  C   UNL     1       2.651   7.898  17.927  0.00  0.00    +0.000 A 
ATOM      8  O   UNL     1       3.257   8.162  16.901  0.00  0.00    +0.000 OA
ATOM      9  C   UNL     1       2.731   6.618  18.702  0.00  0.00    +0.000 A 
ATOM     10  C   UNL     1       3.388   5.415  18.327  0.00  0.00    +0.000 A 
ATOM     11  C   UNL     1       3.349   4.301  19.232  0.00  0.00    +0.000 A 
ENDROOT
BRANCH   5  12
ATOM     12  C   UNL     1       0.341   9.866  20.180  0.00  0.00    +0.000 A 
ATOM     13  C   UNL     1       0.363  10.147  21.551  0.00  0.00    +0.000 A 
ATOM     14  C   UNL     1      -0.497  11.108  22.083  0.00  0.00    +0.000 A 
ATOM     15  C   UNL     1      -1.396  11.780  21.250  0.00  0.00    +0.000 A 
ATOM     16  C   UNL     1      -1.425  11.490  19.885  0.00  0.00    +0.000 A 
ATOM     17  C   UNL     1      -0.534  10.563  19.342  0.00  0.00    +0.000 A 
BRANCH  16  18
ATOM     18  O   UNL     1      -2.353  12.212  19.101  0.00  0.00    +0.000 OA
BRANCH  18  19
ATOM     19  C   UNL     1      -3.317  11.529  18.353  0.00  0.00    +0.000 C 
ATOM     20  O   UNL     1      -3.062  10.688  17.496  0.00  0.00    +0.000 OA
ATOM     21  N   UNL     1      -4.611  11.885  18.678  0.00  0.00    +0.000 N 
ATOM     22  C   UNL     1      -5.003  12.780  19.766  0.00  0.00    +0.000 C 
ATOM     23  C   UNL     1      -6.029  12.089  20.680  0.00  0.00    +0.000 C 
ATOM     24  O   UNL     1      -7.134  11.555  19.932  0.00  0.00    +0.000 OA
ATOM     25  C   UNL     1      -6.681  10.608  18.949  0.00  0.00    +0.000 C 
ATOM     26  C   UNL     1      -5.731  11.283  17.959  0.00  0.00    +0.000 C 
ENDBRANCH  18  19
ENDBRANCH  16  18
ENDBRANCH   5  12
BRANCH   1  28
ATOM     27  C   UNL     1       1.388   2.676  21.484  0.00  0.00    +0.000 C 
ATOM     28  O   UNL     1       2.660   3.290  21.289  0.00  0.00    +0.000 OA
ENDBRANCH   1  28
BRANCH  10  29
ATOM     29  O   UNL     1       4.076   5.123  17.190  0.00  0.00    +0.000 OA
ATOM     30  C   UNL     1       5.434   5.392  16.931  0.00  0.00    +0.000 C 
ENDBRANCH  10  29
BRANCH  11  31
ATOM     31  O   UNL     1       3.917   3.051  19.055  0.00  0.00    +0.000 OA
ATOM     32  C   UNL     1       3.325   2.081  18.206  0.00  0.00    +0.000 C 
ENDBRANCH  11  31
TORSDOF 6
ENDMDL
MODEL 6
REMARK VINA RESULT:      -8.1      3.410      9.779
REMARK  Name = 
REMARK  9 active torsions:
REMARK  status: ('A' for Active; 'I' for Inactive)
REMARK    1  A    between atoms: C_1  and  O_2
REMARK    2  A    between atoms: O_2  and  C_3
REMARK    3  A    between atoms: C_7  and  C_8
REMARK    4  A    between atoms: C_12  and  O_13
REMARK    5  A    between atoms: O_13  and  C_14
REMARK    6  A    between atoms: C_27  and  O_28
REMARK    7  A    between atoms: O_28  and  C_29
REMARK    8  A    between atoms: C_30  and  O_31
REMARK    9  A    between atoms: O_31  and  C_32
REMARK                            x       y       z     vdW  Elec       q    Type
REMARK                         _______ _______ _______ _____ _____    ______ ____
ROOT
ATOM      1  C   UNL     1       2.672   4.164  20.349  0.00  0.00    +0.000 A 
ATOM      2  C   UNL     1       2.118   5.284  20.937  0.00  0.00    +0.000 A 
ATOM      3  C   UNL     1       2.040   6.476  20.225  0.00  0.00    +0.000 A 
ATOM      4  O   UNL     1       1.408   7.467  20.940  0.00  0.00    +0.000 OA
ATOM      5  C   UNL     1       1.150   8.651  20.312  0.00  0.00    +0.000 A 
ATOM      6  C   UNL     1       1.587   8.965  19.095  0.00  0.00    +0.000 A 
ATOM      7  C   UNL     1       2.394   7.990  18.345  0.00  0.00    +0.000 A 
ATOM      8  O   UNL     1       2.883   8.400  17.305  0.00  0.00    +0.000 OA
ATOM      9  C   UNL     1       2.553   6.614  18.918  0.00  0.00    +0.000 A 
ATOM     10  C   UNL     1       3.155   5.482  18.306  0.00  0.00    +0.000 A 
ATOM     11  C   UNL     1       3.210   4.251  19.046  0.00  0.00    +0.000 A 
ENDROOT
BRANCH   5  12
ATOM     12  C   UNL     1       0.366   9.602  21.098  0.00  0.00    +0.000 A 
ATOM     13  C   UNL     1       0.024   9.308  22.423  0.00  0.00    +0.000 A 
ATOM     14  C   UNL     1      -0.771  10.193  23.153  0.00  0.00    +0.000 A 
ATOM     15  C   UNL     1      -1.242  11.366  22.556  0.00  0.00    +0.000 A 
ATOM     16  C   UNL     1      -0.908  11.650  21.231  0.00  0.00    +0.000 A 
ATOM     17  C   UNL     1      -0.076  10.791  20.512  0.00  0.00    +0.000 A 
BRANCH  16  18
ATOM     18  O   UNL     1      -1.412  12.856  20.693  0.00  0.00    +0.000 OA
BRANCH  18  19
ATOM     19  C   UNL     1      -2.777  12.985  20.423  0.00  0.00    +0.000 C 
ATOM     20  O   UNL     1      -3.400  12.270  19.642  0.00  0.00    +0.000 OA
ATOM     21  N   UNL     1      -3.381  14.004  21.134  0.00  0.00    +0.000 N 
ATOM     22  C   UNL     1      -2.744  14.815  22.170  0.00  0.00    +0.000 C 
ATOM     23  C   UNL     1      -3.574  14.773  23.464  0.00  0.00    +0.000 C 
ATOM     24  O   UNL     1      -4.952  15.103  23.224  0.00  0.00    +0.000 OA
ATOM     25  C   UNL     1      -5.539  14.201  22.270  0.00  0.00    +0.000 C 
ATOM     26  C   UNL     1      -4.800  14.286  20.934  0.00  0.00    +0.000 C 
ENDBRANCH  18  19
ENDBRANCH  16  18
ENDBRANCH   5  12
BRANCH   1  28
ATOM     27  C   UNL     1       1.563   2.542  21.676  0.00  0.00    +0.000 C 
ATOM     28  O   UNL     1       2.751   2.956  21.005  0.00  0.00    +0.000 OA
ENDBRANCH   1  28
BRANCH  10  29
ATOM     29  O   UNL     1       3.709   5.359  17.070  0.00  0.00    +0.000 OA
ATOM     30  C   UNL     1       5.028   5.680  16.699  0.00  0.00    +0.000 C 
ENDBRANCH  10  29
BRANCH  11  31
ATOM     31  O   UNL     1       3.746   3.044  18.632  0.00  0.00    +0.000 OA
ATOM     32  C   UNL     1       2.996   2.129  17.849  0.00  0.00    +0.000 C 
ENDBRANCH  11  31
TORSDOF 6
ENDMDL
MODEL 7
REMARK VINA RESULT:      -8.0      2.686      8.636
REMARK  Name = 
REMARK  9 active torsions:
REMARK  status: ('A' for Active; 'I' for Inactive)
REMARK    1  A    between atoms: C_1  and  O_2
REMARK    2  A    between atoms: O_2  and  C_3
REMARK    3  A    between atoms: C_7  and  C_8
REMARK    4  A    between atoms: C_12  and  O_13
REMARK    5  A    between atoms: O_13  and  C_14
REMARK    6  A    between atoms: C_27  and  O_28
REMARK    7  A    between atoms: O_28  and  C_29
REMARK    8  A    between atoms: C_30  and  O_31
REMARK    9  A    between atoms: O_31  and  C_32
REMARK                            x       y       z     vdW  Elec       q    Type
REMARK                         _______ _______ _______ _____ _____    ______ ____
ROOT
ATOM      1  C   UNL     1       2.628   4.132  20.229  0.00  0.00    +0.000 A 
ATOM      2  C   UNL     1       2.114   5.249  20.858  0.00  0.00    +0.000 A 
ATOM      3  C   UNL     1       2.067   6.465  20.187  0.00  0.00    +0.000 A 
ATOM      4  O   UNL     1       1.471   7.450  20.941  0.00  0.00    +0.000 OA
ATOM      5  C   UNL     1       1.245   8.662  20.355  0.00  0.00    +0.000 A 
ATOM      6  C   UNL     1       1.683   9.004  19.145  0.00  0.00    +0.000 A 
ATOM      7  C   UNL     1       2.454   8.030  18.357  0.00  0.00    +0.000 A 
ATOM      8  O   UNL     1       2.947   8.460  17.326  0.00  0.00    +0.000 OA
ATOM      9  C   UNL     1       2.574   6.632  18.882  0.00  0.00    +0.000 A 
ATOM     10  C   UNL     1       3.137   5.503  18.228  0.00  0.00    +0.000 A 
ATOM     11  C   UNL     1       3.160   4.247  18.925  0.00  0.00    +0.000 A 
ENDROOT
BRANCH   5  12
ATOM     12  C   UNL     1       0.497   9.610  21.178  0.00  0.00    +0.000 A 
ATOM     13  C   UNL     1      -0.057   9.200  22.397  0.00  0.00    +0.000 A 
ATOM     14  C   UNL     1      -0.818  10.092  23.154  0.00  0.00    +0.000 A 
ATOM     15  C   UNL     1      -1.043  11.390  22.689  0.00  0.00    +0.000 A 
ATOM     16  C   UNL     1      -0.499  11.792  21.468  0.00  0.00    +0.000 A 
ATOM     17  C   UNL     1       0.301  10.919  20.730  0.00  0.00    +0.000 A 
BRANCH  16  18
ATOM     18  O   UNL     1      -0.759  13.121  21.063  0.00  0.00    +0.000 OA
BRANCH  18  19
ATOM     19  C   UNL     1       0.148  14.137  21.372  0.00  0.00    +0.000 C 
ATOM     20  O   UNL     1       0.359  14.557  22.506  0.00  0.00    +0.000 OA
ATOM     21  N   UNL     1       0.810  14.634  20.265  0.00  0.00    +0.000 N 
ATOM     22  C   UNL     1       0.711  14.107  18.905  0.00  0.00    +0.000 C 
ATOM     23  C   UNL     1       2.110  13.789  18.354  0.00  0.00    +0.000 C 
ATOM     24  O   UNL     1       3.003  14.909  18.487  0.00  0.00    +0.000 OA
ATOM     25  C   UNL     1       3.128  15.307  19.863  0.00  0.00    +0.000 C 
ATOM     26  C   UNL     1       1.768  15.725  20.421  0.00  0.00    +0.000 C 
ENDBRANCH  18  19
ENDBRANCH  16  18
ENDBRANCH   5  12
BRANCH   1  28
ATOM     27  C   UNL     1       1.576   2.599  21.699  0.00  0.00    +0.000 C 
ATOM     28  O   UNL     1       2.676   2.901  20.843  0.00  0.00    +0.000 OA
ENDBRANCH   1  28
BRANCH  10  29
ATOM     29  O   UNL     1       3.677   5.405  16.983  0.00  0.00    +0.000 OA
ATOM     30  C   UNL     1       5.002   5.702  16.611  0.00  0.00    +0.000 C 
ENDBRANCH  10  29
BRANCH  11  31
ATOM     31  O   UNL     1       3.655   3.039  18.466  0.00  0.00    +0.000 OA
ATOM     32  C   UNL     1       2.864   2.164  17.679  0.00  0.00    +0.000 C 
ENDBRANCH  11  31
TORSDOF 6
ENDMDL
MODEL 8
REMARK VINA RESULT:      -7.9      3.011      9.660
REMARK  Name = 
REMARK  9 active torsions:
REMARK  status: ('A' for Active; 'I' for Inactive)
REMARK    1  A    between atoms: C_1  and  O_2
REMARK    2  A    between atoms: O_2  and  C_3
REMARK    3  A    between atoms: C_7  and  C_8
REMARK    4  A    between atoms: C_12  and  O_13
REMARK    5  A    between atoms: O_13  and  C_14
REMARK    6  A    between atoms: C_27  and  O_28
REMARK    7  A    between atoms: O_28  and  C_29
REMARK    8  A    between atoms: C_30  and  O_31
REMARK    9  A    between atoms: O_31  and  C_32
REMARK                            x       y       z     vdW  Elec       q    Type
REMARK                         _______ _______ _______ _____ _____    ______ ____
ROOT
ATOM      1  C   UNL     1       2.949   3.848  20.492  0.00  0.00    +0.000 A 
ATOM      2  C   UNL     1       2.306   5.066  20.597  0.00  0.00    +0.000 A 
ATOM      3  C   UNL     1       2.561   6.068  19.669  0.00  0.00    +0.000 A 
ATOM      4  O   UNL     1       1.791   7.187  19.891  0.00  0.00    +0.000 OA
ATOM      5  C   UNL     1       1.848   8.200  18.977  0.00  0.00    +0.000 A 
ATOM      6  C   UNL     1       2.698   8.241  17.953  0.00  0.00    +0.000 A 
ATOM      7  C   UNL     1       3.644   7.131  17.758  0.00  0.00    +0.000 A 
ATOM      8  O   UNL     1       4.488   7.305  16.894  0.00  0.00    +0.000 OA
ATOM      9  C   UNL     1       3.500   5.918  18.627  0.00  0.00    +0.000 A 
ATOM     10  C   UNL     1       4.196   4.684  18.519  0.00  0.00    +0.000 A 
ATOM     11  C   UNL     1       3.908   3.649  19.473  0.00  0.00    +0.000 A 
ENDROOT
BRANCH   5  12
ATOM     12  C   UNL     1       0.910   9.294  19.218  0.00  0.00    +0.000 A 
ATOM     13  C   UNL     1       0.412  10.046  18.147  0.00  0.00    +0.000 A 
ATOM     14  C   UNL     1      -0.440  11.125  18.386  0.00  0.00    +0.000 A 
ATOM     15  C   UNL     1      -0.784  11.468  19.697  0.00  0.00    +0.000 A 
ATOM     16  C   UNL     1      -0.277  10.724  20.763  0.00  0.00    +0.000 A 
ATOM     17  C   UNL     1       0.538   9.616  20.526  0.00  0.00    +0.000 A 
BRANCH  16  18
ATOM     18  O   UNL     1      -0.672  11.122  22.060  0.00  0.00    +0.000 OA
BRANCH  18  19
ATOM     19  C   UNL     1      -0.594  12.467  22.434  0.00  0.00    +0.000 C 
ATOM     20  O   UNL     1       0.342  13.211  22.154  0.00  0.00    +0.000 OA
ATOM     21  N   UNL     1      -1.691  12.898  23.154  0.00  0.00    +0.000 N 
ATOM     22  C   UNL     1      -2.898  12.116  23.420  0.00  0.00    +0.000 C 
ATOM     23  C   UNL     1      -4.145  12.892  22.968  0.00  0.00    +0.000 C 
ATOM     24  O   UNL     1      -4.174  14.221  23.514  0.00  0.00    +0.000 OA
ATOM     25  C   UNL     1      -3.004  14.963  23.128  0.00  0.00    +0.000 C 
ATOM     26  C   UNL     1      -1.742  14.272  23.646  0.00  0.00    +0.000 C 
ENDBRANCH  18  19
ENDBRANCH  16  18
ENDBRANCH   5  12
BRANCH   1  28
ATOM     27  C   UNL     1       1.347   2.596  21.711  0.00  0.00    +0.000 C 
ATOM     28  O   UNL     1       2.715   2.816  21.373  0.00  0.00    +0.000 OA
ENDBRANCH   1  28
BRANCH  10  29
ATOM     29  O   UNL     1       5.131   4.295  17.611  0.00  0.00    +0.000 OA
ATOM     30  C   UNL     1       4.908   3.943  16.266  0.00  0.00    +0.000 C 
ENDBRANCH  10  29
BRANCH  11  31
ATOM     31  O   UNL     1       4.469   2.385  19.538  0.00  0.00    +0.000 OA
ATOM     32  C   UNL     1       3.951   1.304  18.779  0.00  0.00    +0.000 C 
ENDBRANCH  11  31
TORSDOF 6
ENDMDL
MODEL 9
REMARK VINA RESULT:      -7.8      2.977      9.135
REMARK  Name = 
REMARK  9 active torsions:
REMARK  status: ('A' for Active; 'I' for Inactive)
REMARK    1  A    between atoms: C_1  and  O_2
REMARK    2  A    between atoms: O_2  and  C_3
REMARK    3  A    between atoms: C_7  and  C_8
REMARK    4  A    between atoms: C_12  and  O_13
REMARK    5  A    between atoms: O_13  and  C_14
REMARK    6  A    between atoms: C_27  and  O_28
REMARK    7  A    between atoms: O_28  and  C_29
REMARK    8  A    between atoms: C_30  and  O_31
REMARK    9  A    between atoms: O_31  and  C_32
REMARK                            x       y       z     vdW  Elec       q    Type
REMARK                         _______ _______ _______ _____ _____    ______ ____
ROOT
ATOM      1  C   UNL     1       2.937   3.807  20.230  0.00  0.00    +0.000 A 
ATOM      2  C   UNL     1       2.410   5.064  20.458  0.00  0.00    +0.000 A 
ATOM      3  C   UNL     1       2.646   6.091  19.553  0.00  0.00    +0.000 A 
ATOM      4  O   UNL     1       1.998   7.253  19.907  0.00  0.00    +0.000 OA
ATOM      5  C   UNL     1       2.040   8.305  19.038  0.00  0.00    +0.000 A 
ATOM      6  C   UNL     1       2.777   8.334  17.930  0.00  0.00    +0.000 A 
ATOM      7  C   UNL     1       3.604   7.168  17.585  0.00  0.00    +0.000 A 
ATOM      8  O   UNL     1       4.363   7.322  16.641  0.00  0.00    +0.000 OA
ATOM      9  C   UNL     1       3.455   5.925  18.410  0.00  0.00    +0.000 A 
ATOM     10  C   UNL     1       4.033   4.649  18.172  0.00  0.00    +0.000 A 
ATOM     11  C   UNL     1       3.764   3.590  19.104  0.00  0.00    +0.000 A 
ENDROOT
BRANCH   5  12
ATOM     12  C   UNL     1       1.225   9.453  19.429  0.00  0.00    +0.000 A 
ATOM     13  C   UNL     1       0.337   9.353  20.506  0.00  0.00    +0.000 A 
ATOM     14  C   UNL     1      -0.480  10.433  20.842  0.00  0.00    +0.000 A 
ATOM     15  C   UNL     1      -0.426  11.611  20.091  0.00  0.00    +0.000 A 
ATOM     16  C   UNL     1       0.451  11.704  19.010  0.00  0.00    +0.000 A 
ATOM     17  C   UNL     1       1.303  10.643  18.700  0.00  0.00    +0.000 A 
BRANCH  16  18
ATOM     18  O   UNL     1       0.459  12.925  18.300  0.00  0.00    +0.000 OA
BRANCH  18  19
ATOM     19  C   UNL     1       1.508  13.832  18.479  0.00  0.00    +0.000 C 
ATOM     20  O   UNL     1       2.691  13.572  18.274  0.00  0.00    +0.000 OA
ATOM     21  N   UNL     1       1.088  15.076  18.906  0.00  0.00    +0.000 N 
ATOM     22  C   UNL     1      -0.303  15.503  19.052  0.00  0.00    +0.000 C 
ATOM     23  C   UNL     1      -0.547  16.799  18.262  0.00  0.00    +0.000 C 
ATOM     24  O   UNL     1       0.417  17.814  18.591  0.00  0.00    +0.000 OA
ATOM     25  C   UNL     1       1.755  17.358  18.327  0.00  0.00    +0.000 C 
ATOM     26  C   UNL     1       2.072  16.123  19.171  0.00  0.00    +0.000 C 
ENDBRANCH  18  19
ENDBRANCH  16  18
ENDBRANCH   5  12
BRANCH   1  28
ATOM     27  C   UNL     1       1.469   2.776  21.779  0.00  0.00    +0.000 C 
ATOM     28  O   UNL     1       2.714   2.752  21.085  0.00  0.00    +0.000 OA
ENDBRANCH   1  28
BRANCH  10  29
ATOM     29  O   UNL     1       4.832   4.238  17.151  0.00  0.00    +0.000 OA
ATOM     30  C   UNL     1       6.227   4.400  17.051  0.00  0.00    +0.000 C 
ENDBRANCH  10  29
BRANCH  11  31
ATOM     31  O   UNL     1       4.223   2.286  19.052  0.00  0.00    +0.000 OA
ATOM     32  C   UNL     1       3.590   1.308  18.243  0.00  0.00    +0.000 C 
ENDBRANCH  11  31
TORSDOF 6
ENDMDL
