MODEL 1
REMARK VINA RESULT:      -8.5      0.000      0.000
REMARK  Name = 
REMARK  4 active torsions:
REMARK  status: ('A' for Active; 'I' for Inactive)
REMARK    1  A    between atoms: C_1  and  C_2
REMARK    2  A    between atoms: C_5  and  N_6
REMARK    3  A    between atoms: C_8  and  C_9
REMARK    4  A    between atoms: C_13  and  C_14
REMARK                            x       y       z     vdW  Elec       q    Type
REMARK                         _______ _______ _______ _____ _____    ______ ____
ROOT
ATOM      1  N   UNL     1       3.848   6.340  18.175  0.00  0.00    +0.000 N 
ATOM      2  N   UNL     1       4.918   6.691  17.415  0.00  0.00    +0.000 NA
ATOM      3  C   UNL     1       5.702   5.601  17.489  0.00  0.00    +0.000 A 
ATOM      4  N   UNL     1       5.123   4.543  18.167  0.00  0.00    +0.000 NA
ATOM      5  C   UNL     1       3.921   4.984  18.483  0.00  0.00    +0.000 A 
ENDROOT
BRANCH   1  10
ATOM      6  C   UNL     1       0.378  10.607  19.706  0.00  0.00    +0.000 C 
ATOM      7  C   UNL     1       1.167   9.401  19.286  0.00  0.00    +0.000 A 
ATOM      8  C   UNL     1       1.463   8.364  20.182  0.00  0.00    +0.000 A 
ATOM      9  C   UNL     1       2.277   7.290  19.793  0.00  0.00    +0.000 A 
ATOM     10  C   UNL     1       2.825   7.272  18.505  0.00  0.00    +0.000 A 
ATOM     11  C   UNL     1       2.435   8.248  17.578  0.00  0.00    +0.000 A 
ATOM     12  C   UNL     1       1.634   9.318  17.972  0.00  0.00    +0.000 A 
ENDBRANCH   1  10
BRANCH   5  13
ATOM     13  C   UNL     1       2.845   4.126  18.993  0.00  0.00    +0.000 A 
ATOM     14  C   UNL     1       2.796   3.818  20.358  0.00  0.00    +0.000 A 
ATOM     15  C   UNL     1       1.757   3.036  20.871  0.00  0.00    +0.000 A 
ATOM     16  C   UNL     1       0.757   2.558  20.028  0.00  0.00    +0.000 A 
ATOM     17  C   UNL     1       0.812   2.826  18.665  0.00  0.00    +0.000 A 
ATOM     18  C   UNL     1       1.870   3.574  18.147  0.00  0.00    +0.000 A 
ENDBRANCH   5  13
BRANCH   3  19
ATOM     19  C   UNL     1       7.040   5.460  16.886  0.00  0.00    +0.000 C 
ATOM     20  N   UNL     1       7.768   4.419  17.405  0.00  0.00    +0.000 N 
ATOM     21  O   UNL     1       7.504   6.171  15.996  0.00  0.00    +0.000 OA
ATOM     22  H   UNL     1       7.351   3.822  18.110  0.00  0.00    +0.000 HD
ATOM     23  H   UNL     1       8.681   4.211  17.030  0.00  0.00    +0.000 HD
ENDBRANCH   3  19
TORSDOF 3
ENDMDL
MODEL 2
REMARK VINA RESULT:      -8.5      0.136      1.058
REMARK  Name = 
REMARK  4 active torsions:
REMARK  status: ('A' for Active; 'I' for Inactive)
REMARK    1  A    between atoms: C_1  and  C_2
REMARK    2  A    between atoms: C_5  and  N_6
REMARK    3  A    between atoms: C_8  and  C_9
REMARK    4  A    between atoms: C_13  and  C_14
REMARK                            x       y       z     vdW  Elec       q    Type
REMARK                         _______ _______ _______ _____ _____    ______ ____
ROOT
ATOM      1  N   UNL     1       3.847   6.332  18.254  0.00  0.00    +0.000 N 
ATOM      2  N   UNL     1       4.936   6.651  17.506  0.00  0.00    +0.000 NA
ATOM      3  C   UNL     1       5.708   5.557  17.631  0.00  0.00    +0.000 A 
ATOM      4  N   UNL     1       5.106   4.525  18.327  0.00  0.00    +0.000 NA
ATOM      5  C   UNL     1       3.902   4.985  18.604  0.00  0.00    +0.000 A 
ENDROOT
BRANCH   1  10
ATOM      6  C   UNL     1       0.382  10.672  19.577  0.00  0.00    +0.000 C 
ATOM      7  C   UNL     1       1.170   9.448  19.213  0.00  0.00    +0.000 A 
ATOM      8  C   UNL     1       1.442   8.439  20.149  0.00  0.00    +0.000 A 
ATOM      9  C   UNL     1       2.255   7.347  19.811  0.00  0.00    +0.000 A 
ATOM     10  C   UNL     1       2.825   7.281  18.534  0.00  0.00    +0.000 A 
ATOM     11  C   UNL     1       2.459   8.228  17.567  0.00  0.00    +0.000 A 
ATOM     12  C   UNL     1       1.660   9.317  17.911  0.00  0.00    +0.000 A 
ENDBRANCH   1  10
BRANCH   5  13
ATOM     13  C   UNL     1       2.807   4.152  19.116  0.00  0.00    +0.000 A 
ATOM     14  C   UNL     1       1.890   3.590  18.220  0.00  0.00    +0.000 A 
ATOM     15  C   UNL     1       0.864   2.761  18.682  0.00  0.00    +0.000 A 
ATOM     16  C   UNL     1       0.746   2.483  20.041  0.00  0.00    +0.000 A 
ATOM     17  C   UNL     1       1.628   3.062  20.947  0.00  0.00    +0.000 A 
ATOM     18  C   UNL     1       2.627   3.921  20.489  0.00  0.00    +0.000 A 
ENDBRANCH   5  13
BRANCH   3  19
ATOM     19  C   UNL     1       7.058   5.387  17.060  0.00  0.00    +0.000 C 
ATOM     20  N   UNL     1       7.794   4.410  17.680  0.00  0.00    +0.000 N 
ATOM     21  O   UNL     1       7.523   6.025  16.117  0.00  0.00    +0.000 OA
ATOM     22  H   UNL     1       7.376   3.869  18.428  0.00  0.00    +0.000 HD
ATOM     23  H   UNL     1       8.716   4.185  17.337  0.00  0.00    +0.000 HD
ENDBRANCH   3  19
TORSDOF 3
ENDMDL
MODEL 3
REMARK VINA RESULT:      -8.2      2.937      5.602
REMARK  Name = 
REMARK  4 active torsions:
REMARK  status: ('A' for Active; 'I' for Inactive)
REMARK    1  A    between atoms: C_1  and  C_2
REMARK    2  A    between atoms: C_5  and  N_6
REMARK    3  A    between atoms: C_8  and  C_9
REMARK    4  A    between atoms: C_13  and  C_14
REMARK                            x       y       z     vdW  Elec       q    Type
REMARK                         _______ _______ _______ _____ _____    ______ ____
ROOT
ATOM      1  N   UNL     1       5.371   4.375  15.874  0.00  0.00    +0.000 N 
ATOM      2  N   UNL     1       5.319   3.611  14.752  0.00  0.00    +0.000 NA
ATOM      3  C   UNL     1       6.261   4.169  13.972  0.00  0.00    +0.000 A 
ATOM      4  N   UNL     1       6.978   5.174  14.595  0.00  0.00    +0.000 NA
ATOM      5  C   UNL     1       6.488   5.206  15.819  0.00  0.00    +0.000 A 
ENDROOT
BRANCH   1  10
ATOM      6  C   UNL     1       0.996   3.632  19.465  0.00  0.00    +0.000 C 
ATOM      7  C   UNL     1       2.227   3.871  18.640  0.00  0.00    +0.000 A 
ATOM      8  C   UNL     1       2.595   5.157  18.217  0.00  0.00    +0.000 A 
ATOM      9  C   UNL     1       3.699   5.346  17.373  0.00  0.00    +0.000 A 
ATOM     10  C   UNL     1       4.421   4.235  16.923  0.00  0.00    +0.000 A 
ATOM     11  C   UNL     1       4.122   2.965  17.437  0.00  0.00    +0.000 A 
ATOM     12  C   UNL     1       3.018   2.781  18.268  0.00  0.00    +0.000 A 
ENDBRANCH   1  10
BRANCH   5  13
ATOM     13  C   UNL     1       7.105   5.945  16.926  0.00  0.00    +0.000 A 
ATOM     14  C   UNL     1       7.489   5.257  18.085  0.00  0.00    +0.000 A 
ATOM     15  C   UNL     1       8.115   5.934  19.135  0.00  0.00    +0.000 A 
ATOM     16  C   UNL     1       8.367   7.300  19.039  0.00  0.00    +0.000 A 
ATOM     17  C   UNL     1       7.959   8.002  17.910  0.00  0.00    +0.000 A 
ATOM     18  C   UNL     1       7.299   7.334  16.878  0.00  0.00    +0.000 A 
ENDBRANCH   5  13
BRANCH   3  19
ATOM     19  C   UNL     1       6.587   3.763  12.592  0.00  0.00    +0.000 C 
ATOM     20  N   UNL     1       5.966   2.604  12.201  0.00  0.00    +0.000 N 
ATOM     21  O   UNL     1       7.328   4.372  11.822  0.00  0.00    +0.000 OA
ATOM     22  H   UNL     1       5.329   2.141  12.838  0.00  0.00    +0.000 HD
ATOM     23  H   UNL     1       6.089   2.263  11.259  0.00  0.00    +0.000 HD
ENDBRANCH   3  19
TORSDOF 3
ENDMDL
MODEL 4
REMARK VINA RESULT:      -8.2      2.961      5.646
REMARK  Name = 
REMARK  4 active torsions:
REMARK  status: ('A' for Active; 'I' for Inactive)
REMARK    1  A    between atoms: C_1  and  C_2
REMARK    2  A    between atoms: C_5  and  N_6
REMARK    3  A    between atoms: C_8  and  C_9
REMARK    4  A    between atoms: C_13  and  C_14
REMARK                            x       y       z     vdW  Elec       q    Type
REMARK                         _______ _______ _______ _____ _____    ______ ____
ROOT
ATOM      1  N   UNL     1       5.352   4.310  15.851  0.00  0.00    +0.000 N 
ATOM      2  N   UNL     1       5.271   3.572  14.713  0.00  0.00    +0.000 NA
ATOM      3  C   UNL     1       6.226   4.118  13.940  0.00  0.00    +0.000 A 
ATOM      4  N   UNL     1       6.976   5.087  14.580  0.00  0.00    +0.000 NA
ATOM      5  C   UNL     1       6.493   5.107  15.808  0.00  0.00    +0.000 A 
ENDROOT
BRANCH   1  10
ATOM      6  C   UNL     1       0.975   3.622  19.451  0.00  0.00    +0.000 C 
ATOM      7  C   UNL     1       2.208   3.841  18.624  0.00  0.00    +0.000 A 
ATOM      8  C   UNL     1       2.613   5.124  18.227  0.00  0.00    +0.000 A 
ATOM      9  C   UNL     1       3.718   5.298  17.381  0.00  0.00    +0.000 A 
ATOM     10  C   UNL     1       4.403   4.176  16.902  0.00  0.00    +0.000 A 
ATOM     11  C   UNL     1       4.068   2.905  17.390  0.00  0.00    +0.000 A 
ATOM     12  C   UNL     1       2.964   2.736  18.223  0.00  0.00    +0.000 A 
ENDBRANCH   1  10
BRANCH   5  13
ATOM     13  C   UNL     1       7.139   5.802  16.928  0.00  0.00    +0.000 A 
ATOM     14  C   UNL     1       7.363   7.182  16.847  0.00  0.00    +0.000 A 
ATOM     15  C   UNL     1       7.939   7.870  17.918  0.00  0.00    +0.000 A 
ATOM     16  C   UNL     1       8.295   7.189  19.080  0.00  0.00    +0.000 A 
ATOM     17  C   UNL     1       8.112   5.813  19.160  0.00  0.00    +0.000 A 
ATOM     18  C   UNL     1       7.573   5.120  18.076  0.00  0.00    +0.000 A 
ENDBRANCH   5  13
BRANCH   3  19
ATOM     19  C   UNL     1       6.532   3.733  12.549  0.00  0.00    +0.000 C 
ATOM     20  N   UNL     1       5.845   2.624  12.125  0.00  0.00    +0.000 N 
ATOM     21  O   UNL     1       7.309   4.319  11.798  0.00  0.00    +0.000 OA
ATOM     22  H   UNL     1       5.179   2.181  12.747  0.00  0.00    +0.000 HD
ATOM     23  H   UNL     1       5.951   2.304  11.174  0.00  0.00    +0.000 HD
ENDBRANCH   3  19
TORSDOF 3
ENDMDL
MODEL 5
REMARK VINA RESULT:      -8.2      2.749      5.375
REMARK  Name = 
REMARK  4 active torsions:
REMARK  status: ('A' for Active; 'I' for Inactive)
REMARK    1  A    between atoms: C_1  and  C_2
REMARK    2  A    between atoms: C_5  and  N_6
REMARK    3  A    between atoms: C_8  and  C_9
REMARK    4  A    between atoms: C_13  and  C_14
REMARK                            x       y       z     vdW  Elec       q    Type
REMARK                         _______ _______ _______ _____ _____    ______ ____
ROOT
ATOM      1  N   UNL     1       5.287   4.676  15.783  0.00  0.00    +0.000 N 
ATOM      2  N   UNL     1       5.184   3.919  14.658  0.00  0.00    +0.000 NA
ATOM      3  C   UNL     1       6.276   4.280  13.961  0.00  0.00    +0.000 A 
ATOM      4  N   UNL     1       7.115   5.141  14.643  0.00  0.00    +0.000 NA
ATOM      5  C   UNL     1       6.540   5.281  15.822  0.00  0.00    +0.000 A 
ENDROOT
BRANCH   1  10
ATOM      6  C   UNL     1       1.724   4.879  20.239  0.00  0.00    +0.000 C 
ATOM      7  C   UNL     1       2.540   4.814  18.980  0.00  0.00    +0.000 A 
ATOM      8  C   UNL     1       2.820   3.596  18.344  0.00  0.00    +0.000 A 
ATOM      9  C   UNL     1       3.657   3.550  17.219  0.00  0.00    +0.000 A 
ATOM     10  C   UNL     1       4.244   4.730  16.748  0.00  0.00    +0.000 A 
ATOM     11  C   UNL     1       3.872   5.958  17.314  0.00  0.00    +0.000 A 
ATOM     12  C   UNL     1       3.047   5.997  18.437  0.00  0.00    +0.000 A 
ENDBRANCH   1  10
BRANCH   5  13
ATOM     13  C   UNL     1       7.193   5.906  16.979  0.00  0.00    +0.000 A 
ATOM     14  C   UNL     1       7.489   7.275  16.949  0.00  0.00    +0.000 A 
ATOM     15  C   UNL     1       8.073   7.898  18.055  0.00  0.00    +0.000 A 
ATOM     16  C   UNL     1       8.364   7.163  19.202  0.00  0.00    +0.000 A 
ATOM     17  C   UNL     1       8.109   5.796  19.233  0.00  0.00    +0.000 A 
ATOM     18  C   UNL     1       7.561   5.167  18.114  0.00  0.00    +0.000 A 
ENDBRANCH   5  13
BRANCH   3  19
ATOM     19  C   UNL     1       6.632   3.802  12.612  0.00  0.00    +0.000 C 
ATOM     20  N   UNL     1       6.000   2.636  12.260  0.00  0.00    +0.000 N 
ATOM     21  O   UNL     1       7.405   4.359  11.834  0.00  0.00    +0.000 OA
ATOM     22  H   UNL     1       5.337   2.215  12.900  0.00  0.00    +0.000 HD
ATOM     23  H   UNL     1       6.143   2.247  11.340  0.00  0.00    +0.000 HD
ENDBRANCH   3  19
TORSDOF 3
ENDMDL
MODEL 6
REMARK VINA RESULT:      -8.1      1.115      1.531
REMARK  Name = 
REMARK  4 active torsions:
REMARK  status: ('A' for Active; 'I' for Inactive)
REMARK    1  A    between atoms: C_1  and  C_2
REMARK    2  A    between atoms: C_5  and  N_6
REMARK    3  A    between atoms: C_8  and  C_9
REMARK    4  A    between atoms: C_13  and  C_14
REMARK                            x       y       z     vdW  Elec       q    Type
REMARK                         _______ _______ _______ _____ _____    ______ ____
ROOT
ATOM      1  N   UNL     1       3.970   5.985  17.528  0.00  0.00    +0.000 N 
ATOM      2  N   UNL     1       4.789   6.237  16.474  0.00  0.00    +0.000 NA
ATOM      3  C   UNL     1       5.396   5.053  16.283  0.00  0.00    +0.000 A 
ATOM      4  N   UNL     1       4.914   4.042  17.094  0.00  0.00    +0.000 NA
ATOM      5  C   UNL     1       3.944   4.616  17.779  0.00  0.00    +0.000 A 
ENDROOT
BRANCH   1  10
ATOM      6  C   UNL     1       0.347   9.706  19.900  0.00  0.00    +0.000 C 
ATOM      7  C   UNL     1       1.410   8.824  19.311  0.00  0.00    +0.000 A 
ATOM      8  C   UNL     1       1.939   9.056  18.034  0.00  0.00    +0.000 A 
ATOM      9  C   UNL     1       2.866   8.168  17.468  0.00  0.00    +0.000 A 
ATOM     10  C   UNL     1       3.241   7.021  18.177  0.00  0.00    +0.000 A 
ATOM     11  C   UNL     1       2.799   6.851  19.496  0.00  0.00    +0.000 A 
ATOM     12  C   UNL     1       1.871   7.731  20.050  0.00  0.00    +0.000 A 
ENDBRANCH   1  10
BRANCH   5  13
ATOM     13  C   UNL     1       2.969   3.877  18.591  0.00  0.00    +0.000 A 
ATOM     14  C   UNL     1       3.337   3.417  19.862  0.00  0.00    +0.000 A 
ATOM     15  C   UNL     1       2.412   2.746  20.667  0.00  0.00    +0.000 A 
ATOM     16  C   UNL     1       1.113   2.530  20.214  0.00  0.00    +0.000 A 
ATOM     17  C   UNL     1       0.745   2.949  18.940  0.00  0.00    +0.000 A 
ATOM     18  C   UNL     1       1.679   3.584  18.121  0.00  0.00    +0.000 A 
ENDBRANCH   5  13
BRANCH   3  19
ATOM     19  C   UNL     1       6.447   4.775  15.287  0.00  0.00    +0.000 C 
ATOM     20  N   UNL     1       6.229   3.627  14.567  0.00  0.00    +0.000 N 
ATOM     21  O   UNL     1       7.436   5.474  15.074  0.00  0.00    +0.000 OA
ATOM     22  H   UNL     1       5.387   3.089  14.731  0.00  0.00    +0.000 HD
ATOM     23  H   UNL     1       6.868   3.370  13.829  0.00  0.00    +0.000 HD
ENDBRANCH   3  19
TORSDOF 3
ENDMDL
MODEL 7
REMARK VINA RESULT:      -8.1      2.840      5.438
REMARK  Name = 
REMARK  4 active torsions:
REMARK  status: ('A' for Active; 'I' for Inactive)
REMARK    1  A    between atoms: C_1  and  C_2
REMARK    2  A    between atoms: C_5  and  N_6
REMARK    3  A    between atoms: C_8  and  C_9
REMARK    4  A    between atoms: C_13  and  C_14
REMARK                            x       y       z     vdW  Elec       q    Type
REMARK                         _______ _______ _______ _____ _____    ______ ____
ROOT
ATOM      1  N   UNL     1       5.281   4.488  15.831  0.00  0.00    +0.000 N 
ATOM      2  N   UNL     1       5.213   3.720  14.711  0.00  0.00    +0.000 NA
ATOM      3  C   UNL     1       6.222   4.201  13.964  0.00  0.00    +0.000 A 
ATOM      4  N   UNL     1       6.988   5.155  14.607  0.00  0.00    +0.000 NA
ATOM      5  C   UNL     1       6.457   5.233  15.812  0.00  0.00    +0.000 A 
ENDROOT
BRANCH   1  10
ATOM      6  C   UNL     1       1.921   4.386  20.445  0.00  0.00    +0.000 C 
ATOM      7  C   UNL     1       2.684   4.372  19.153  0.00  0.00    +0.000 A 
ATOM      8  C   UNL     1       3.160   3.180  18.588  0.00  0.00    +0.000 A 
ATOM      9  C   UNL     1       3.946   3.200  17.427  0.00  0.00    +0.000 A 
ATOM     10  C   UNL     1       4.285   4.427  16.844  0.00  0.00    +0.000 A 
ATOM     11  C   UNL     1       3.714   5.606  17.343  0.00  0.00    +0.000 A 
ATOM     12  C   UNL     1       2.941   5.582  18.503  0.00  0.00    +0.000 A 
ENDBRANCH   1  10
BRANCH   5  13
ATOM     13  C   UNL     1       7.087   5.933  16.938  0.00  0.00    +0.000 A 
ATOM     14  C   UNL     1       7.438   5.214  18.088  0.00  0.00    +0.000 A 
ATOM     15  C   UNL     1       8.075   5.852  19.156  0.00  0.00    +0.000 A 
ATOM     16  C   UNL     1       8.370   7.212  19.085  0.00  0.00    +0.000 A 
ATOM     17  C   UNL     1       7.996   7.945  17.965  0.00  0.00    +0.000 A 
ATOM     18  C   UNL     1       7.325   7.316  16.916  0.00  0.00    +0.000 A 
ENDBRANCH   5  13
BRANCH   3  19
ATOM     19  C   UNL     1       6.567   3.761  12.599  0.00  0.00    +0.000 C 
ATOM     20  N   UNL     1       5.931   2.606  12.219  0.00  0.00    +0.000 N 
ATOM     21  O   UNL     1       7.334   4.340  11.832  0.00  0.00    +0.000 OA
ATOM     22  H   UNL     1       5.272   2.169  12.852  0.00  0.00    +0.000 HD
ATOM     23  H   UNL     1       6.066   2.245  11.286  0.00  0.00    +0.000 HD
ENDBRANCH   3  19
TORSDOF 3
ENDMDL
MODEL 8
REMARK VINA RESULT:      -8.1      2.450      4.529
REMARK  Name = 
REMARK  4 active torsions:
REMARK  status: ('A' for Active; 'I' for Inactive)
REMARK    1  A    between atoms: C_1  and  C_2
REMARK    2  A    between atoms: C_5  and  N_6
REMARK    3  A    between atoms: C_8  and  C_9
REMARK    4  A    between atoms: C_13  and  C_14
REMARK                            x       y       z     vdW  Elec       q    Type
REMARK                         _______ _______ _______ _____ _____    ______ ____
ROOT
ATOM      1  N   UNL     1       2.603   5.732  18.684  0.00  0.00    +0.000 N 
ATOM      2  N   UNL     1       1.653   4.793  18.938  0.00  0.00    +0.000 NA
ATOM      3  C   UNL     1       2.233   3.662  18.498  0.00  0.00    +0.000 A 
ATOM      4  N   UNL     1       3.542   3.831  18.086  0.00  0.00    +0.000 NA
ATOM      5  C   UNL     1       3.792   5.104  18.321  0.00  0.00    +0.000 A 
ENDROOT
BRANCH   1  10
ATOM      6  C   UNL     1       0.759  11.108  19.224  0.00  0.00    +0.000 C 
ATOM      7  C   UNL     1       1.383   9.749  19.092  0.00  0.00    +0.000 A 
ATOM      8  C   UNL     1       1.907   9.292  17.874  0.00  0.00    +0.000 A 
ATOM      9  C   UNL     1       2.405   7.986  17.752  0.00  0.00    +0.000 A 
ATOM     10  C   UNL     1       2.347   7.121  18.852  0.00  0.00    +0.000 A 
ATOM     11  C   UNL     1       1.930   7.616  20.095  0.00  0.00    +0.000 A 
ATOM     12  C   UNL     1       1.428   8.911  20.209  0.00  0.00    +0.000 A 
ENDBRANCH   1  10
BRANCH   5  13
ATOM     13  C   UNL     1       5.134   5.695  18.278  0.00  0.00    +0.000 A 
ATOM     14  C   UNL     1       6.082   5.326  19.240  0.00  0.00    +0.000 A 
ATOM     15  C   UNL     1       7.379   5.846  19.194  0.00  0.00    +0.000 A 
ATOM     16  C   UNL     1       7.742   6.736  18.186  0.00  0.00    +0.000 A 
ATOM     17  C   UNL     1       6.801   7.139  17.245  0.00  0.00    +0.000 A 
ATOM     18  C   UNL     1       5.497   6.650  17.315  0.00  0.00    +0.000 A 
ENDBRANCH   5  13
BRANCH   3  19
ATOM     19  C   UNL     1       1.609   2.327  18.477  0.00  0.00    +0.000 C 
ATOM     20  N   UNL     1       2.516   1.298  18.505  0.00  0.00    +0.000 N 
ATOM     21  O   UNL     1       0.400   2.101  18.448  0.00  0.00    +0.000 OA
ATOM     22  H   UNL     1       3.505   1.507  18.569  0.00  0.00    +0.000 HD
ATOM     23  H   UNL     1       2.189   0.344  18.537  0.00  0.00    +0.000 HD
ENDBRANCH   3  19
TORSDOF 3
ENDMDL
MODEL 9
REMARK VINA RESULT:      -8.1      0.359      1.531
REMARK  Name = 
REMARK  4 active torsions:
REMARK  status: ('A' for Active; 'I' for Inactive)
REMARK    1  A    between atoms: C_1  and  C_2
REMARK    2  A    between atoms: C_5  and  N_6
REMARK    3  A    between atoms: C_8  and  C_9
REMARK    4  A    between atoms: C_13  and  C_14
REMARK                            x       y       z     vdW  Elec       q    Type
REMARK                         _______ _______ _______ _____ _____    ______ ____
ROOT
ATOM      1  N   UNL     1       3.998   6.387  18.047  0.00  0.00    +0.000 N 
ATOM      2  N   UNL     1       5.038   6.637  17.209  0.00  0.00    +0.000 NA
ATOM      3  C   UNL     1       5.710   5.472  17.220  0.00  0.00    +0.000 A 
ATOM      4  N   UNL     1       5.079   4.470  17.934  0.00  0.00    +0.000 NA
ATOM      5  C   UNL     1       3.955   5.027  18.343  0.00  0.00    +0.000 A 
ENDROOT
BRANCH   1  10
ATOM      6  C   UNL     1      -0.217   9.968  19.463  0.00  0.00    +0.000 C 
ATOM      7  C   UNL     1       0.986   9.138  19.122  0.00  0.00    +0.000 A 
ATOM      8  C   UNL     1       1.635   9.251  17.884  0.00  0.00    +0.000 A 
ATOM      9  C   UNL     1       2.703   8.404  17.553  0.00  0.00    +0.000 A 
ATOM     10  C   UNL     1       3.102   7.413  18.458  0.00  0.00    +0.000 A 
ATOM     11  C   UNL     1       2.529   7.377  19.737  0.00  0.00    +0.000 A 
ATOM     12  C   UNL     1       1.462   8.215  20.057  0.00  0.00    +0.000 A 
ENDBRANCH   1  10
BRANCH   5  13
ATOM     13  C   UNL     1       2.838   4.276  18.928  0.00  0.00    +0.000 A 
ATOM     14  C   UNL     1       1.836   3.766  18.093  0.00  0.00    +0.000 A 
ATOM     15  C   UNL     1       0.785   3.014  18.625  0.00  0.00    +0.000 A 
ATOM     16  C   UNL     1       0.725   2.762  19.994  0.00  0.00    +0.000 A 
ATOM     17  C   UNL     1       1.693   3.293  20.839  0.00  0.00    +0.000 A 
ATOM     18  C   UNL     1       2.720   4.076  20.313  0.00  0.00    +0.000 A 
ENDBRANCH   5  13
BRANCH   3  19
ATOM     19  C   UNL     1       6.978   5.204  16.516  0.00  0.00    +0.000 C 
ATOM     20  N   UNL     1       7.804   4.338  17.187  0.00  0.00    +0.000 N 
ATOM     21  O   UNL     1       7.308   5.675  15.429  0.00  0.00    +0.000 OA
ATOM     22  H   UNL     1       7.494   3.930  18.062  0.00  0.00    +0.000 HD
ATOM     23  H   UNL     1       8.678   4.055  16.770  0.00  0.00    +0.000 HD
ENDBRANCH   3  19
TORSDOF 3
ENDMDL
