MODEL 1
REMARK VINA RESULT:      -7.7      0.000      0.000
REMARK  Name = 
REMARK  6 active torsions:
REMARK  status: ('A' for Active; 'I' for Inactive)
REMARK    1  A    between atoms: O_1  and  C_2
REMARK    2  A    between atoms: C_8  and  O_9
REMARK    3  A    between atoms: C_10  and  O_11
REMARK    4  A    between atoms: N_13  and  C_14
REMARK    5  A    between atoms: C_14  and  C_15
REMARK    6  A    between atoms: C_23  and  O_24
REMARK                            x       y       z     vdW  Elec       q    Type
REMARK                         _______ _______ _______ _____ _____    ______ ____
ROOT
ATOM      1  C   UNL     1       6.658   5.790  16.277  0.00  0.00    +0.000 A 
ATOM      2  C   UNL     1       5.609   6.704  16.391  0.00  0.00    +0.000 A 
ATOM      3  C   UNL     1       4.718   6.600  17.481  0.00  0.00    +0.000 A 
ATOM      4  C   UNL     1       3.581   7.362  17.884  0.00  0.00    +0.000 A 
ATOM      5  C   UNL     1       2.904   8.462  17.306  0.00  0.00    +0.000 A 
ATOM      6  C   UNL     1       1.836   9.062  17.976  0.00  0.00    +0.000 A 
ATOM      7  C   UNL     1       1.483   8.605  19.235  0.00  0.00    +0.000 A 
ATOM      8  C   UNL     1       2.140   7.523  19.834  0.00  0.00    +0.000 A 
ATOM      9  C   UNL     1       3.153   6.866  19.125  0.00  0.00    +0.000 A 
ATOM     10  N   UNL     1       3.890   5.715  19.365  0.00  0.00    +0.000 N 
ATOM     11  C   UNL     1       4.906   5.587  18.423  0.00  0.00    +0.000 A 
ATOM     12  C   UNL     1       5.949   4.646  18.298  0.00  0.00    +0.000 A 
ATOM     13  C   UNL     1       6.815   4.773  17.211  0.00  0.00    +0.000 A 
ENDROOT
BRANCH   1  14
ATOM     14  O   UNL     1       7.547   5.897  15.244  0.00  0.00    +0.000 OA
ATOM     15  H   UNL     1       7.083   5.715  14.412  0.00  0.00    +0.000 HD
ENDBRANCH   1  14
BRANCH   7  16
ATOM     16  O   UNL     1       0.468   9.192  19.945  0.00  0.00    +0.000 OA
ATOM     17  H   UNL     1       0.765  10.083  20.206  0.00  0.00    +0.000 HD
ENDBRANCH   7  16
BRANCH   8  18
ATOM     18  O   UNL     1       1.784   7.166  21.111  0.00  0.00    +0.000 OA
ATOM     19  H   UNL     1       1.375   7.976  21.476  0.00  0.00    +0.000 HD
ENDBRANCH   8  18
BRANCH  13  20
ATOM     20  O   UNL     1       7.845   3.883  17.056  0.00  0.00    +0.000 OA
ATOM     21  H   UNL     1       8.033   3.776  16.113  0.00  0.00    +0.000 HD
ENDBRANCH  13  20
BRANCH  10  22
ATOM     22  C   UNL     1       3.609   4.728  20.408  0.00  0.00    +0.000 C 
BRANCH  22  23
ATOM     23  C   UNL     1       2.585   3.715  19.938  0.00  0.00    +0.000 A 
ATOM     24  C   UNL     1       2.952   2.639  19.114  0.00  0.00    +0.000 A 
ATOM     25  C   UNL     1       1.986   1.777  18.590  0.00  0.00    +0.000 A 
ATOM     26  C   UNL     1       0.642   1.967  18.897  0.00  0.00    +0.000 A 
ATOM     27  C   UNL     1       0.265   3.003  19.747  0.00  0.00    +0.000 A 
ATOM     28  C   UNL     1       1.230   3.870  20.268  0.00  0.00    +0.000 A 
ENDBRANCH  22  23
ENDBRANCH  10  22
TORSDOF 6
ENDMDL
MODEL 2
REMARK VINA RESULT:      -7.6      1.698      4.463
REMARK  Name = 
REMARK  6 active torsions:
REMARK  status: ('A' for Active; 'I' for Inactive)
REMARK    1  A    between atoms: O_1  and  C_2
REMARK    2  A    between atoms: C_8  and  O_9
REMARK    3  A    between atoms: C_10  and  O_11
REMARK    4  A    between atoms: N_13  and  C_14
REMARK    5  A    between atoms: C_14  and  C_15
REMARK    6  A    between atoms: C_23  and  O_24
REMARK                            x       y       z     vdW  Elec       q    Type
REMARK                         _______ _______ _______ _____ _____    ______ ____
ROOT
ATOM      1  C   UNL     1       6.642   5.099  16.173  0.00  0.00    +0.000 A 
ATOM      2  C   UNL     1       5.692   4.103  16.408  0.00  0.00    +0.000 A 
ATOM      3  C   UNL     1       4.676   4.330  17.362  0.00  0.00    +0.000 A 
ATOM      4  C   UNL     1       3.575   3.544  17.816  0.00  0.00    +0.000 A 
ATOM      5  C   UNL     1       3.139   2.232  17.515  0.00  0.00    +0.000 A 
ATOM      6  C   UNL     1       1.958   1.737  18.073  0.00  0.00    +0.000 A 
ATOM      7  C   UNL     1       1.192   2.562  18.879  0.00  0.00    +0.000 A 
ATOM      8  C   UNL     1       1.596   3.868  19.189  0.00  0.00    +0.000 A 
ATOM      9  C   UNL     1       2.823   4.333  18.700  0.00  0.00    +0.000 A 
ATOM     10  N   UNL     1       3.558   5.488  18.920  0.00  0.00    +0.000 N 
ATOM     11  C   UNL     1       4.642   5.545  18.049  0.00  0.00    +0.000 A 
ATOM     12  C   UNL     1       5.615   6.543  17.834  0.00  0.00    +0.000 A 
ATOM     13  C   UNL     1       6.608   6.292  16.885  0.00  0.00    +0.000 A 
ENDROOT
BRANCH   1  14
ATOM     14  O   UNL     1       7.614   4.906  15.231  0.00  0.00    +0.000 OA
ATOM     15  H   UNL     1       7.246   5.103  14.357  0.00  0.00    +0.000 HD
ENDBRANCH   1  14
BRANCH   7  16
ATOM     16  O   UNL     1       0.006   2.131  19.415  0.00  0.00    +0.000 OA
ATOM     17  H   UNL     1      -0.118   2.588  20.267  0.00  0.00    +0.000 HD
ENDBRANCH   7  16
BRANCH   8  18
ATOM     18  O   UNL     1       0.756   4.653  19.939  0.00  0.00    +0.000 OA
ATOM     19  H   UNL     1       0.679   4.171  20.787  0.00  0.00    +0.000 HD
ENDBRANCH   8  18
BRANCH  13  20
ATOM     20  O   UNL     1       7.568   7.238  16.642  0.00  0.00    +0.000 OA
ATOM     21  H   UNL     1       7.777   7.241  15.696  0.00  0.00    +0.000 HD
ENDBRANCH  13  20
BRANCH  10  22
ATOM     22  C   UNL     1       3.292   6.479  19.963  0.00  0.00    +0.000 C 
BRANCH  22  23
ATOM     23  C   UNL     1       2.370   7.570  19.458  0.00  0.00    +0.000 A 
ATOM     24  C   UNL     1       2.355   7.940  18.104  0.00  0.00    +0.000 A 
ATOM     25  C   UNL     1       1.590   9.024  17.665  0.00  0.00    +0.000 A 
ATOM     26  C   UNL     1       0.815   9.741  18.572  0.00  0.00    +0.000 A 
ATOM     27  C   UNL     1       0.785   9.360  19.911  0.00  0.00    +0.000 A 
ATOM     28  C   UNL     1       1.554   8.280  20.351  0.00  0.00    +0.000 A 
ENDBRANCH  22  23
ENDBRANCH  10  22
TORSDOF 6
ENDMDL
MODEL 3
REMARK VINA RESULT:      -7.5      2.364      5.120
REMARK  Name = 
REMARK  6 active torsions:
REMARK  status: ('A' for Active; 'I' for Inactive)
REMARK    1  A    between atoms: O_1  and  C_2
REMARK    2  A    between atoms: C_8  and  O_9
REMARK    3  A    between atoms: C_10  and  O_11
REMARK    4  A    between atoms: N_13  and  C_14
REMARK    5  A    between atoms: C_14  and  C_15
REMARK    6  A    between atoms: C_23  and  O_24
REMARK                            x       y       z     vdW  Elec       q    Type
REMARK                         _______ _______ _______ _____ _____    ______ ____
ROOT
ATOM      1  C   UNL     1       2.519   3.052  21.044  0.00  0.00    +0.000 A 
ATOM      2  C   UNL     1       2.049   4.356  21.202  0.00  0.00    +0.000 A 
ATOM      3  C   UNL     1       2.354   5.324  20.220  0.00  0.00    +0.000 A 
ATOM      4  C   UNL     1       2.024   6.705  20.080  0.00  0.00    +0.000 A 
ATOM      5  C   UNL     1       1.319   7.616  20.903  0.00  0.00    +0.000 A 
ATOM      6  C   UNL     1       1.084   8.921  20.468  0.00  0.00    +0.000 A 
ATOM      7  C   UNL     1       1.498   9.298  19.201  0.00  0.00    +0.000 A 
ATOM      8  C   UNL     1       2.191   8.415  18.362  0.00  0.00    +0.000 A 
ATOM      9  C   UNL     1       2.503   7.134  18.833  0.00  0.00    +0.000 A 
ATOM     10  N   UNL     1       3.269   6.095  18.326  0.00  0.00    +0.000 N 
ATOM     11  C   UNL     1       3.117   4.956  19.111  0.00  0.00    +0.000 A 
ATOM     12  C   UNL     1       3.617   3.645  18.960  0.00  0.00    +0.000 A 
ATOM     13  C   UNL     1       3.300   2.709  19.946  0.00  0.00    +0.000 A 
ENDROOT
BRANCH   1  14
ATOM     14  O   UNL     1       2.208   2.096  21.971  0.00  0.00    +0.000 OA
ATOM     15  H   UNL     1       2.001   1.269  21.510  0.00  0.00    +0.000 HD
ENDBRANCH   1  14
BRANCH   7  16
ATOM     16  O   UNL     1       1.252  10.557  18.718  0.00  0.00    +0.000 OA
ATOM     17  H   UNL     1       0.593  10.975  19.302  0.00  0.00    +0.000 HD
ENDBRANCH   7  16
BRANCH   8  18
ATOM     18  O   UNL     1       2.513   8.833  17.094  0.00  0.00    +0.000 OA
ATOM     19  H   UNL     1       3.492   8.838  17.090  0.00  0.00    +0.000 HD
ENDBRANCH   8  18
BRANCH  13  20
ATOM     20  O   UNL     1       3.760   1.423  19.833  0.00  0.00    +0.000 OA
ATOM     21  H   UNL     1       4.728   1.436  19.798  0.00  0.00    +0.000 HD
ENDBRANCH  13  20
BRANCH  10  22
ATOM     22  C   UNL     1       4.170   6.185  17.178  0.00  0.00    +0.000 C 
BRANCH  22  23
ATOM     23  C   UNL     1       5.604   6.396  17.623  0.00  0.00    +0.000 A 
ATOM     24  C   UNL     1       6.201   5.551  18.571  0.00  0.00    +0.000 A 
ATOM     25  C   UNL     1       7.481   5.820  19.064  0.00  0.00    +0.000 A 
ATOM     26  C   UNL     1       8.187   6.927  18.602  0.00  0.00    +0.000 A 
ATOM     27  C   UNL     1       7.625   7.751  17.630  0.00  0.00    +0.000 A 
ATOM     28  C   UNL     1       6.343   7.486  17.141  0.00  0.00    +0.000 A 
ENDBRANCH  22  23
ENDBRANCH  10  22
TORSDOF 6
ENDMDL
MODEL 4
REMARK VINA RESULT:      -7.3      2.095      6.166
REMARK  Name = 
REMARK  6 active torsions:
REMARK  status: ('A' for Active; 'I' for Inactive)
REMARK    1  A    between atoms: O_1  and  C_2
REMARK    2  A    between atoms: C_8  and  O_9
REMARK    3  A    between atoms: C_10  and  O_11
REMARK    4  A    between atoms: N_13  and  C_14
REMARK    5  A    between atoms: C_14  and  C_15
REMARK    6  A    between atoms: C_23  and  O_24
REMARK                            x       y       z     vdW  Elec       q    Type
REMARK                         _______ _______ _______ _____ _____    ______ ____
ROOT
ATOM      1  C   UNL     1       1.149   8.892  19.209  0.00  0.00    +0.000 A 
ATOM      2  C   UNL     1       1.115   7.694  19.925  0.00  0.00    +0.000 A 
ATOM      3  C   UNL     1       2.044   6.678  19.615  0.00  0.00    +0.000 A 
ATOM      4  C   UNL     1       2.277   5.376  20.151  0.00  0.00    +0.000 A 
ATOM      5  C   UNL     1       1.625   4.615  21.149  0.00  0.00    +0.000 A 
ATOM      6  C   UNL     1       2.129   3.367  21.525  0.00  0.00    +0.000 A 
ATOM      7  C   UNL     1       3.303   2.910  20.950  0.00  0.00    +0.000 A 
ATOM      8  C   UNL     1       3.973   3.646  19.965  0.00  0.00    +0.000 A 
ATOM      9  C   UNL     1       3.421   4.856  19.526  0.00  0.00    +0.000 A 
ATOM     10  N   UNL     1       3.748   5.737  18.506  0.00  0.00    +0.000 N 
ATOM     11  C   UNL     1       2.979   6.893  18.601  0.00  0.00    +0.000 A 
ATOM     12  C   UNL     1       3.001   8.091  17.857  0.00  0.00    +0.000 A 
ATOM     13  C   UNL     1       2.071   9.079  18.186  0.00  0.00    +0.000 A 
ENDROOT
BRANCH   1  14
ATOM     14  O   UNL     1       0.275   9.897  19.518  0.00  0.00    +0.000 OA
ATOM     15  H   UNL     1       0.570  10.712  19.084  0.00  0.00    +0.000 HD
ENDBRANCH   1  14
BRANCH   7  16
ATOM     16  O   UNL     1       3.854   1.710  21.319  0.00  0.00    +0.000 OA
ATOM     17  H   UNL     1       4.109   1.239  20.505  0.00  0.00    +0.000 HD
ENDBRANCH   7  16
BRANCH   8  18
ATOM     18  O   UNL     1       5.167   3.165  19.486  0.00  0.00    +0.000 OA
ATOM     19  H   UNL     1       5.022   2.199  19.421  0.00  0.00    +0.000 HD
ENDBRANCH   8  18
BRANCH  13  20
ATOM     20  O   UNL     1       2.063  10.260  17.492  0.00  0.00    +0.000 OA
ATOM     21  H   UNL     1       2.684  10.197  16.753  0.00  0.00    +0.000 HD
ENDBRANCH  13  20
BRANCH  10  22
ATOM     22  C   UNL     1       4.707   5.475  17.433  0.00  0.00    +0.000 C 
BRANCH  22  23
ATOM     23  C   UNL     1       6.039   6.140  17.716  0.00  0.00    +0.000 A 
ATOM     24  C   UNL     1       6.915   5.627  18.686  0.00  0.00    +0.000 A 
ATOM     25  C   UNL     1       8.087   6.309  19.025  0.00  0.00    +0.000 A 
ATOM     26  C   UNL     1       8.407   7.503  18.386  0.00  0.00    +0.000 A 
ATOM     27  C   UNL     1       7.570   8.003  17.391  0.00  0.00    +0.000 A 
ATOM     28  C   UNL     1       6.396   7.325  17.056  0.00  0.00    +0.000 A 
ENDBRANCH  22  23
ENDBRANCH  10  22
TORSDOF 6
ENDMDL
MODEL 5
REMARK VINA RESULT:      -7.3      2.440      4.763
REMARK  Name = 
REMARK  6 active torsions:
REMARK  status: ('A' for Active; 'I' for Inactive)
REMARK    1  A    between atoms: O_1  and  C_2
REMARK    2  A    between atoms: C_8  and  O_9
REMARK    3  A    between atoms: C_10  and  O_11
REMARK    4  A    between atoms: N_13  and  C_14
REMARK    5  A    between atoms: C_14  and  C_15
REMARK    6  A    between atoms: C_23  and  O_24
REMARK                            x       y       z     vdW  Elec       q    Type
REMARK                         _______ _______ _______ _____ _____    ______ ____
ROOT
ATOM      1  C   UNL     1       2.569   3.460  20.876  0.00  0.00    +0.000 A 
ATOM      2  C   UNL     1       2.078   4.741  21.134  0.00  0.00    +0.000 A 
ATOM      3  C   UNL     1       2.275   5.761  20.178  0.00  0.00    +0.000 A 
ATOM      4  C   UNL     1       1.898   7.137  20.132  0.00  0.00    +0.000 A 
ATOM      5  C   UNL     1       1.241   7.987  21.052  0.00  0.00    +0.000 A 
ATOM      6  C   UNL     1       0.936   9.304  20.701  0.00  0.00    +0.000 A 
ATOM      7  C   UNL     1       1.233   9.750  19.424  0.00  0.00    +0.000 A 
ATOM      8  C   UNL     1       1.877   8.928  18.490  0.00  0.00    +0.000 A 
ATOM      9  C   UNL     1       2.261   7.636  18.872  0.00  0.00    +0.000 A 
ATOM     10  N   UNL     1       3.009   6.645  18.255  0.00  0.00    +0.000 N 
ATOM     11  C   UNL     1       2.953   5.467  18.994  0.00  0.00    +0.000 A 
ATOM     12  C   UNL     1       3.474   4.181  18.740  0.00  0.00    +0.000 A 
ATOM     13  C   UNL     1       3.264   3.191  19.703  0.00  0.00    +0.000 A 
ENDROOT
BRANCH   1  14
ATOM     14  O   UNL     1       2.361   2.455  21.779  0.00  0.00    +0.000 OA
ATOM     15  H   UNL     1       3.131   2.395  22.364  0.00  0.00    +0.000 HD
ENDBRANCH   1  14
BRANCH   7  16
ATOM     16  O   UNL     1       0.914  11.022  19.023  0.00  0.00    +0.000 OA
ATOM     17  H   UNL     1       0.941  11.596  19.810  0.00  0.00    +0.000 HD
ENDBRANCH   7  16
BRANCH   8  18
ATOM     18  O   UNL     1       2.081   9.412  17.221  0.00  0.00    +0.000 OA
ATOM     19  H   UNL     1       1.889  10.368  17.301  0.00  0.00    +0.000 HD
ENDBRANCH   8  18
BRANCH  13  20
ATOM     20  O   UNL     1       3.748   1.927  19.492  0.00  0.00    +0.000 OA
ATOM     21  H   UNL     1       3.859   1.785  18.541  0.00  0.00    +0.000 HD
ENDBRANCH  13  20
BRANCH  10  22
ATOM     22  C   UNL     1       3.810   6.815  17.042  0.00  0.00    +0.000 C 
BRANCH  22  23
ATOM     23  C   UNL     1       5.164   6.149  17.183  0.00  0.00    +0.000 A 
ATOM     24  C   UNL     1       5.542   5.089  16.345  0.00  0.00    +0.000 A 
ATOM     25  C   UNL     1       6.742   4.403  16.555  0.00  0.00    +0.000 A 
ATOM     26  C   UNL     1       7.586   4.780  17.596  0.00  0.00    +0.000 A 
ATOM     27  C   UNL     1       7.245   5.857  18.410  0.00  0.00    +0.000 A 
ATOM     28  C   UNL     1       6.043   6.539  18.203  0.00  0.00    +0.000 A 
ENDBRANCH  22  23
ENDBRANCH  10  22
TORSDOF 6
ENDMDL
MODEL 6
REMARK VINA RESULT:      -7.3      1.121      1.366
REMARK  Name = 
REMARK  6 active torsions:
REMARK  status: ('A' for Active; 'I' for Inactive)
REMARK    1  A    between atoms: O_1  and  C_2
REMARK    2  A    between atoms: C_8  and  O_9
REMARK    3  A    between atoms: C_10  and  O_11
REMARK    4  A    between atoms: N_13  and  C_14
REMARK    5  A    between atoms: C_14  and  C_15
REMARK    6  A    between atoms: C_23  and  O_24
REMARK                            x       y       z     vdW  Elec       q    Type
REMARK                         _______ _______ _______ _____ _____    ______ ____
ROOT
ATOM      1  C   UNL     1       5.370   6.034  16.609  0.00  0.00    +0.000 A 
ATOM      2  C   UNL     1       4.454   7.082  16.712  0.00  0.00    +0.000 A 
ATOM      3  C   UNL     1       3.597   7.142  17.832  0.00  0.00    +0.000 A 
ATOM      4  C   UNL     1       2.585   8.063  18.234  0.00  0.00    +0.000 A 
ATOM      5  C   UNL     1       2.037   9.218  17.627  0.00  0.00    +0.000 A 
ATOM      6  C   UNL     1       1.081   9.981  18.301  0.00  0.00    +0.000 A 
ATOM      7  C   UNL     1       0.718   9.628  19.590  0.00  0.00    +0.000 A 
ATOM      8  C   UNL     1       1.249   8.494  20.218  0.00  0.00    +0.000 A 
ATOM      9  C   UNL     1       2.141   7.680  19.510  0.00  0.00    +0.000 A 
ATOM     10  N   UNL     1       2.730   6.454  19.780  0.00  0.00    +0.000 N 
ATOM     11  C   UNL     1       3.686   6.153  18.814  0.00  0.00    +0.000 A 
ATOM     12  C   UNL     1       4.591   5.078  18.701  0.00  0.00    +0.000 A 
ATOM     13  C   UNL     1       5.427   5.044  17.583  0.00  0.00    +0.000 A 
ENDROOT
BRANCH   1  14
ATOM     14  O   UNL     1       6.227   5.979  15.545  0.00  0.00    +0.000 OA
ATOM     15  H   UNL     1       7.092   6.321  15.821  0.00  0.00    +0.000 HD
ENDBRANCH   1  14
BRANCH   7  16
ATOM     16  O   UNL     1      -0.186  10.373  20.303  0.00  0.00    +0.000 OA
ATOM     17  H   UNL     1      -0.413   9.872  21.108  0.00  0.00    +0.000 HD
ENDBRANCH   7  16
BRANCH   8  18
ATOM     18  O   UNL     1       0.896   8.241  21.521  0.00  0.00    +0.000 OA
ATOM     19  H   UNL     1       0.316   8.993  21.757  0.00  0.00    +0.000 HD
ENDBRANCH   8  18
BRANCH  13  20
ATOM     20  O   UNL     1       6.326   4.021  17.438  0.00  0.00    +0.000 OA
ATOM     21  H   UNL     1       6.599   3.713  18.315  0.00  0.00    +0.000 HD
ENDBRANCH  13  20
BRANCH  10  22
ATOM     22  C   UNL     1       2.360   5.557  20.875  0.00  0.00    +0.000 C 
BRANCH  22  23
ATOM     23  C   UNL     1       1.961   4.191  20.351  0.00  0.00    +0.000 A 
ATOM     24  C   UNL     1       2.516   3.018  20.884  0.00  0.00    +0.000 A 
ATOM     25  C   UNL     1       2.233   1.771  20.321  0.00  0.00    +0.000 A 
ATOM     26  C   UNL     1       1.376   1.680  19.227  0.00  0.00    +0.000 A 
ATOM     27  C   UNL     1       0.783   2.830  18.713  0.00  0.00    +0.000 A 
ATOM     28  C   UNL     1       1.071   4.078  19.273  0.00  0.00    +0.000 A 
ENDBRANCH  22  23
ENDBRANCH  10  22
TORSDOF 6
ENDMDL
MODEL 7
REMARK VINA RESULT:      -7.1      0.847      1.212
REMARK  Name = 
REMARK  6 active torsions:
REMARK  status: ('A' for Active; 'I' for Inactive)
REMARK    1  A    between atoms: O_1  and  C_2
REMARK    2  A    between atoms: C_8  and  O_9
REMARK    3  A    between atoms: C_10  and  O_11
REMARK    4  A    between atoms: N_13  and  C_14
REMARK    5  A    between atoms: C_14  and  C_15
REMARK    6  A    between atoms: C_23  and  O_24
REMARK                            x       y       z     vdW  Elec       q    Type
REMARK                         _______ _______ _______ _____ _____    ______ ____
ROOT
ATOM      1  C   UNL     1       5.663   5.913  16.078  0.00  0.00    +0.000 A 
ATOM      2  C   UNL     1       4.739   6.935  16.305  0.00  0.00    +0.000 A 
ATOM      3  C   UNL     1       3.957   6.910  17.481  0.00  0.00    +0.000 A 
ATOM      4  C   UNL     1       2.959   7.785  18.004  0.00  0.00    +0.000 A 
ATOM      5  C   UNL     1       2.354   8.963  17.506  0.00  0.00    +0.000 A 
ATOM      6  C   UNL     1       1.433   9.666  18.286  0.00  0.00    +0.000 A 
ATOM      7  C   UNL     1       1.162   9.228  19.572  0.00  0.00    +0.000 A 
ATOM      8  C   UNL     1       1.752   8.069  20.093  0.00  0.00    +0.000 A 
ATOM      9  C   UNL     1       2.608   7.317  19.279  0.00  0.00    +0.000 A 
ATOM     10  N   UNL     1       3.232   6.088  19.434  0.00  0.00    +0.000 N 
ATOM     11  C   UNL     1       4.126   5.865  18.392  0.00  0.00    +0.000 A 
ATOM     12  C   UNL     1       5.039   4.817  18.154  0.00  0.00    +0.000 A 
ATOM     13  C   UNL     1       5.799   4.868  16.983  0.00  0.00    +0.000 A 
ENDROOT
BRANCH   1  14
ATOM     14  O   UNL     1       6.448   5.939  14.959  0.00  0.00    +0.000 OA
ATOM     15  H   UNL     1       7.286   6.376  15.174  0.00  0.00    +0.000 HD
ENDBRANCH   1  14
BRANCH   7  16
ATOM     16  O   UNL     1       0.296   9.910  20.387  0.00  0.00    +0.000 OA
ATOM     17  H   UNL     1      -0.460  10.196  19.842  0.00  0.00    +0.000 HD
ENDBRANCH   7  16
BRANCH   8  18
ATOM     18  O   UNL     1       1.489   7.730  21.398  0.00  0.00    +0.000 OA
ATOM     19  H   UNL     1       2.152   8.237  21.909  0.00  0.00    +0.000 HD
ENDBRANCH   8  18
BRANCH  13  20
ATOM     20  O   UNL     1       6.703   3.873  16.718  0.00  0.00    +0.000 OA
ATOM     21  H   UNL     1       6.339   3.288  16.037  0.00  0.00    +0.000 HD
ENDBRANCH  13  20
BRANCH  10  22
ATOM     22  C   UNL     1       2.950   5.120  20.493  0.00  0.00    +0.000 C 
BRANCH  22  23
ATOM     23  C   UNL     1       2.333   3.856  19.928  0.00  0.00    +0.000 A 
ATOM     24  C   UNL     1       1.014   3.842  19.450  0.00  0.00    +0.000 A 
ATOM     25  C   UNL     1       0.413   2.650  19.039  0.00  0.00    +0.000 A 
ATOM     26  C   UNL     1       1.130   1.457  19.084  0.00  0.00    +0.000 A 
ATOM     27  C   UNL     1       2.454   1.460  19.515  0.00  0.00    +0.000 A 
ATOM     28  C   UNL     1       3.053   2.652  19.932  0.00  0.00    +0.000 A 
ENDBRANCH  22  23
ENDBRANCH  10  22
TORSDOF 6
ENDMDL
MODEL 8
REMARK VINA RESULT:      -6.9      1.921      6.479
REMARK  Name = 
REMARK  6 active torsions:
REMARK  status: ('A' for Active; 'I' for Inactive)
REMARK    1  A    between atoms: O_1  and  C_2
REMARK    2  A    between atoms: C_8  and  O_9
REMARK    3  A    between atoms: C_10  and  O_11
REMARK    4  A    between atoms: N_13  and  C_14
REMARK    5  A    between atoms: C_14  and  C_15
REMARK    6  A    between atoms: C_23  and  O_24
REMARK                            x       y       z     vdW  Elec       q    Type
REMARK                         _______ _______ _______ _____ _____    ______ ____
ROOT
ATOM      1  C   UNL     1       0.936   7.644  20.762  0.00  0.00    +0.000 A 
ATOM      2  C   UNL     1       0.983   6.250  20.712  0.00  0.00    +0.000 A 
ATOM      3  C   UNL     1       1.869   5.621  19.810  0.00  0.00    +0.000 A 
ATOM      4  C   UNL     1       2.161   4.254  19.527  0.00  0.00    +0.000 A 
ATOM      5  C   UNL     1       1.627   3.035  20.010  0.00  0.00    +0.000 A 
ATOM      6  C   UNL     1       2.169   1.816  19.596  0.00  0.00    +0.000 A 
ATOM      7  C   UNL     1       3.268   1.815  18.753  0.00  0.00    +0.000 A 
ATOM      8  C   UNL     1       3.822   3.006  18.266  0.00  0.00    +0.000 A 
ATOM      9  C   UNL     1       3.224   4.224  18.611  0.00  0.00    +0.000 A 
ATOM     10  N   UNL     1       3.432   5.535  18.207  0.00  0.00    +0.000 N 
ATOM     11  C   UNL     1       2.681   6.407  18.989  0.00  0.00    +0.000 A 
ATOM     12  C   UNL     1       2.618   7.815  19.018  0.00  0.00    +0.000 A 
ATOM     13  C   UNL     1       1.733   8.410  19.920  0.00  0.00    +0.000 A 
ENDROOT
BRANCH   1  14
ATOM     14  O   UNL     1       0.105   8.267  21.651  0.00  0.00    +0.000 OA
ATOM     15  H   UNL     1      -0.811   8.151  21.358  0.00  0.00    +0.000 HD
ENDBRANCH   1  14
BRANCH   7  16
ATOM     16  O   UNL     1       3.857   0.643  18.355  0.00  0.00    +0.000 OA
ATOM     17  H   UNL     1       4.531   0.862  17.685  0.00  0.00    +0.000 HD
ENDBRANCH   7  16
BRANCH   8  18
ATOM     18  O   UNL     1       4.951   2.934  17.489  0.00  0.00    +0.000 OA
ATOM     19  H   UNL     1       5.683   3.050  18.128  0.00  0.00    +0.000 HD
ENDBRANCH   8  18
BRANCH  13  20
ATOM     20  O   UNL     1       1.647   9.776  19.984  0.00  0.00    +0.000 OA
ATOM     21  H   UNL     1       1.459  10.039  20.897  0.00  0.00    +0.000 HD
ENDBRANCH  13  20
BRANCH  10  22
ATOM     22  C   UNL     1       4.260   5.954  17.076  0.00  0.00    +0.000 C 
BRANCH  22  23
ATOM     23  C   UNL     1       5.660   6.316  17.529  0.00  0.00    +0.000 A 
ATOM     24  C   UNL     1       6.316   5.575  18.524  0.00  0.00    +0.000 A 
ATOM     25  C   UNL     1       7.558   5.982  19.019  0.00  0.00    +0.000 A 
ATOM     26  C   UNL     1       8.168   7.126  18.512  0.00  0.00    +0.000 A 
ATOM     27  C   UNL     1       7.550   7.848  17.495  0.00  0.00    +0.000 A 
ATOM     28  C   UNL     1       6.306   7.444  17.003  0.00  0.00    +0.000 A 
ENDBRANCH  22  23
ENDBRANCH  10  22
TORSDOF 6
ENDMDL
MODEL 9
REMARK VINA RESULT:      -6.9      2.205      4.812
REMARK  Name = 
REMARK  6 active torsions:
REMARK  status: ('A' for Active; 'I' for Inactive)
REMARK    1  A    between atoms: O_1  and  C_2
REMARK    2  A    between atoms: C_8  and  O_9
REMARK    3  A    between atoms: C_10  and  O_11
REMARK    4  A    between atoms: N_13  and  C_14
REMARK    5  A    between atoms: C_14  and  C_15
REMARK    6  A    between atoms: C_23  and  O_24
REMARK                            x       y       z     vdW  Elec       q    Type
REMARK                         _______ _______ _______ _____ _____    ______ ____
ROOT
ATOM      1  C   UNL     1       7.487   5.501  19.182  0.00  0.00    +0.000 A 
ATOM      2  C   UNL     1       6.506   4.546  19.457  0.00  0.00    +0.000 A 
ATOM      3  C   UNL     1       5.199   4.736  18.958  0.00  0.00    +0.000 A 
ATOM      4  C   UNL     1       4.003   3.964  19.046  0.00  0.00    +0.000 A 
ATOM      5  C   UNL     1       3.682   2.757  19.712  0.00  0.00    +0.000 A 
ATOM      6  C   UNL     1       2.418   2.183  19.560  0.00  0.00    +0.000 A 
ATOM      7  C   UNL     1       1.503   2.778  18.707  0.00  0.00    +0.000 A 
ATOM      8  C   UNL     1       1.796   3.969  18.030  0.00  0.00    +0.000 A 
ATOM      9  C   UNL     1       3.031   4.590  18.251  0.00  0.00    +0.000 A 
ATOM     10  N   UNL     1       3.569   5.806  17.856  0.00  0.00    +0.000 N 
ATOM     11  C   UNL     1       4.915   5.874  18.200  0.00  0.00    +0.000 A 
ATOM     12  C   UNL     1       5.896   6.854  17.943  0.00  0.00    +0.000 A 
ATOM     13  C   UNL     1       7.180   6.640  18.448  0.00  0.00    +0.000 A 
ENDROOT
BRANCH   1  14
ATOM     14  O   UNL     1       8.764   5.317  19.633  0.00  0.00    +0.000 OA
ATOM     15  H   UNL     1       8.945   5.961  20.334  0.00  0.00    +0.000 HD
ENDBRANCH   1  14
BRANCH   7  16
ATOM     16  O   UNL     1       0.265   2.227  18.497  0.00  0.00    +0.000 OA
ATOM     17  H   UNL     1      -0.189   2.766  17.823  0.00  0.00    +0.000 HD
ENDBRANCH   7  16
BRANCH   8  18
ATOM     18  O   UNL     1       0.868   4.467  17.149  0.00  0.00    +0.000 OA
ATOM     19  H   UNL     1       0.113   4.718  17.720  0.00  0.00    +0.000 HD
ENDBRANCH   8  18
BRANCH  13  20
ATOM     20  O   UNL     1       8.163   7.565  18.214  0.00  0.00    +0.000 OA
ATOM     21  H   UNL     1       7.753   8.414  17.994  0.00  0.00    +0.000 HD
ENDBRANCH  13  20
BRANCH  10  22
ATOM     22  C   UNL     1       2.825   6.901  17.233  0.00  0.00    +0.000 C 
BRANCH  22  23
ATOM     23  C   UNL     1       2.231   7.823  18.280  0.00  0.00    +0.000 A 
ATOM     24  C   UNL     1       2.126   7.425  19.622  0.00  0.00    +0.000 A 
ATOM     25  C   UNL     1       1.472   8.230  20.558  0.00  0.00    +0.000 A 
ATOM     26  C   UNL     1       0.931   9.452  20.168  0.00  0.00    +0.000 A 
ATOM     27  C   UNL     1       1.064   9.880  18.850  0.00  0.00    +0.000 A 
ATOM     28  C   UNL     1       1.713   9.073  17.912  0.00  0.00    +0.000 A 
ENDBRANCH  22  23
ENDBRANCH  10  22
TORSDOF 6
ENDMDL
