MODEL 1
REMARK VINA RESULT:      -7.4      0.000      0.000
REMARK  Name = 
REMARK  8 active torsions:
REMARK  status: ('A' for Active; 'I' for Inactive)
REMARK    1  A    between atoms: C_1  and  O_2
REMARK    2  A    between atoms: O_2  and  C_3
REMARK    3  A    between atoms: C_3  and  C_5
REMARK    4  A    between atoms: C_5  and  C_6
REMARK    5  A    between atoms: C_6  and  N_7
REMARK    6  A    between atoms: C_8  and  C_10
REMARK    7  A    between atoms: C_13  and  N_14
REMARK    8  A    between atoms: C_15  and  C_17
REMARK                            x       y       z     vdW  Elec       q    Type
REMARK                         _______ _______ _______ _____ _____    ______ ____
ROOT
ATOM      1  C   UNL     1       5.024   5.701  18.584  0.00  0.00    +0.000 C 
ATOM      2  C   UNL     1       5.719   4.359  18.327  0.00  0.00    +0.000 C 
ATOM      3  C   UNL     1       7.147   4.524  17.810  0.00  0.00    +0.000 C 
ATOM      4  C   UNL     1       7.210   5.373  16.535  0.00  0.00    +0.000 C 
ATOM      5  C   UNL     1       6.558   6.736  16.808  0.00  0.00    +0.000 C 
ATOM      6  C   UNL     1       5.130   6.619  17.348  0.00  0.00    +0.000 C 
ENDROOT
BRANCH   1   8
ATOM      7  N   UNL     1       2.849   4.624  18.127  0.00  0.00    +0.000 N 
ATOM      8  C   UNL     1       3.555   5.471  18.952  0.00  0.00    +0.000 C 
ATOM      9  O   UNL     1       3.036   6.010  19.926  0.00  0.00    +0.000 OA
ATOM     10  H   UNL     1       3.281   4.240  17.294  0.00  0.00    +0.000 HD
BRANCH   7  11
ATOM     11  C   UNL     1       1.455   4.308  18.409  0.00  0.00    +0.000 C 
BRANCH  11  12
ATOM     12  C   UNL     1       1.206   2.818  18.628  0.00  0.00    +0.000 C 
BRANCH  12  13
ATOM     13  C   UNL     1       2.182   2.281  19.648  0.00  0.00    +0.000 C 
ATOM     14  O   UNL     1       3.336   1.952  19.409  0.00  0.00    +0.000 OA
BRANCH  13  16
ATOM     15  C   UNL     1       1.984   3.229  21.779  0.00  0.00    +0.000 C 
ATOM     16  O   UNL     1       1.591   2.192  20.873  0.00  0.00    +0.000 OA
ENDBRANCH  13  16
ENDBRANCH  12  13
ENDBRANCH  11  12
ENDBRANCH   7  11
ENDBRANCH   1   8
BRANCH   4  17
ATOM     17  N   UNL     1       6.601   4.696  15.395  0.00  0.00    +0.000 N 
ATOM     18  C   UNL     1       7.063   4.860  14.099  0.00  0.00    +0.000 C 
ATOM     19  O   UNL     1       7.987   5.599  13.807  0.00  0.00    +0.000 OA
ATOM     20  H   UNL     1       5.946   3.953  15.584  0.00  0.00    +0.000 HD
BRANCH  18  21
ATOM     21  C   UNL     1       6.362   4.060  13.106  0.00  0.00    +0.000 A 
ATOM     22  C   UNL     1       5.158   4.299  12.463  0.00  0.00    +0.000 A 
ATOM     23  C   UNL     1       4.876   3.198  11.635  0.00  0.00    +0.000 A 
ATOM     24 BR   UNL     1       3.296   3.066  10.633  0.00  0.00    +0.000 Br
ATOM     25  C   UNL     1       5.911   2.312  11.755  0.00  0.00    +0.000 A 
ATOM     26 BR   UNL     1       6.060   0.642  10.941  0.00  0.00    +0.000 Br
ATOM     27  N   UNL     1       6.828   2.847  12.620  0.00  0.00    +0.000 N 
ATOM     28  H   UNL     1       7.682   2.393  12.912  0.00  0.00    +0.000 HD
ENDBRANCH  18  21
ENDBRANCH   4  17
TORSDOF 7
ENDMDL
MODEL 2
REMARK VINA RESULT:      -7.2      1.111      1.821
REMARK  Name = 
REMARK  8 active torsions:
REMARK  status: ('A' for Active; 'I' for Inactive)
REMARK    1  A    between atoms: C_1  and  O_2
REMARK    2  A    between atoms: O_2  and  C_3
REMARK    3  A    between atoms: C_3  and  C_5
REMARK    4  A    between atoms: C_5  and  C_6
REMARK    5  A    between atoms: C_6  and  N_7
REMARK    6  A    between atoms: C_8  and  C_10
REMARK    7  A    between atoms: C_13  and  N_14
REMARK    8  A    between atoms: C_15  and  C_17
REMARK                            x       y       z     vdW  Elec       q    Type
REMARK                         _______ _______ _______ _____ _____    ______ ____
ROOT
ATOM      1  C   UNL     1       4.692   5.872  18.662  0.00  0.00    +0.000 C 
ATOM      2  C   UNL     1       5.440   4.543  18.504  0.00  0.00    +0.000 C 
ATOM      3  C   UNL     1       6.882   4.730  18.034  0.00  0.00    +0.000 C 
ATOM      4  C   UNL     1       6.969   5.514  16.720  0.00  0.00    +0.000 C 
ATOM      5  C   UNL     1       6.264   6.866  16.895  0.00  0.00    +0.000 C 
ATOM      6  C   UNL     1       4.819   6.728  17.384  0.00  0.00    +0.000 C 
ENDROOT
BRANCH   1   8
ATOM      7  N   UNL     1       2.951   5.120  20.244  0.00  0.00    +0.000 N 
ATOM      8  C   UNL     1       3.218   5.612  18.985  0.00  0.00    +0.000 C 
ATOM      9  O   UNL     1       2.325   5.829  18.171  0.00  0.00    +0.000 OA
ATOM     10  H   UNL     1       3.710   4.891  20.877  0.00  0.00    +0.000 HD
BRANCH   7  11
ATOM     11  C   UNL     1       1.579   4.873  20.667  0.00  0.00    +0.000 C 
BRANCH  11  12
ATOM     12  C   UNL     1       1.296   3.405  20.970  0.00  0.00    +0.000 C 
BRANCH  12  13
ATOM     13  C   UNL     1       2.349   2.536  20.324  0.00  0.00    +0.000 C 
ATOM     14  O   UNL     1       3.500   2.415  20.723  0.00  0.00    +0.000 OA
BRANCH  13  16
ATOM     15  C   UNL     1       2.620   2.137  18.033  0.00  0.00    +0.000 C 
ATOM     16  O   UNL     1       1.845   1.918  19.218  0.00  0.00    +0.000 OA
ENDBRANCH  13  16
ENDBRANCH  12  13
ENDBRANCH  11  12
ENDBRANCH   7  11
ENDBRANCH   1   8
BRANCH   4  17
ATOM     17  N   UNL     1       6.429   4.758  15.594  0.00  0.00    +0.000 N 
ATOM     18  C   UNL     1       6.942   4.865  14.312  0.00  0.00    +0.000 C 
ATOM     19  O   UNL     1       7.858   5.614  14.019  0.00  0.00    +0.000 OA
ATOM     20  H   UNL     1       5.786   4.007  15.797  0.00  0.00    +0.000 HD
BRANCH  18  21
ATOM     21  C   UNL     1       6.307   3.992  13.336  0.00  0.00    +0.000 A 
ATOM     22  C   UNL     1       6.746   2.793  12.799  0.00  0.00    +0.000 A 
ATOM     23  C   UNL     1       5.802   2.364  11.849  0.00  0.00    +0.000 A 
ATOM     24 BR   UNL     1       6.037   0.816  10.818  0.00  0.00    +0.000 Br
ATOM     25  C   UNL     1       4.788   3.283  11.828  0.00  0.00    +0.000 A 
ATOM     26 BR   UNL     1       3.290   3.276  10.719  0.00  0.00    +0.000 Br
ATOM     27  N   UNL     1       5.076   4.252  12.752  0.00  0.00    +0.000 N 
ATOM     28  H   UNL     1       4.509   5.069  12.930  0.00  0.00    +0.000 HD
ENDBRANCH  18  21
ENDBRANCH   4  17
TORSDOF 7
ENDMDL
MODEL 3
REMARK VINA RESULT:      -7.1      0.933      1.292
REMARK  Name = 
REMARK  8 active torsions:
REMARK  status: ('A' for Active; 'I' for Inactive)
REMARK    1  A    between atoms: C_1  and  O_2
REMARK    2  A    between atoms: O_2  and  C_3
REMARK    3  A    between atoms: C_3  and  C_5
REMARK    4  A    between atoms: C_5  and  C_6
REMARK    5  A    between atoms: C_6  and  N_7
REMARK    6  A    between atoms: C_8  and  C_10
REMARK    7  A    between atoms: C_13  and  N_14
REMARK    8  A    between atoms: C_15  and  C_17
REMARK                            x       y       z     vdW  Elec       q    Type
REMARK                         _______ _______ _______ _____ _____    ______ ____
ROOT
ATOM      1  C   UNL     1       4.806   6.101  18.610  0.00  0.00    +0.000 C 
ATOM      2  C   UNL     1       5.305   4.658  18.485  0.00  0.00    +0.000 C 
ATOM      3  C   UNL     1       6.790   4.576  18.133  0.00  0.00    +0.000 C 
ATOM      4  C   UNL     1       7.125   5.335  16.845  0.00  0.00    +0.000 C 
ATOM      5  C   UNL     1       6.670   6.794  16.991  0.00  0.00    +0.000 C 
ATOM      6  C   UNL     1       5.190   6.924  17.363  0.00  0.00    +0.000 C 
ENDROOT
BRANCH   1   8
ATOM      7  N   UNL     1       2.787   5.213  19.723  0.00  0.00    +0.000 N 
ATOM      8  C   UNL     1       3.287   6.118  18.811  0.00  0.00    +0.000 C 
ATOM      9  O   UNL     1       2.557   6.891  18.198  0.00  0.00    +0.000 OA
ATOM     10  H   UNL     1       3.402   4.543  20.171  0.00  0.00    +0.000 HD
BRANCH   7  11
ATOM     11  C   UNL     1       1.361   5.171  20.017  0.00  0.00    +0.000 C 
BRANCH  11  12
ATOM     12  C   UNL     1       0.872   3.787  20.436  0.00  0.00    +0.000 C 
BRANCH  12  13
ATOM     13  C   UNL     1       1.939   3.091  21.247  0.00  0.00    +0.000 C 
ATOM     14  O   UNL     1       2.190   3.323  22.422  0.00  0.00    +0.000 OA
BRANCH  13  16
ATOM     15  C   UNL     1       1.897   1.809  19.288  0.00  0.00    +0.000 C 
ATOM     16  O   UNL     1       2.600   2.178  20.481  0.00  0.00    +0.000 OA
ENDBRANCH  13  16
ENDBRANCH  12  13
ENDBRANCH  11  12
ENDBRANCH   7  11
ENDBRANCH   1   8
BRANCH   4  17
ATOM     17  N   UNL     1       6.548   4.698  15.666  0.00  0.00    +0.000 N 
ATOM     18  C   UNL     1       7.058   4.888  14.393  0.00  0.00    +0.000 C 
ATOM     19  O   UNL     1       8.003   5.619  14.153  0.00  0.00    +0.000 OA
ATOM     20  H   UNL     1       5.875   3.961  15.813  0.00  0.00    +0.000 HD
BRANCH  18  21
ATOM     21  C   UNL     1       6.381   4.125  13.355  0.00  0.00    +0.000 A 
ATOM     22  C   UNL     1       5.150   4.340  12.755  0.00  0.00    +0.000 A 
ATOM     23  C   UNL     1       4.912   3.291  11.850  0.00  0.00    +0.000 A 
ATOM     24 BR   UNL     1       3.320   3.142  10.872  0.00  0.00    +0.000 Br
ATOM     25  C   UNL     1       5.999   2.461  11.883  0.00  0.00    +0.000 A 
ATOM     26 BR   UNL     1       6.224   0.869  10.939  0.00  0.00    +0.000 Br
ATOM     27  N   UNL     1       6.904   2.983  12.769  0.00  0.00    +0.000 N 
ATOM     28  H   UNL     1       7.789   2.559  13.008  0.00  0.00    +0.000 HD
ENDBRANCH  18  21
ENDBRANCH   4  17
TORSDOF 7
ENDMDL
MODEL 4
REMARK VINA RESULT:      -7.1      1.246      1.652
REMARK  Name = 
REMARK  8 active torsions:
REMARK  status: ('A' for Active; 'I' for Inactive)
REMARK    1  A    between atoms: C_1  and  O_2
REMARK    2  A    between atoms: O_2  and  C_3
REMARK    3  A    between atoms: C_3  and  C_5
REMARK    4  A    between atoms: C_5  and  C_6
REMARK    5  A    between atoms: C_6  and  N_7
REMARK    6  A    between atoms: C_8  and  C_10
REMARK    7  A    between atoms: C_13  and  N_14
REMARK    8  A    between atoms: C_15  and  C_17
REMARK                            x       y       z     vdW  Elec       q    Type
REMARK                         _______ _______ _______ _____ _____    ______ ____
ROOT
ATOM      1  C   UNL     1       5.344   4.763  18.776  0.00  0.00    +0.000 C 
ATOM      2  C   UNL     1       6.581   4.393  17.951  0.00  0.00    +0.000 C 
ATOM      3  C   UNL     1       7.203   5.598  17.247  0.00  0.00    +0.000 C 
ATOM      4  C   UNL     1       6.199   6.327  16.347  0.00  0.00    +0.000 C 
ATOM      5  C   UNL     1       4.983   6.743  17.186  0.00  0.00    +0.000 C 
ATOM      6  C   UNL     1       4.338   5.568  17.926  0.00  0.00    +0.000 C 
ENDROOT
BRANCH   1   8
ATOM      7  N   UNL     1       3.759   2.888  18.507  0.00  0.00    +0.000 N 
ATOM      8  C   UNL     1       4.681   3.498  19.330  0.00  0.00    +0.000 C 
ATOM      9  O   UNL     1       4.955   3.051  20.440  0.00  0.00    +0.000 OA
ATOM     10  H   UNL     1       3.504   3.309  17.621  0.00  0.00    +0.000 HD
BRANCH   7  11
ATOM     11  C   UNL     1       3.097   1.658  18.921  0.00  0.00    +0.000 C 
BRANCH  11  12
ATOM     12  C   UNL     1       1.595   1.821  19.131  0.00  0.00    +0.000 C 
BRANCH  12  13
ATOM     13  C   UNL     1       1.226   3.285  19.078  0.00  0.00    +0.000 C 
ATOM     14  O   UNL     1       1.038   3.924  18.050  0.00  0.00    +0.000 OA
BRANCH  13  16
ATOM     15  C   UNL     1       1.450   5.205  20.399  0.00  0.00    +0.000 C 
ATOM     16  O   UNL     1       1.152   3.805  20.335  0.00  0.00    +0.000 OA
ENDBRANCH  13  16
ENDBRANCH  12  13
ENDBRANCH  11  12
ENDBRANCH   7  11
ENDBRANCH   1   8
BRANCH   4  17
ATOM     17  N   UNL     1       5.816   5.525  15.190  0.00  0.00    +0.000 N 
ATOM     18  C   UNL     1       6.746   4.987  14.317  0.00  0.00    +0.000 C 
ATOM     19  O   UNL     1       7.947   5.164  14.426  0.00  0.00    +0.000 OA
ATOM     20  H   UNL     1       4.860   5.207  15.134  0.00  0.00    +0.000 HD
BRANCH  18  21
ATOM     21  C   UNL     1       6.173   4.172  13.255  0.00  0.00    +0.000 A 
ATOM     22  C   UNL     1       4.996   4.341  12.543  0.00  0.00    +0.000 A 
ATOM     23  C   UNL     1       4.854   3.253  11.665  0.00  0.00    +0.000 A 
ATOM     24 BR   UNL     1       3.355   3.037  10.559  0.00  0.00    +0.000 Br
ATOM     25  C   UNL     1       5.945   2.444  11.825  0.00  0.00    +0.000 A 
ATOM     26 BR   UNL     1       6.275   0.821  10.970  0.00  0.00    +0.000 Br
ATOM     27  N   UNL     1       6.762   3.017  12.764  0.00  0.00    +0.000 N 
ATOM     28  H   UNL     1       7.629   2.619  13.096  0.00  0.00    +0.000 HD
ENDBRANCH  18  21
ENDBRANCH   4  17
TORSDOF 7
ENDMDL
MODEL 5
REMARK VINA RESULT:      -6.9      1.061      1.147
REMARK  Name = 
REMARK  8 active torsions:
REMARK  status: ('A' for Active; 'I' for Inactive)
REMARK    1  A    between atoms: C_1  and  O_2
REMARK    2  A    between atoms: O_2  and  C_3
REMARK    3  A    between atoms: C_3  and  C_5
REMARK    4  A    between atoms: C_5  and  C_6
REMARK    5  A    between atoms: C_6  and  N_7
REMARK    6  A    between atoms: C_8  and  C_10
REMARK    7  A    between atoms: C_13  and  N_14
REMARK    8  A    between atoms: C_15  and  C_17
REMARK                            x       y       z     vdW  Elec       q    Type
REMARK                         _______ _______ _______ _____ _____    ______ ____
ROOT
ATOM      1  C   UNL     1       3.982   6.019  18.680  0.00  0.00    +0.000 C 
ATOM      2  C   UNL     1       5.103   5.014  18.391  0.00  0.00    +0.000 C 
ATOM      3  C   UNL     1       6.412   5.690  17.988  0.00  0.00    +0.000 C 
ATOM      4  C   UNL     1       6.242   6.613  16.776  0.00  0.00    +0.000 C 
ATOM      5  C   UNL     1       5.155   7.652  17.087  0.00  0.00    +0.000 C 
ATOM      6  C   UNL     1       3.828   7.019  17.515  0.00  0.00    +0.000 C 
ENDROOT
BRANCH   1   8
ATOM      7  N   UNL     1       2.397   4.219  18.091  0.00  0.00    +0.000 N 
ATOM      8  C   UNL     1       2.663   5.281  18.928  0.00  0.00    +0.000 C 
ATOM      9  O   UNL     1       1.888   5.615  19.820  0.00  0.00    +0.000 OA
ATOM     10  H   UNL     1       3.022   4.001  17.324  0.00  0.00    +0.000 HD
BRANCH   7  11
ATOM     11  C   UNL     1       1.187   3.426  18.265  0.00  0.00    +0.000 C 
BRANCH  11  12
ATOM     12  C   UNL     1       1.380   2.224  19.184  0.00  0.00    +0.000 C 
BRANCH  12  13
ATOM     13  C   UNL     1       2.849   1.890  19.290  0.00  0.00    +0.000 C 
ATOM     14  O   UNL     1       3.506   1.331  18.421  0.00  0.00    +0.000 OA
BRANCH  13  16
ATOM     15  C   UNL     1       2.327   2.575  21.466  0.00  0.00    +0.000 C 
ATOM     16  O   UNL     1       3.342   2.281  20.499  0.00  0.00    +0.000 OA
ENDBRANCH  13  16
ENDBRANCH  12  13
ENDBRANCH  11  12
ENDBRANCH   7  11
ENDBRANCH   1   8
BRANCH   4  17
ATOM     17  N   UNL     1       5.952   5.868  15.555  0.00  0.00    +0.000 N 
ATOM     18  C   UNL     1       6.770   4.851  15.093  0.00  0.00    +0.000 C 
ATOM     19  O   UNL     1       7.804   4.520  15.647  0.00  0.00    +0.000 OA
ATOM     20  H   UNL     1       5.038   5.979  15.143  0.00  0.00    +0.000 HD
BRANCH  18  21
ATOM     21  C   UNL     1       6.287   4.191  13.889  0.00  0.00    +0.000 A 
ATOM     22  C   UNL     1       5.077   4.329  13.227  0.00  0.00    +0.000 A 
ATOM     23  C   UNL     1       5.063   3.429  12.147  0.00  0.00    +0.000 A 
ATOM     24 BR   UNL     1       3.578   3.225  11.021  0.00  0.00    +0.000 Br
ATOM     25  C   UNL     1       6.262   2.769  12.140  0.00  0.00    +0.000 A 
ATOM     26 BR   UNL     1       6.791   1.414  10.975  0.00  0.00    +0.000 Br
ATOM     27  N   UNL     1       7.017   3.254  13.175  0.00  0.00    +0.000 N 
ATOM     28  H   UNL     1       7.941   2.926  13.419  0.00  0.00    +0.000 HD
ENDBRANCH  18  21
ENDBRANCH   4  17
TORSDOF 7
ENDMDL
MODEL 6
REMARK VINA RESULT:      -6.9      4.380      8.297
REMARK  Name = 
REMARK  8 active torsions:
REMARK  status: ('A' for Active; 'I' for Inactive)
REMARK    1  A    between atoms: C_1  and  O_2
REMARK    2  A    between atoms: O_2  and  C_3
REMARK    3  A    between atoms: C_3  and  C_5
REMARK    4  A    between atoms: C_5  and  C_6
REMARK    5  A    between atoms: C_6  and  N_7
REMARK    6  A    between atoms: C_8  and  C_10
REMARK    7  A    between atoms: C_13  and  N_14
REMARK    8  A    between atoms: C_15  and  C_17
REMARK                            x       y       z     vdW  Elec       q    Type
REMARK                         _______ _______ _______ _____ _____    ______ ____
ROOT
ATOM      1  C   UNL     1       5.404   3.793  16.656  0.00  0.00    +0.000 C 
ATOM      2  C   UNL     1       5.837   4.514  17.937  0.00  0.00    +0.000 C 
ATOM      3  C   UNL     1       5.229   3.897  19.196  0.00  0.00    +0.000 C 
ATOM      4  C   UNL     1       3.698   3.851  19.139  0.00  0.00    +0.000 C 
ATOM      5  C   UNL     1       3.266   3.084  17.882  0.00  0.00    +0.000 C 
ATOM      6  C   UNL     1       3.868   3.656  16.596  0.00  0.00    +0.000 C 
ENDROOT
BRANCH   1   8
ATOM      7  N   UNL     1       6.184   3.780  14.312  0.00  0.00    +0.000 N 
ATOM      8  C   UNL     1       5.921   4.547  15.426  0.00  0.00    +0.000 C 
ATOM      9  O   UNL     1       6.090   5.763  15.432  0.00  0.00    +0.000 OA
ATOM     10  H   UNL     1       6.095   2.771  14.351  0.00  0.00    +0.000 HD
BRANCH   7  11
ATOM     11  C   UNL     1       6.643   4.402  13.078  0.00  0.00    +0.000 C 
BRANCH  11  12
ATOM     12  C   UNL     1       6.914   3.398  11.961  0.00  0.00    +0.000 C 
BRANCH  12  13
ATOM     13  C   UNL     1       5.666   2.596  11.679  0.00  0.00    +0.000 C 
ATOM     14  O   UNL     1       5.650   1.424  11.325  0.00  0.00    +0.000 OA
BRANCH  13  16
ATOM     15  C   UNL     1       3.652   3.334  10.741  0.00  0.00    +0.000 C 
ATOM     16  O   UNL     1       4.555   3.366  11.853  0.00  0.00    +0.000 OA
ENDBRANCH  13  16
ENDBRANCH  12  13
ENDBRANCH  11  12
ENDBRANCH   7  11
ENDBRANCH   1   8
BRANCH   4  17
ATOM     17  N   UNL     1       3.106   5.184  19.196  0.00  0.00    +0.000 N 
ATOM     18  C   UNL     1       2.365   5.623  20.280  0.00  0.00    +0.000 C 
ATOM     19  O   UNL     1       2.124   4.927  21.252  0.00  0.00    +0.000 OA
ATOM     20  H   UNL     1       3.401   5.859  18.506  0.00  0.00    +0.000 HD
BRANCH  18  21
ATOM     21  C   UNL     1       1.904   6.999  20.175  0.00  0.00    +0.000 A 
ATOM     22  C   UNL     1       1.992   7.887  19.114  0.00  0.00    +0.000 A 
ATOM     23  C   UNL     1       1.454   9.119  19.525  0.00  0.00    +0.000 A 
ATOM     24 BR   UNL     1       1.442  10.634  18.422  0.00  0.00    +0.000 Br
ATOM     25  C   UNL     1       1.022   8.973  20.815  0.00  0.00    +0.000 A 
ATOM     26 BR   UNL     1       0.275  10.289  21.904  0.00  0.00    +0.000 Br
ATOM     27  N   UNL     1       1.263   7.680  21.199  0.00  0.00    +0.000 N 
ATOM     28  H   UNL     1       1.065   7.303  22.114  0.00  0.00    +0.000 HD
ENDBRANCH  18  21
ENDBRANCH   4  17
TORSDOF 7
ENDMDL
MODEL 7
REMARK VINA RESULT:      -6.8      1.392      2.181
REMARK  Name = 
REMARK  8 active torsions:
REMARK  status: ('A' for Active; 'I' for Inactive)
REMARK    1  A    between atoms: C_1  and  O_2
REMARK    2  A    between atoms: O_2  and  C_3
REMARK    3  A    between atoms: C_3  and  C_5
REMARK    4  A    between atoms: C_5  and  C_6
REMARK    5  A    between atoms: C_6  and  N_7
REMARK    6  A    between atoms: C_8  and  C_10
REMARK    7  A    between atoms: C_13  and  N_14
REMARK    8  A    between atoms: C_15  and  C_17
REMARK                            x       y       z     vdW  Elec       q    Type
REMARK                         _______ _______ _______ _____ _____    ______ ____
ROOT
ATOM      1  C   UNL     1       5.437   5.319  18.919  0.00  0.00    +0.000 C 
ATOM      2  C   UNL     1       6.633   4.643  18.241  0.00  0.00    +0.000 C 
ATOM      3  C   UNL     1       7.474   5.619  17.418  0.00  0.00    +0.000 C 
ATOM      4  C   UNL     1       6.644   6.351  16.358  0.00  0.00    +0.000 C 
ATOM      5  C   UNL     1       5.475   7.070  17.045  0.00  0.00    +0.000 C 
ATOM      6  C   UNL     1       4.615   6.133  17.898  0.00  0.00    +0.000 C 
ENDROOT
BRANCH   1   8
ATOM      7  N   UNL     1       3.300   4.691  19.987  0.00  0.00    +0.000 N 
ATOM      8  C   UNL     1       4.553   4.268  19.598  0.00  0.00    +0.000 C 
ATOM      9  O   UNL     1       4.937   3.117  19.785  0.00  0.00    +0.000 OA
ATOM     10  H   UNL     1       3.029   5.661  19.878  0.00  0.00    +0.000 HD
BRANCH   7  11
ATOM     11  C   UNL     1       2.366   3.761  20.608  0.00  0.00    +0.000 C 
BRANCH  11  12
ATOM     12  C   UNL     1       1.000   3.735  19.929  0.00  0.00    +0.000 C 
BRANCH  12  13
ATOM     13  C   UNL     1       1.161   3.397  18.466  0.00  0.00    +0.000 C 
ATOM     14  O   UNL     1       1.053   4.196  17.546  0.00  0.00    +0.000 OA
BRANCH  13  16
ATOM     15  C   UNL     1       2.669   1.802  17.653  0.00  0.00    +0.000 C 
ATOM     16  O   UNL     1       1.424   2.068  18.310  0.00  0.00    +0.000 OA
ENDBRANCH  13  16
ENDBRANCH  12  13
ENDBRANCH  11  12
ENDBRANCH   7  11
ENDBRANCH   1   8
BRANCH   4  17
ATOM     17  N   UNL     1       6.188   5.453  15.302  0.00  0.00    +0.000 N 
ATOM     18  C   UNL     1       6.978   5.125  14.213  0.00  0.00    +0.000 C 
ATOM     19  O   UNL     1       8.095   5.579  14.035  0.00  0.00    +0.000 OA
ATOM     20  H   UNL     1       5.348   4.920  15.468  0.00  0.00    +0.000 HD
BRANCH  18  21
ATOM     21  C   UNL     1       6.370   4.173  13.295  0.00  0.00    +0.000 A 
ATOM     22  C   UNL     1       6.863   2.975  12.802  0.00  0.00    +0.000 A 
ATOM     23  C   UNL     1       5.922   2.451  11.898  0.00  0.00    +0.000 A 
ATOM     24 BR   UNL     1       6.219   0.871  10.934  0.00  0.00    +0.000 Br
ATOM     25  C   UNL     1       4.859   3.311  11.861  0.00  0.00    +0.000 A 
ATOM     26 BR   UNL     1       3.337   3.168  10.793  0.00  0.00    +0.000 Br
ATOM     27  N   UNL     1       5.113   4.337  12.732  0.00  0.00    +0.000 N 
ATOM     28  H   UNL     1       4.505   5.129  12.886  0.00  0.00    +0.000 HD
ENDBRANCH  18  21
ENDBRANCH   4  17
TORSDOF 7
ENDMDL
MODEL 8
REMARK VINA RESULT:      -6.8      4.307      8.266
REMARK  Name = 
REMARK  8 active torsions:
REMARK  status: ('A' for Active; 'I' for Inactive)
REMARK    1  A    between atoms: C_1  and  O_2
REMARK    2  A    between atoms: O_2  and  C_3
REMARK    3  A    between atoms: C_3  and  C_5
REMARK    4  A    between atoms: C_5  and  C_6
REMARK    5  A    between atoms: C_6  and  N_7
REMARK    6  A    between atoms: C_8  and  C_10
REMARK    7  A    between atoms: C_13  and  N_14
REMARK    8  A    between atoms: C_15  and  C_17
REMARK                            x       y       z     vdW  Elec       q    Type
REMARK                         _______ _______ _______ _____ _____    ______ ____
ROOT
ATOM      1  C   UNL     1       5.582   4.016  16.729  0.00  0.00    +0.000 C 
ATOM      2  C   UNL     1       6.055   4.745  17.992  0.00  0.00    +0.000 C 
ATOM      3  C   UNL     1       5.496   4.127  19.273  0.00  0.00    +0.000 C 
ATOM      4  C   UNL     1       3.964   4.070  19.271  0.00  0.00    +0.000 C 
ATOM      5  C   UNL     1       3.494   3.296  18.032  0.00  0.00    +0.000 C 
ATOM      6  C   UNL     1       4.046   3.868  16.724  0.00  0.00    +0.000 C 
ENDROOT
BRANCH   1   8
ATOM      7  N   UNL     1       6.454   3.990  14.419  0.00  0.00    +0.000 N 
ATOM      8  C   UNL     1       6.049   4.770  15.480  0.00  0.00    +0.000 C 
ATOM      9  O   UNL     1       6.062   5.996  15.426  0.00  0.00    +0.000 OA
ATOM     10  H   UNL     1       6.493   2.981  14.509  0.00  0.00    +0.000 HD
BRANCH   7  11
ATOM     11  C   UNL     1       6.882   4.605  13.169  0.00  0.00    +0.000 C 
BRANCH  11  12
ATOM     12  C   UNL     1       6.862   3.643  11.985  0.00  0.00    +0.000 C 
BRANCH  12  13
ATOM     13  C   UNL     1       5.503   2.993  11.875  0.00  0.00    +0.000 C 
ATOM     14  O   UNL     1       4.443   3.531  12.165  0.00  0.00    +0.000 OA
BRANCH  13  16
ATOM     15  C   UNL     1       6.949   1.368  11.009  0.00  0.00    +0.000 C 
ATOM     16  O   UNL     1       5.623   1.711  11.428  0.00  0.00    +0.000 OA
ENDBRANCH  13  16
ENDBRANCH  12  13
ENDBRANCH  11  12
ENDBRANCH   7  11
ENDBRANCH   1   8
BRANCH   4  17
ATOM     17  N   UNL     1       3.365   5.399  19.345  0.00  0.00    +0.000 N 
ATOM     18  C   UNL     1       2.305   5.690  20.186  0.00  0.00    +0.000 C 
ATOM     19  O   UNL     1       1.772   4.861  20.903  0.00  0.00    +0.000 OA
ATOM     20  H   UNL     1       3.858   6.161  18.905  0.00  0.00    +0.000 HD
BRANCH  18  21
ATOM     21  C   UNL     1       1.882   7.083  20.159  0.00  0.00    +0.000 A 
ATOM     22  C   UNL     1       1.199   7.822  21.111  0.00  0.00    +0.000 A 
ATOM     23  C   UNL     1       0.972   9.108  20.590  0.00  0.00    +0.000 A 
ATOM     24 BR   UNL     1       0.007  10.420  21.519  0.00  0.00    +0.000 Br
ATOM     25  C   UNL     1       1.533   9.156  19.343  0.00  0.00    +0.000 A 
ATOM     26 BR   UNL     1       1.493  10.585  18.148  0.00  0.00    +0.000 Br
ATOM     27  N   UNL     1       2.114   7.940  19.094  0.00  0.00    +0.000 N 
ATOM     28  H   UNL     1       2.580   7.688  18.234  0.00  0.00    +0.000 HD
ENDBRANCH  18  21
ENDBRANCH   4  17
TORSDOF 7
ENDMDL
MODEL 9
REMARK VINA RESULT:      -6.8      1.356      1.819
REMARK  Name = 
REMARK  8 active torsions:
REMARK  status: ('A' for Active; 'I' for Inactive)
REMARK    1  A    between atoms: C_1  and  O_2
REMARK    2  A    between atoms: O_2  and  C_3
REMARK    3  A    between atoms: C_3  and  C_5
REMARK    4  A    between atoms: C_5  and  C_6
REMARK    5  A    between atoms: C_6  and  N_7
REMARK    6  A    between atoms: C_8  and  C_10
REMARK    7  A    between atoms: C_13  and  N_14
REMARK    8  A    between atoms: C_15  and  C_17
REMARK                            x       y       z     vdW  Elec       q    Type
REMARK                         _______ _______ _______ _____ _____    ______ ____
ROOT
ATOM      1  C   UNL     1       5.486   4.888  19.014  0.00  0.00    +0.000 C 
ATOM      2  C   UNL     1       6.690   4.366  18.222  0.00  0.00    +0.000 C 
ATOM      3  C   UNL     1       7.431   5.475  17.477  0.00  0.00    +0.000 C 
ATOM      4  C   UNL     1       6.511   6.257  16.533  0.00  0.00    +0.000 C 
ATOM      5  C   UNL     1       5.332   6.822  17.337  0.00  0.00    +0.000 C 
ATOM      6  C   UNL     1       4.570   5.747  18.117  0.00  0.00    +0.000 C 
ENDROOT
BRANCH   1   8
ATOM      7  N   UNL     1       3.393   3.979  19.958  0.00  0.00    +0.000 N 
ATOM      8  C   UNL     1       4.700   3.717  19.611  0.00  0.00    +0.000 C 
ATOM      9  O   UNL     1       5.204   2.609  19.771  0.00  0.00    +0.000 OA
ATOM     10  H   UNL     1       3.017   4.917  19.874  0.00  0.00    +0.000 HD
BRANCH   7  11
ATOM     11  C   UNL     1       2.545   2.925  20.499  0.00  0.00    +0.000 C 
BRANCH  11  12
ATOM     12  C   UNL     1       1.341   2.605  19.617  0.00  0.00    +0.000 C 
BRANCH  12  13
ATOM     13  C   UNL     1       1.746   2.650  18.163  0.00  0.00    +0.000 C 
ATOM     14  O   UNL     1       2.625   1.965  17.658  0.00  0.00    +0.000 OA
BRANCH  13  16
ATOM     15  C   UNL     1       1.405   4.929  17.750  0.00  0.00    +0.000 C 
ATOM     16  O   UNL     1       1.007   3.577  17.491  0.00  0.00    +0.000 OA
ENDBRANCH  13  16
ENDBRANCH  12  13
ENDBRANCH  11  12
ENDBRANCH   7  11
ENDBRANCH   1   8
BRANCH   4  17
ATOM     17  N   UNL     1       6.064   5.446  15.405  0.00  0.00    +0.000 N 
ATOM     18  C   UNL     1       6.897   5.118  14.349  0.00  0.00    +0.000 C 
ATOM     19  O   UNL     1       8.050   5.502  14.262  0.00  0.00    +0.000 OA
ATOM     20  H   UNL     1       5.182   4.964  15.494  0.00  0.00    +0.000 HD
BRANCH  18  21
ATOM     21  C   UNL     1       6.286   4.256  13.347  0.00  0.00    +0.000 A 
ATOM     22  C   UNL     1       5.064   4.371  12.704  0.00  0.00    +0.000 A 
ATOM     23  C   UNL     1       4.901   3.253  11.866  0.00  0.00    +0.000 A 
ATOM     24 BR   UNL     1       3.346   2.962  10.861  0.00  0.00    +0.000 Br
ATOM     25  C   UNL     1       6.024   2.481  11.982  0.00  0.00    +0.000 A 
ATOM     26 BR   UNL     1       6.351   0.843  11.154  0.00  0.00    +0.000 Br
ATOM     27  N   UNL     1       6.879   3.104  12.853  0.00  0.00    +0.000 N 
ATOM     28  H   UNL     1       7.775   2.741  13.143  0.00  0.00    +0.000 HD
ENDBRANCH  18  21
ENDBRANCH   4  17
TORSDOF 7
ENDMDL
