MODEL 1
REMARK VINA RESULT:      -8.3      0.000      0.000
REMARK  Name = 
REMARK  8 active torsions:
REMARK  status: ('A' for Active; 'I' for Inactive)
REMARK    1  A    between atoms: C_1  and  C_2
REMARK    2  A    between atoms: C_5  and  O_6
REMARK    3  A    between atoms: O_6  and  C_7
REMARK    4  A    between atoms: C_7  and  C_8
REMARK    5  A    between atoms: N_10  and  C_11
REMARK    6  A    between atoms: C_15  and  S_16
REMARK    7  A    between atoms: S_16  and  N_19
REMARK    8  A    between atoms: C_27  and  N_28
REMARK                            x       y       z     vdW  Elec       q    Type
REMARK                         _______ _______ _______ _____ _____    ______ ____
ROOT
ATOM      1  C   UNL     1       2.713   4.888  18.564  0.00  0.00    +0.000 C 
ATOM      2  O   UNL     1       1.622   4.792  18.006  0.00  0.00    +0.000 OA
ATOM      3  N   UNL     1       3.084   5.871  19.473  0.00  0.00    +0.000 N 
ATOM      4  H   UNL     1       4.069   5.938  19.707  0.00  0.00    +0.000 HD
ENDROOT
BRANCH   3   5
ATOM      5  C   UNL     1       2.250   6.912  19.949  0.00  0.00    +0.000 A 
ATOM      6  C   UNL     1       1.512   6.806  21.133  0.00  0.00    +0.000 A 
ATOM      7  C   UNL     1       0.682   7.844  21.565  0.00  0.00    +0.000 A 
ATOM      8  C   UNL     1       0.570   9.004  20.809  0.00  0.00    +0.000 A 
ATOM      9  C   UNL     1       1.282   9.113  19.613  0.00  0.00    +0.000 A 
ATOM     10  C   UNL     1       2.156   8.093  19.199  0.00  0.00    +0.000 A 
BRANCH   9  11
ATOM     11  S   UNL     1       1.099  10.591  18.628  0.00  0.00    +0.000 S 
ATOM     12  O   UNL     1       1.501  11.716  19.446  0.00  0.00    +0.000 OA
ATOM     13  O   UNL     1       1.737  10.333  17.350  0.00  0.00    +0.000 OA
BRANCH  11  14
ATOM     14  N   UNL     1      -0.599  10.684  18.386  0.00  0.00    +0.000 NA
ATOM     15  C   UNL     1      -1.200  12.036  18.455  0.00  0.00    +0.000 C 
ATOM     16  C   UNL     1      -2.570  12.012  19.132  0.00  0.00    +0.000 C 
ATOM     17  C   UNL     1      -3.720  11.662  18.196  0.00  0.00    +0.000 C 
ATOM     18  C   UNL     1      -3.633  10.258  17.614  0.00  0.00    +0.000 C 
ATOM     19  C   UNL     1      -2.432  10.080  16.696  0.00  0.00    +0.000 C 
ATOM     20  C   UNL     1      -1.150   9.696  17.423  0.00  0.00    +0.000 C 
ENDBRANCH  11  14
ENDBRANCH   9  11
ENDBRANCH   3   5
BRANCH   1  21
ATOM     21  C   UNL     1       3.814   3.877  18.252  0.00  0.00    +0.000 C 
BRANCH  21  22
ATOM     22  O   UNL     1       5.041   4.584  18.112  0.00  0.00    +0.000 OA
BRANCH  22  27
ATOM     23  C   UNL     1       7.671   5.012  13.135  0.00  0.00    +0.000 C 
ATOM     24  C   UNL     1       6.917   4.896  14.425  0.00  0.00    +0.000 A 
ATOM     25  C   UNL     1       5.616   4.410  14.460  0.00  0.00    +0.000 A 
ATOM     26  C   UNL     1       4.956   4.302  15.687  0.00  0.00    +0.000 A 
ATOM     27  C   UNL     1       5.603   4.670  16.869  0.00  0.00    +0.000 A 
ATOM     28  C   UNL     1       6.914   5.158  16.743  0.00  0.00    +0.000 A 
ATOM     29  N   UNL     1       7.569   5.275  15.545  0.00  0.00    +0.000 NA
BRANCH  28  30
ATOM     30  N   UNL     1       7.594   5.557  17.986  0.00  0.00    +0.000 N 
ATOM     31  O   UNL     1       7.480   6.736  18.356  0.00  0.00    +0.000 OA
ATOM     32  O   UNL     1       8.208   4.670  18.601  0.00  0.00    +0.000 OA
ENDBRANCH  28  30
ENDBRANCH  22  27
ENDBRANCH  21  22
ENDBRANCH   1  21
TORSDOF 7
ENDMDL
MODEL 2
REMARK VINA RESULT:      -8.2      2.079      2.777
REMARK  Name = 
REMARK  8 active torsions:
REMARK  status: ('A' for Active; 'I' for Inactive)
REMARK    1  A    between atoms: C_1  and  C_2
REMARK    2  A    between atoms: C_5  and  O_6
REMARK    3  A    between atoms: O_6  and  C_7
REMARK    4  A    between atoms: C_7  and  C_8
REMARK    5  A    between atoms: N_10  and  C_11
REMARK    6  A    between atoms: C_15  and  S_16
REMARK    7  A    between atoms: S_16  and  N_19
REMARK    8  A    between atoms: C_27  and  N_28
REMARK                            x       y       z     vdW  Elec       q    Type
REMARK                         _______ _______ _______ _____ _____    ______ ____
ROOT
ATOM      1  C   UNL     1       3.008   4.903  18.459  0.00  0.00    +0.000 C 
ATOM      2  O   UNL     1       1.984   4.630  17.835  0.00  0.00    +0.000 OA
ATOM      3  N   UNL     1       3.332   6.141  19.000  0.00  0.00    +0.000 N 
ATOM      4  H   UNL     1       4.285   6.271  19.321  0.00  0.00    +0.000 HD
ENDROOT
BRANCH   3   5
ATOM      5  C   UNL     1       2.513   7.295  18.965  0.00  0.00    +0.000 A 
ATOM      6  C   UNL     1       2.253   8.000  17.783  0.00  0.00    +0.000 A 
ATOM      7  C   UNL     1       1.456   9.148  17.785  0.00  0.00    +0.000 A 
ATOM      8  C   UNL     1       0.914   9.615  18.975  0.00  0.00    +0.000 A 
ATOM      9  C   UNL     1       1.186   8.936  20.165  0.00  0.00    +0.000 A 
ATOM     10  C   UNL     1       1.945   7.753  20.161  0.00  0.00    +0.000 A 
BRANCH   9  11
ATOM     11  S   UNL     1       0.518   9.569  21.695  0.00  0.00    +0.000 S 
ATOM     12  O   UNL     1      -0.649   8.778  22.025  0.00  0.00    +0.000 OA
ATOM     13  O   UNL     1       1.625   9.687  22.627  0.00  0.00    +0.000 OA
BRANCH  11  14
ATOM     14  N   UNL     1      -0.008  11.145  21.263  0.00  0.00    +0.000 NA
ATOM     15  C   UNL     1      -1.296  11.590  21.840  0.00  0.00    +0.000 C 
ATOM     16  C   UNL     1      -2.109  12.416  20.844  0.00  0.00    +0.000 C 
ATOM     17  C   UNL     1      -1.733  13.892  20.808  0.00  0.00    +0.000 C 
ATOM     18  C   UNL     1      -0.308  14.153  20.343  0.00  0.00    +0.000 C 
ATOM     19  C   UNL     1       0.731  13.602  21.309  0.00  0.00    +0.000 C 
ATOM     20  C   UNL     1       1.081  12.139  21.071  0.00  0.00    +0.000 C 
ENDBRANCH  11  14
ENDBRANCH   9  11
ENDBRANCH   3   5
BRANCH   1  21
ATOM     21  C   UNL     1       4.074   3.830  18.670  0.00  0.00    +0.000 C 
BRANCH  21  22
ATOM     22  O   UNL     1       5.350   4.423  18.464  0.00  0.00    +0.000 OA
BRANCH  22  27
ATOM     23  C   UNL     1       7.564   5.033  13.307  0.00  0.00    +0.000 C 
ATOM     24  C   UNL     1       6.921   4.856  14.648  0.00  0.00    +0.000 A 
ATOM     25  C   UNL     1       5.746   4.129  14.795  0.00  0.00    +0.000 A 
ATOM     26  C   UNL     1       5.190   3.973  16.068  0.00  0.00    +0.000 A 
ATOM     27  C   UNL     1       5.814   4.537  17.183  0.00  0.00    +0.000 A 
ATOM     28  C   UNL     1       6.994   5.262  16.944  0.00  0.00    +0.000 A 
ATOM     29  N   UNL     1       7.545   5.427  15.700  0.00  0.00    +0.000 NA
BRANCH  28  30
ATOM     30  N   UNL     1       7.648   5.865  18.116  0.00  0.00    +0.000 N 
ATOM     31  O   UNL     1       7.733   7.102  18.159  0.00  0.00    +0.000 OA
ATOM     32  O   UNL     1       8.039   5.090  19.004  0.00  0.00    +0.000 OA
ENDBRANCH  28  30
ENDBRANCH  22  27
ENDBRANCH  21  22
ENDBRANCH   1  21
TORSDOF 7
ENDMDL
MODEL 3
REMARK VINA RESULT:      -8.1      2.957      9.851
REMARK  Name = 
REMARK  8 active torsions:
REMARK  status: ('A' for Active; 'I' for Inactive)
REMARK    1  A    between atoms: C_1  and  C_2
REMARK    2  A    between atoms: C_5  and  O_6
REMARK    3  A    between atoms: O_6  and  C_7
REMARK    4  A    between atoms: C_7  and  C_8
REMARK    5  A    between atoms: N_10  and  C_11
REMARK    6  A    between atoms: C_15  and  S_16
REMARK    7  A    between atoms: S_16  and  N_19
REMARK    8  A    between atoms: C_27  and  N_28
REMARK                            x       y       z     vdW  Elec       q    Type
REMARK                         _______ _______ _______ _____ _____    ______ ____
ROOT
ATOM      1  C   UNL     1      -0.120   9.055  22.012  0.00  0.00    +0.000 C 
ATOM      2  O   UNL     1      -0.781   8.043  21.784  0.00  0.00    +0.000 OA
ATOM      3  N   UNL     1       0.974   9.501  21.280  0.00  0.00    +0.000 N 
ATOM      4  H   UNL     1       1.535  10.240  21.689  0.00  0.00    +0.000 HD
ENDROOT
BRANCH   3   5
ATOM      5  C   UNL     1       1.491   8.886  20.114  0.00  0.00    +0.000 A 
ATOM      6  C   UNL     1       1.615   9.563  18.896  0.00  0.00    +0.000 A 
ATOM      7  C   UNL     1       2.112   8.921  17.758  0.00  0.00    +0.000 A 
ATOM      8  C   UNL     1       2.484   7.585  17.821  0.00  0.00    +0.000 A 
ATOM      9  C   UNL     1       2.343   6.891  19.024  0.00  0.00    +0.000 A 
ATOM     10  C   UNL     1       1.891   7.544  20.184  0.00  0.00    +0.000 A 
BRANCH   9  11
ATOM     11  S   UNL     1       2.786   5.162  19.084  0.00  0.00    +0.000 S 
ATOM     12  O   UNL     1       2.930   4.794  20.477  0.00  0.00    +0.000 OA
ATOM     13  O   UNL     1       1.859   4.454  18.219  0.00  0.00    +0.000 OA
BRANCH  11  14
ATOM     14  N   UNL     1       4.342   5.138  18.360  0.00  0.00    +0.000 NA
ATOM     15  C   UNL     1       5.463   4.699  19.223  0.00  0.00    +0.000 C 
ATOM     16  C   UNL     1       6.735   5.499  18.951  0.00  0.00    +0.000 C 
ATOM     17  C   UNL     1       7.563   4.973  17.785  0.00  0.00    +0.000 C 
ATOM     18  C   UNL     1       6.852   5.049  16.442  0.00  0.00    +0.000 C 
ATOM     19  C   UNL     1       5.630   4.143  16.377  0.00  0.00    +0.000 C 
ATOM     20  C   UNL     1       4.358   4.781  16.917  0.00  0.00    +0.000 C 
ENDBRANCH  11  14
ENDBRANCH   9  11
ENDBRANCH   3   5
BRANCH   1  21
ATOM     21  C   UNL     1      -0.470   9.933  23.212  0.00  0.00    +0.000 C 
BRANCH  21  22
ATOM     22  O   UNL     1      -0.453  11.291  22.791  0.00  0.00    +0.000 OA
BRANCH  22  27
ATOM     23  C   UNL     1      -5.336  13.814  21.505  0.00  0.00    +0.000 C 
ATOM     24  C   UNL     1      -4.047  13.165  21.907  0.00  0.00    +0.000 A 
ATOM     25  C   UNL     1      -3.758  12.895  23.238  0.00  0.00    +0.000 A 
ATOM     26  C   UNL     1      -2.551  12.271  23.567  0.00  0.00    +0.000 A 
ATOM     27  C   UNL     1      -1.647  11.916  22.563  0.00  0.00    +0.000 A 
ATOM     28  C   UNL     1      -2.014  12.232  21.244  0.00  0.00    +0.000 A 
ATOM     29  N   UNL     1      -3.192  12.849  20.911  0.00  0.00    +0.000 NA
BRANCH  28  30
ATOM     30  N   UNL     1      -1.058  11.867  20.186  0.00  0.00    +0.000 N 
ATOM     31  O   UNL     1      -1.357  10.926  19.435  0.00  0.00    +0.000 OA
ATOM     32  O   UNL     1      -0.029  12.556  20.096  0.00  0.00    +0.000 OA
ENDBRANCH  28  30
ENDBRANCH  22  27
ENDBRANCH  21  22
ENDBRANCH   1  21
TORSDOF 7
ENDMDL
MODEL 4
REMARK VINA RESULT:      -8.1      3.055      9.800
REMARK  Name = 
REMARK  8 active torsions:
REMARK  status: ('A' for Active; 'I' for Inactive)
REMARK    1  A    between atoms: C_1  and  C_2
REMARK    2  A    between atoms: C_5  and  O_6
REMARK    3  A    between atoms: O_6  and  C_7
REMARK    4  A    between atoms: C_7  and  C_8
REMARK    5  A    between atoms: N_10  and  C_11
REMARK    6  A    between atoms: C_15  and  S_16
REMARK    7  A    between atoms: S_16  and  N_19
REMARK    8  A    between atoms: C_27  and  N_28
REMARK                            x       y       z     vdW  Elec       q    Type
REMARK                         _______ _______ _______ _____ _____    ______ ____
ROOT
ATOM      1  C   UNL     1       0.739   9.346  22.260  0.00  0.00    +0.000 C 
ATOM      2  O   UNL     1       1.898   9.483  22.646  0.00  0.00    +0.000 OA
ATOM      3  N   UNL     1       0.341   8.848  21.026  0.00  0.00    +0.000 N 
ATOM      4  H   UNL     1      -0.633   8.968  20.771  0.00  0.00    +0.000 HD
ENDROOT
BRANCH   3   5
ATOM      5  C   UNL     1       1.206   8.370  20.012  0.00  0.00    +0.000 A 
ATOM      6  C   UNL     1       1.653   9.175  18.959  0.00  0.00    +0.000 A 
ATOM      7  C   UNL     1       2.492   8.667  17.963  0.00  0.00    +0.000 A 
ATOM      8  C   UNL     1       2.887   7.336  18.001  0.00  0.00    +0.000 A 
ATOM      9  C   UNL     1       2.429   6.515  19.033  0.00  0.00    +0.000 A 
ATOM     10  C   UNL     1       1.627   7.034  20.065  0.00  0.00    +0.000 A 
BRANCH   9  11
ATOM     11  S   UNL     1       2.910   4.795  19.051  0.00  0.00    +0.000 S 
ATOM     12  O   UNL     1       3.157   4.422  20.428  0.00  0.00    +0.000 OA
ATOM     13  O   UNL     1       1.942   4.073  18.245  0.00  0.00    +0.000 OA
BRANCH  11  14
ATOM     14  N   UNL     1       4.414   4.809  18.222  0.00  0.00    +0.000 NA
ATOM     15  C   UNL     1       5.618   4.539  19.040  0.00  0.00    +0.000 C 
ATOM     16  C   UNL     1       6.805   5.396  18.601  0.00  0.00    +0.000 C 
ATOM     17  C   UNL     1       7.594   4.814  17.435  0.00  0.00    +0.000 C 
ATOM     18  C   UNL     1       6.794   4.703  16.146  0.00  0.00    +0.000 C 
ATOM     19  C   UNL     1       5.644   3.710  16.257  0.00  0.00    +0.000 C 
ATOM     20  C   UNL     1       4.364   4.309  16.823  0.00  0.00    +0.000 C 
ENDBRANCH  11  14
ENDBRANCH   9  11
ENDBRANCH   3   5
BRANCH   1  21
ATOM     21  C   UNL     1      -0.415   9.769  23.167  0.00  0.00    +0.000 C 
BRANCH  21  22
ATOM     22  O   UNL     1      -0.368  11.182  23.318  0.00  0.00    +0.000 OA
BRANCH  22  27
ATOM     23  C   UNL     1      -4.422  14.317  20.950  0.00  0.00    +0.000 C 
ATOM     24  C   UNL     1      -3.381  13.482  21.632  0.00  0.00    +0.000 A 
ATOM     25  C   UNL     1      -3.684  12.728  22.758  0.00  0.00    +0.000 A 
ATOM     26  C   UNL     1      -2.687  11.950  23.353  0.00  0.00    +0.000 A 
ATOM     27  C   UNL     1      -1.399  11.924  22.812  0.00  0.00    +0.000 A 
ATOM     28  C   UNL     1      -1.176  12.722  21.678  0.00  0.00    +0.000 A 
ATOM     29  N   UNL     1      -2.145  13.494  21.091  0.00  0.00    +0.000 NA
BRANCH  28  30
ATOM     30  N   UNL     1       0.183  12.705  21.113  0.00  0.00    +0.000 N 
ATOM     31  O   UNL     1       1.060  13.361  21.696  0.00  0.00    +0.000 OA
ATOM     32  O   UNL     1       0.366  12.000  20.107  0.00  0.00    +0.000 OA
ENDBRANCH  28  30
ENDBRANCH  22  27
ENDBRANCH  21  22
ENDBRANCH   1  21
TORSDOF 7
ENDMDL
MODEL 5
REMARK VINA RESULT:      -8.1      0.272      1.252
REMARK  Name = 
REMARK  8 active torsions:
REMARK  status: ('A' for Active; 'I' for Inactive)
REMARK    1  A    between atoms: C_1  and  C_2
REMARK    2  A    between atoms: C_5  and  O_6
REMARK    3  A    between atoms: O_6  and  C_7
REMARK    4  A    between atoms: C_7  and  C_8
REMARK    5  A    between atoms: N_10  and  C_11
REMARK    6  A    between atoms: C_15  and  S_16
REMARK    7  A    between atoms: S_16  and  N_19
REMARK    8  A    between atoms: C_27  and  N_28
REMARK                            x       y       z     vdW  Elec       q    Type
REMARK                         _______ _______ _______ _____ _____    ______ ____
ROOT
ATOM      1  C   UNL     1       2.660   5.059  18.383  0.00  0.00    +0.000 C 
ATOM      2  O   UNL     1       1.618   5.065  17.730  0.00  0.00    +0.000 OA
ATOM      3  N   UNL     1       3.004   5.959  19.384  0.00  0.00    +0.000 N 
ATOM      4  H   UNL     1       3.966   5.951  19.704  0.00  0.00    +0.000 HD
ENDROOT
BRANCH   3   5
ATOM      5  C   UNL     1       2.189   7.015  19.858  0.00  0.00    +0.000 A 
ATOM      6  C   UNL     1       1.393   6.899  21.004  0.00  0.00    +0.000 A 
ATOM      7  C   UNL     1       0.585   7.955  21.434  0.00  0.00    +0.000 A 
ATOM      8  C   UNL     1       0.554   9.144  20.716  0.00  0.00    +0.000 A 
ATOM      9  C   UNL     1       1.325   9.264  19.558  0.00  0.00    +0.000 A 
ATOM     10  C   UNL     1       2.178   8.224  19.149  0.00  0.00    +0.000 A 
BRANCH   9  11
ATOM     11  S   UNL     1       1.247  10.782  18.620  0.00  0.00    +0.000 S 
ATOM     12  O   UNL     1       1.572  11.870  19.518  0.00  0.00    +0.000 OA
ATOM     13  O   UNL     1       2.007  10.569  17.401  0.00  0.00    +0.000 OA
BRANCH  11  14
ATOM     14  N   UNL     1      -0.418  10.899  18.217  0.00  0.00    +0.000 NA
ATOM     15  C   UNL     1      -1.079   9.647  17.780  0.00  0.00    +0.000 C 
ATOM     16  C   UNL     1      -2.087   9.900  16.661  0.00  0.00    +0.000 C 
ATOM     17  C   UNL     1      -3.463  10.334  17.150  0.00  0.00    +0.000 C 
ATOM     18  C   UNL     1      -3.464  11.669  17.879  0.00  0.00    +0.000 C 
ATOM     19  C   UNL     1      -2.682  11.621  19.185  0.00  0.00    +0.000 C 
ATOM     20  C   UNL     1      -1.190  11.882  19.022  0.00  0.00    +0.000 C 
ENDBRANCH  11  14
ENDBRANCH   9  11
ENDBRANCH   3   5
BRANCH   1  21
ATOM     21  C   UNL     1       3.728   4.006  18.095  0.00  0.00    +0.000 C 
BRANCH  21  22
ATOM     22  O   UNL     1       4.982   4.664  17.973  0.00  0.00    +0.000 OA
BRANCH  22  27
ATOM     23  C   UNL     1       7.699   4.989  13.035  0.00  0.00    +0.000 C 
ATOM     24  C   UNL     1       6.923   4.901  14.314  0.00  0.00    +0.000 A 
ATOM     25  C   UNL     1       5.611   4.445  14.332  0.00  0.00    +0.000 A 
ATOM     26  C   UNL     1       4.929   4.362  15.549  0.00  0.00    +0.000 A 
ATOM     27  C   UNL     1       5.566   4.727  16.738  0.00  0.00    +0.000 A 
ATOM     28  C   UNL     1       6.889   5.185  16.629  0.00  0.00    +0.000 A 
ATOM     29  N   UNL     1       7.565   5.277  15.440  0.00  0.00    +0.000 NA
BRANCH  28  30
ATOM     30  N   UNL     1       7.558   5.580  17.879  0.00  0.00    +0.000 N 
ATOM     31  O   UNL     1       8.017   4.680  18.599  0.00  0.00    +0.000 OA
ATOM     32  O   UNL     1       7.648   6.797  18.109  0.00  0.00    +0.000 OA
ENDBRANCH  28  30
ENDBRANCH  22  27
ENDBRANCH  21  22
ENDBRANCH   1  21
TORSDOF 7
ENDMDL
MODEL 6
REMARK VINA RESULT:      -7.9      7.005      8.532
REMARK  Name = 
REMARK  8 active torsions:
REMARK  status: ('A' for Active; 'I' for Inactive)
REMARK    1  A    between atoms: C_1  and  C_2
REMARK    2  A    between atoms: C_5  and  O_6
REMARK    3  A    between atoms: O_6  and  C_7
REMARK    4  A    between atoms: C_7  and  C_8
REMARK    5  A    between atoms: N_10  and  C_11
REMARK    6  A    between atoms: C_15  and  S_16
REMARK    7  A    between atoms: S_16  and  N_19
REMARK    8  A    between atoms: C_27  and  N_28
REMARK                            x       y       z     vdW  Elec       q    Type
REMARK                         _______ _______ _______ _____ _____    ______ ____
ROOT
ATOM      1  C   UNL     1       8.022   8.880  18.068  0.00  0.00    +0.000 C 
ATOM      2  O   UNL     1       7.296   9.729  17.556  0.00  0.00    +0.000 OA
ATOM      3  N   UNL     1       9.051   9.119  18.971  0.00  0.00    +0.000 N 
ATOM      4  H   UNL     1       9.685   8.352  19.164  0.00  0.00    +0.000 HD
ENDROOT
BRANCH   3   5
ATOM      5  C   UNL     1       9.412  10.385  19.492  0.00  0.00    +0.000 A 
ATOM      6  C   UNL     1       9.187  10.745  20.826  0.00  0.00    +0.000 A 
ATOM      7  C   UNL     1       9.539  12.010  21.304  0.00  0.00    +0.000 A 
ATOM      8  C   UNL     1      10.114  12.941  20.448  0.00  0.00    +0.000 A 
ATOM      9  C   UNL     1      10.322  12.603  19.110  0.00  0.00    +0.000 A 
ATOM     10  C   UNL     1      10.017  11.315  18.635  0.00  0.00    +0.000 A 
BRANCH   9  11
ATOM     11  S   UNL     1      11.024  13.821  18.008  0.00  0.00    +0.000 S 
ATOM     12  O   UNL     1      12.331  14.175  18.521  0.00  0.00    +0.000 OA
ATOM     13  O   UNL     1      10.866  13.315  16.657  0.00  0.00    +0.000 OA
BRANCH  11  14
ATOM     14  N   UNL     1       9.984  15.172  18.216  0.00  0.00    +0.000 NA
ATOM     15  C   UNL     1      10.396  16.428  17.549  0.00  0.00    +0.000 C 
ATOM     16  C   UNL     1      10.082  17.653  18.405  0.00  0.00    +0.000 C 
ATOM     17  C   UNL     1       8.655  18.165  18.259  0.00  0.00    +0.000 C 
ATOM     18  C   UNL     1       7.596  17.177  18.726  0.00  0.00    +0.000 C 
ATOM     19  C   UNL     1       7.554  15.919  17.869  0.00  0.00    +0.000 C 
ATOM     20  C   UNL     1       8.538  14.841  18.306  0.00  0.00    +0.000 C 
ENDBRANCH  11  14
ENDBRANCH   9  11
ENDBRANCH   3   5
BRANCH   1  21
ATOM     21  C   UNL     1       7.843   7.409  17.699  0.00  0.00    +0.000 C 
BRANCH  21  22
ATOM     22  O   UNL     1       6.800   7.315  16.737  0.00  0.00    +0.000 OA
BRANCH  22  27
ATOM     23  C   UNL     1       2.773   3.471  17.675  0.00  0.00    +0.000 C 
ATOM     24  C   UNL     1       3.797   4.537  17.426  0.00  0.00    +0.000 A 
ATOM     25  C   UNL     1       3.531   5.872  17.702  0.00  0.00    +0.000 A 
ATOM     26  C   UNL     1       4.521   6.831  17.472  0.00  0.00    +0.000 A 
ATOM     27  C   UNL     1       5.770   6.449  16.977  0.00  0.00    +0.000 A 
ATOM     28  C   UNL     1       5.952   5.080  16.718  0.00  0.00    +0.000 A 
ATOM     29  N   UNL     1       4.987   4.132  16.933  0.00  0.00    +0.000 NA
BRANCH  28  30
ATOM     30  N   UNL     1       7.264   4.676  16.186  0.00  0.00    +0.000 N 
ATOM     31  O   UNL     1       7.511   4.935  14.998  0.00  0.00    +0.000 OA
ATOM     32  O   UNL     1       8.050   4.134  16.980  0.00  0.00    +0.000 OA
ENDBRANCH  28  30
ENDBRANCH  22  27
ENDBRANCH  21  22
ENDBRANCH   1  21
TORSDOF 7
ENDMDL
MODEL 7
REMARK VINA RESULT:      -7.9      1.911      2.545
REMARK  Name = 
REMARK  8 active torsions:
REMARK  status: ('A' for Active; 'I' for Inactive)
REMARK    1  A    between atoms: C_1  and  C_2
REMARK    2  A    between atoms: C_5  and  O_6
REMARK    3  A    between atoms: O_6  and  C_7
REMARK    4  A    between atoms: C_7  and  C_8
REMARK    5  A    between atoms: N_10  and  C_11
REMARK    6  A    between atoms: C_15  and  S_16
REMARK    7  A    between atoms: S_16  and  N_19
REMARK    8  A    between atoms: C_27  and  N_28
REMARK                            x       y       z     vdW  Elec       q    Type
REMARK                         _______ _______ _______ _____ _____    ______ ____
ROOT
ATOM      1  C   UNL     1       3.304   4.663  18.581  0.00  0.00    +0.000 C 
ATOM      2  O   UNL     1       2.293   4.390  17.936  0.00  0.00    +0.000 OA
ATOM      3  N   UNL     1       3.632   5.908  19.100  0.00  0.00    +0.000 N 
ATOM      4  H   UNL     1       4.578   6.033  19.443  0.00  0.00    +0.000 HD
ENDROOT
BRANCH   3   5
ATOM      5  C   UNL     1       2.832   7.074  19.015  0.00  0.00    +0.000 A 
ATOM      6  C   UNL     1       2.762   7.858  17.857  0.00  0.00    +0.000 A 
ATOM      7  C   UNL     1       1.977   9.013  17.812  0.00  0.00    +0.000 A 
ATOM      8  C   UNL     1       1.257   9.409  18.932  0.00  0.00    +0.000 A 
ATOM      9  C   UNL     1       1.338   8.649  20.101  0.00  0.00    +0.000 A 
ATOM     10  C   UNL     1       2.085   7.459  20.136  0.00  0.00    +0.000 A 
BRANCH   9  11
ATOM     11  S   UNL     1       0.440   9.188  21.548  0.00  0.00    +0.000 S 
ATOM     12  O   UNL     1      -0.673   8.282  21.736  0.00  0.00    +0.000 OA
ATOM     13  O   UNL     1       1.417   9.398  22.601  0.00  0.00    +0.000 OA
BRANCH  11  14
ATOM     14  N   UNL     1      -0.185  10.713  21.066  0.00  0.00    +0.000 NA
ATOM     15  C   UNL     1       0.762  11.851  21.093  0.00  0.00    +0.000 C 
ATOM     16  C   UNL     1       0.086  13.139  21.562  0.00  0.00    +0.000 C 
ATOM     17  C   UNL     1      -0.636  13.900  20.457  0.00  0.00    +0.000 C 
ATOM     18  C   UNL     1      -1.803  13.139  19.846  0.00  0.00    +0.000 C 
ATOM     19  C   UNL     1      -1.357  11.885  19.107  0.00  0.00    +0.000 C 
ATOM     20  C   UNL     1      -1.218  10.658  19.998  0.00  0.00    +0.000 C 
ENDBRANCH  11  14
ENDBRANCH   9  11
ENDBRANCH   3   5
BRANCH   1  21
ATOM     21  C   UNL     1       4.348   3.580  18.845  0.00  0.00    +0.000 C 
BRANCH  21  22
ATOM     22  O   UNL     1       5.636   4.137  18.615  0.00  0.00    +0.000 OA
BRANCH  22  27
ATOM     23  C   UNL     1       7.561   5.151  13.406  0.00  0.00    +0.000 C 
ATOM     24  C   UNL     1       6.996   4.859  14.763  0.00  0.00    +0.000 A 
ATOM     25  C   UNL     1       5.948   3.963  14.931  0.00  0.00    +0.000 A 
ATOM     26  C   UNL     1       5.464   3.706  16.217  0.00  0.00    +0.000 A 
ATOM     27  C   UNL     1       6.035   4.339  17.323  0.00  0.00    +0.000 A 
ATOM     28  C   UNL     1       7.085   5.235  17.064  0.00  0.00    +0.000 A 
ATOM     29  N   UNL     1       7.564   5.500  15.807  0.00  0.00    +0.000 NA
BRANCH  28  30
ATOM     30  N   UNL     1       7.681   5.911  18.227  0.00  0.00    +0.000 N 
ATOM     31  O   UNL     1       8.084   5.203  19.164  0.00  0.00    +0.000 OA
ATOM     32  O   UNL     1       7.773   7.148  18.174  0.00  0.00    +0.000 OA
ENDBRANCH  28  30
ENDBRANCH  22  27
ENDBRANCH  21  22
ENDBRANCH   1  21
TORSDOF 7
ENDMDL
MODEL 8
REMARK VINA RESULT:      -7.8      2.116      3.229
REMARK  Name = 
REMARK  8 active torsions:
REMARK  status: ('A' for Active; 'I' for Inactive)
REMARK    1  A    between atoms: C_1  and  C_2
REMARK    2  A    between atoms: C_5  and  O_6
REMARK    3  A    between atoms: O_6  and  C_7
REMARK    4  A    between atoms: C_7  and  C_8
REMARK    5  A    between atoms: N_10  and  C_11
REMARK    6  A    between atoms: C_15  and  S_16
REMARK    7  A    between atoms: S_16  and  N_19
REMARK    8  A    between atoms: C_27  and  N_28
REMARK                            x       y       z     vdW  Elec       q    Type
REMARK                         _______ _______ _______ _____ _____    ______ ____
ROOT
ATOM      1  C   UNL     1       1.993   7.628  19.875  0.00  0.00    +0.000 C 
ATOM      2  O   UNL     1       1.796   8.318  18.877  0.00  0.00    +0.000 OA
ATOM      3  N   UNL     1       1.555   7.906  21.163  0.00  0.00    +0.000 N 
ATOM      4  H   UNL     1       1.949   7.353  21.916  0.00  0.00    +0.000 HD
ENDROOT
BRANCH   3   5
ATOM      5  C   UNL     1       0.764   9.018  21.542  0.00  0.00    +0.000 A 
ATOM      6  C   UNL     1       0.061   9.067  22.752  0.00  0.00    +0.000 A 
ATOM      7  C   UNL     1      -0.726  10.171  23.088  0.00  0.00    +0.000 A 
ATOM      8  C   UNL     1      -0.832  11.242  22.210  0.00  0.00    +0.000 A 
ATOM      9  C   UNL     1      -0.156  11.196  20.989  0.00  0.00    +0.000 A 
ATOM     10  C   UNL     1       0.678  10.110  20.668  0.00  0.00    +0.000 A 
BRANCH   9  11
ATOM     11  S   UNL     1      -0.331  12.560  19.850  0.00  0.00    +0.000 S 
ATOM     12  O   UNL     1      -0.625  13.746  20.626  0.00  0.00    +0.000 OA
ATOM     13  O   UNL     1       0.813  12.518  18.957  0.00  0.00    +0.000 OA
BRANCH  11  14
ATOM     14  N   UNL     1      -1.739  12.139  18.961  0.00  0.00    +0.000 NA
ATOM     15  C   UNL     1      -1.691  10.857  18.222  0.00  0.00    +0.000 C 
ATOM     16  C   UNL     1      -2.403  10.953  16.873  0.00  0.00    +0.000 C 
ATOM     17  C   UNL     1      -3.909  10.736  16.948  0.00  0.00    +0.000 C 
ATOM     18  C   UNL     1      -4.643  11.789  17.765  0.00  0.00    +0.000 C 
ATOM     19  C   UNL     1      -4.260  11.755  19.238  0.00  0.00    +0.000 C 
ATOM     20  C   UNL     1      -3.021  12.574  19.574  0.00  0.00    +0.000 C 
ENDBRANCH  11  14
ENDBRANCH   9  11
ENDBRANCH   3   5
BRANCH   1  21
ATOM     21  C   UNL     1       2.812   6.344  19.756  0.00  0.00    +0.000 C 
BRANCH  21  22
ATOM     22  O   UNL     1       2.558   5.770  18.480  0.00  0.00    +0.000 OA
BRANCH  22  27
ATOM     23  C   UNL     1       6.820   4.621  14.961  0.00  0.00    +0.000 C 
ATOM     24  C   UNL     1       5.715   4.984  15.905  0.00  0.00    +0.000 A 
ATOM     25  C   UNL     1       5.454   6.307  16.238  0.00  0.00    +0.000 A 
ATOM     26  C   UNL     1       4.402   6.601  17.109  0.00  0.00    +0.000 A 
ATOM     27  C   UNL     1       3.614   5.574  17.634  0.00  0.00    +0.000 A 
ATOM     28  C   UNL     1       3.951   4.265  17.252  0.00  0.00    +0.000 A 
ATOM     29  N   UNL     1       4.985   3.963  16.404  0.00  0.00    +0.000 NA
BRANCH  28  30
ATOM     30  N   UNL     1       3.129   3.180  17.812  0.00  0.00    +0.000 N 
ATOM     31  O   UNL     1       3.490   2.676  18.888  0.00  0.00    +0.000 OA
ATOM     32  O   UNL     1       2.105   2.867  17.183  0.00  0.00    +0.000 OA
ENDBRANCH  28  30
ENDBRANCH  22  27
ENDBRANCH  21  22
ENDBRANCH   1  21
TORSDOF 7
ENDMDL
MODEL 9
REMARK VINA RESULT:      -7.8      1.605      2.427
REMARK  Name = 
REMARK  8 active torsions:
REMARK  status: ('A' for Active; 'I' for Inactive)
REMARK    1  A    between atoms: C_1  and  C_2
REMARK    2  A    between atoms: C_5  and  O_6
REMARK    3  A    between atoms: O_6  and  C_7
REMARK    4  A    between atoms: C_7  and  C_8
REMARK    5  A    between atoms: N_10  and  C_11
REMARK    6  A    between atoms: C_15  and  S_16
REMARK    7  A    between atoms: S_16  and  N_19
REMARK    8  A    between atoms: C_27  and  N_28
REMARK                            x       y       z     vdW  Elec       q    Type
REMARK                         _______ _______ _______ _____ _____    ______ ____
ROOT
ATOM      1  C   UNL     1       2.790   4.587  18.574  0.00  0.00    +0.000 C 
ATOM      2  O   UNL     1       1.610   4.275  18.419  0.00  0.00    +0.000 OA
ATOM      3  N   UNL     1       3.258   5.776  19.118  0.00  0.00    +0.000 N 
ATOM      4  H   UNL     1       4.246   5.977  19.011  0.00  0.00    +0.000 HD
ENDROOT
BRANCH   3   5
ATOM      5  C   UNL     1       2.452   6.820  19.632  0.00  0.00    +0.000 A 
ATOM      6  C   UNL     1       1.873   6.771  20.906  0.00  0.00    +0.000 A 
ATOM      7  C   UNL     1       1.067   7.810  21.376  0.00  0.00    +0.000 A 
ATOM      8  C   UNL     1       0.818   8.915  20.572  0.00  0.00    +0.000 A 
ATOM      9  C   UNL     1       1.370   8.967  19.290  0.00  0.00    +0.000 A 
ATOM     10  C   UNL     1       2.223   7.948  18.831  0.00  0.00    +0.000 A 
BRANCH   9  11
ATOM     11  S   UNL     1       1.011  10.373  18.249  0.00  0.00    +0.000 S 
ATOM     12  O   UNL     1       2.186  10.632  17.442  0.00  0.00    +0.000 OA
ATOM     13  O   UNL     1      -0.278  10.126  17.630  0.00  0.00    +0.000 OA
BRANCH  11  14
ATOM     14  N   UNL     1       0.844  11.655  19.379  0.00  0.00    +0.000 NA
ATOM     15  C   UNL     1       1.921  12.670  19.386  0.00  0.00    +0.000 C 
ATOM     16  C   UNL     1       2.239  13.148  20.802  0.00  0.00    +0.000 C 
ATOM     17  C   UNL     1       1.327  14.263  21.301  0.00  0.00    +0.000 C 
ATOM     18  C   UNL     1      -0.132  13.853  21.429  0.00  0.00    +0.000 C 
ATOM     19  C   UNL     1      -0.766  13.525  20.084  0.00  0.00    +0.000 C 
ATOM     20  C   UNL     1      -0.556  12.084  19.637  0.00  0.00    +0.000 C 
ENDBRANCH  11  14
ENDBRANCH   9  11
ENDBRANCH   3   5
BRANCH   1  21
ATOM     21  C   UNL     1       3.890   3.630  18.120  0.00  0.00    +0.000 C 
BRANCH  21  22
ATOM     22  O   UNL     1       5.103   4.364  18.014  0.00  0.00    +0.000 OA
BRANCH  22  27
ATOM     23  C   UNL     1       7.718   5.085  13.063  0.00  0.00    +0.000 C 
ATOM     24  C   UNL     1       6.969   4.888  14.346  0.00  0.00    +0.000 A 
ATOM     25  C   UNL     1       5.697   4.330  14.361  0.00  0.00    +0.000 A 
ATOM     26  C   UNL     1       5.041   4.148  15.582  0.00  0.00    +0.000 A 
ATOM     27  C   UNL     1       5.663   4.519  16.776  0.00  0.00    +0.000 A 
ATOM     28  C   UNL     1       6.945   5.083  16.670  0.00  0.00    +0.000 A 
ATOM     29  N   UNL     1       7.595   5.272  15.479  0.00  0.00    +0.000 NA
BRANCH  28  30
ATOM     30  N   UNL     1       7.598   5.484  17.927  0.00  0.00    +0.000 N 
ATOM     31  O   UNL     1       8.152   4.600  18.599  0.00  0.00    +0.000 OA
ATOM     32  O   UNL     1       7.579   6.692  18.211  0.00  0.00    +0.000 OA
ENDBRANCH  28  30
ENDBRANCH  22  27
ENDBRANCH  21  22
ENDBRANCH   1  21
TORSDOF 7
ENDMDL
