MODEL 1
REMARK VINA RESULT:      -8.2      0.000      0.000
REMARK  Name = 
REMARK  5 active torsions:
REMARK  status: ('A' for Active; 'I' for Inactive)
REMARK    1  A    between atoms: C_1  and  O_2
REMARK    2  A    between atoms: O_2  and  C_3
REMARK    3  A    between atoms: C_9  and  C_10
REMARK    4  A    between atoms: C_17  and  N_18
REMARK    5  A    between atoms: C_22  and  C_23
REMARK                            x       y       z     vdW  Elec       q    Type
REMARK                         _______ _______ _______ _____ _____    ______ ____
ROOT
ATOM      1  C   UNL     1       5.500   4.148  17.169  0.00  0.00    +0.000 C 
ATOM      2  O   UNL     1       5.626   3.598  16.074  0.00  0.00    +0.000 OA
ATOM      3  N   UNL     1       4.417   3.845  17.963  0.00  0.00    +0.000 N 
ATOM      4  C   UNL     1       3.520   2.734  17.744  0.00  0.00    +0.000 C 
ATOM      5  C   UNL     1       3.706   1.990  19.075  0.00  0.00    +0.000 C 
ATOM      6  C   UNL     1       3.800   3.161  20.086  0.00  0.00    +0.000 C 
ATOM      7  C   UNL     1       3.820   4.413  19.164  0.00  0.00    +0.000 C 
ATOM      8  C   UNL     1       2.349   4.630  18.701  0.00  0.00    +0.000 C 
ATOM      9  C   UNL     1       2.135   3.408  17.764  0.00  0.00    +0.000 C 
ENDROOT
BRANCH   8  10
ATOM     10  N   UNL     1       2.169   5.874  17.931  0.00  0.00    +0.000 N 
ATOM     11  C   UNL     1       1.857   7.012  18.690  0.00  0.00    +0.000 A 
ATOM     12  C   UNL     1       1.626   8.210  18.016  0.00  0.00    +0.000 A 
ATOM     13  C   UNL     1       1.265   9.348  18.736  0.00  0.00    +0.000 A 
ATOM     14  C   UNL     1       1.129   9.267  20.121  0.00  0.00    +0.000 A 
ATOM     15  C   UNL     1       1.390   8.041  20.711  0.00  0.00    +0.000 A 
ATOM     16  N   UNL     1       1.765   6.934  20.031  0.00  0.00    +0.000 NA
ATOM     17  H   UNL     1       1.435   5.770  17.234  0.00  0.00    +0.000 HD
BRANCH  14  18
ATOM     18  C   UNL     1       0.715  10.426  20.970  0.00  0.00    +0.000 C 
ATOM     19  F   UNL     1       0.804  10.180  22.307  0.00  0.00    +0.000 F 
ATOM     20  F   UNL     1       1.473  11.534  20.744  0.00  0.00    +0.000 F 
ATOM     21  F   UNL     1      -0.573  10.803  20.745  0.00  0.00    +0.000 F 
ENDBRANCH  14  18
ENDBRANCH   8  10
BRANCH   1  28
ATOM     22  C   UNL     1       6.790   6.387  17.013  0.00  0.00    +0.000 A 
ATOM     23  C   UNL     1       7.643   7.277  17.694  0.00  0.00    +0.000 A 
ATOM     24  F   UNL     1       7.804   8.542  17.273  0.00  0.00    +0.000 F 
ATOM     25  C   UNL     1       8.320   6.926  18.853  0.00  0.00    +0.000 A 
ATOM     26  C   UNL     1       8.161   5.655  19.375  0.00  0.00    +0.000 A 
ATOM     27  C   UNL     1       7.290   4.760  18.741  0.00  0.00    +0.000 A 
ATOM     28  C   UNL     1       6.574   5.111  17.568  0.00  0.00    +0.000 A 
BRANCH  22  30
ATOM     29  C   UNL     1       4.738   7.125  16.104  0.00  0.00    +0.000 C 
ATOM     30  O   UNL     1       6.108   6.775  15.890  0.00  0.00    +0.000 OA
ENDBRANCH  22  30
ENDBRANCH   1  28
TORSDOF 4
ENDMDL
MODEL 2
REMARK VINA RESULT:      -7.8      0.978      1.193
REMARK  Name = 
REMARK  5 active torsions:
REMARK  status: ('A' for Active; 'I' for Inactive)
REMARK    1  A    between atoms: C_1  and  O_2
REMARK    2  A    between atoms: O_2  and  C_3
REMARK    3  A    between atoms: C_9  and  C_10
REMARK    4  A    between atoms: C_17  and  N_18
REMARK    5  A    between atoms: C_22  and  C_23
REMARK                            x       y       z     vdW  Elec       q    Type
REMARK                         _______ _______ _______ _____ _____    ______ ____
ROOT
ATOM      1  C   UNL     1       4.954   4.191  17.522  0.00  0.00    +0.000 C 
ATOM      2  O   UNL     1       4.972   3.507  16.497  0.00  0.00    +0.000 OA
ATOM      3  N   UNL     1       3.845   4.168  18.337  0.00  0.00    +0.000 N 
ATOM      4  C   UNL     1       2.770   3.209  18.239  0.00  0.00    +0.000 C 
ATOM      5  C   UNL     1       2.842   2.600  19.647  0.00  0.00    +0.000 C 
ATOM      6  C   UNL     1       3.146   3.844  20.519  0.00  0.00    +0.000 C 
ATOM      7  C   UNL     1       3.368   4.962  19.461  0.00  0.00    +0.000 C 
ATOM      8  C   UNL     1       1.950   5.372  18.965  0.00  0.00    +0.000 C 
ATOM      9  C   UNL     1       1.520   4.107  18.171  0.00  0.00    +0.000 C 
ENDROOT
BRANCH   8  10
ATOM     10  N   UNL     1       1.975   6.534  18.058  0.00  0.00    +0.000 N 
ATOM     11  C   UNL     1       1.723   7.775  18.662  0.00  0.00    +0.000 A 
ATOM     12  C   UNL     1       1.684   8.907  17.850  0.00  0.00    +0.000 A 
ATOM     13  C   UNL     1       1.387  10.148  18.410  0.00  0.00    +0.000 A 
ATOM     14  C   UNL     1       1.120  10.237  19.775  0.00  0.00    +0.000 A 
ATOM     15  C   UNL     1       1.194   9.065  20.511  0.00  0.00    +0.000 A 
ATOM     16  N   UNL     1       1.505   7.857  19.989  0.00  0.00    +0.000 NA
ATOM     17  H   UNL     1       1.298   6.426  17.306  0.00  0.00    +0.000 HD
BRANCH  14  18
ATOM     18  C   UNL     1       0.762  11.519  20.456  0.00  0.00    +0.000 C 
ATOM     19  F   UNL     1       1.811  12.377  20.587  0.00  0.00    +0.000 F 
ATOM     20  F   UNL     1      -0.203  12.210  19.790  0.00  0.00    +0.000 F 
ATOM     21  F   UNL     1       0.280  11.324  21.714  0.00  0.00    +0.000 F 
ENDBRANCH  14  18
ENDBRANCH   8  10
BRANCH   1  28
ATOM     22  C   UNL     1       6.725   6.008  17.002  0.00  0.00    +0.000 A 
ATOM     23  C   UNL     1       7.697   6.863  17.556  0.00  0.00    +0.000 A 
ATOM     24  F   UNL     1       8.173   7.911  16.865  0.00  0.00    +0.000 F 
ATOM     25  C   UNL     1       8.180   6.710  18.848  0.00  0.00    +0.000 A 
ATOM     26  C   UNL     1       7.696   5.683  19.638  0.00  0.00    +0.000 A 
ATOM     27  C   UNL     1       6.701   4.840  19.128  0.00  0.00    +0.000 A 
ATOM     28  C   UNL     1       6.182   4.996  17.818  0.00  0.00    +0.000 A 
BRANCH  22  30
ATOM     29  C   UNL     1       6.862   5.409  14.721  0.00  0.00    +0.000 C 
ATOM     30  O   UNL     1       6.242   6.205  15.735  0.00  0.00    +0.000 OA
ENDBRANCH  22  30
ENDBRANCH   1  28
TORSDOF 4
ENDMDL
MODEL 3
REMARK VINA RESULT:      -7.7      4.547      8.793
REMARK  Name = 
REMARK  5 active torsions:
REMARK  status: ('A' for Active; 'I' for Inactive)
REMARK    1  A    between atoms: C_1  and  O_2
REMARK    2  A    between atoms: O_2  and  C_3
REMARK    3  A    between atoms: C_9  and  C_10
REMARK    4  A    between atoms: C_17  and  N_18
REMARK    5  A    between atoms: C_22  and  C_23
REMARK                            x       y       z     vdW  Elec       q    Type
REMARK                         _______ _______ _______ _____ _____    ______ ____
ROOT
ATOM      1  C   UNL     1      -0.529  11.174  19.846  0.00  0.00    +0.000 C 
ATOM      2  O   UNL     1      -0.016  12.294  19.842  0.00  0.00    +0.000 OA
ATOM      3  N   UNL     1      -0.123  10.242  20.774  0.00  0.00    +0.000 N 
ATOM      4  C   UNL     1       0.689  10.532  21.933  0.00  0.00    +0.000 C 
ATOM      5  C   UNL     1      -0.266  10.058  23.038  0.00  0.00    +0.000 C 
ATOM      6  C   UNL     1      -0.884   8.786  22.405  0.00  0.00    +0.000 C 
ATOM      7  C   UNL     1      -0.315   8.810  20.958  0.00  0.00    +0.000 C 
ATOM      8  C   UNL     1       1.158   8.316  21.067  0.00  0.00    +0.000 C 
ATOM      9  C   UNL     1       1.829   9.503  21.814  0.00  0.00    +0.000 C 
ENDROOT
BRANCH   8  10
ATOM     10  N   UNL     1       1.802   8.139  19.754  0.00  0.00    +0.000 N 
ATOM     11  C   UNL     1       2.244   6.837  19.471  0.00  0.00    +0.000 A 
ATOM     12  C   UNL     1       2.905   6.614  18.265  0.00  0.00    +0.000 A 
ATOM     13  C   UNL     1       3.402   5.344  17.975  0.00  0.00    +0.000 A 
ATOM     14  C   UNL     1       3.240   4.317  18.904  0.00  0.00    +0.000 A 
ATOM     15  C   UNL     1       2.559   4.623  20.071  0.00  0.00    +0.000 A 
ATOM     16  N   UNL     1       2.049   5.842  20.358  0.00  0.00    +0.000 NA
ATOM     17  H   UNL     1       2.605   8.754  19.653  0.00  0.00    +0.000 HD
BRANCH  14  18
ATOM     18  C   UNL     1       3.767   2.934  18.693  0.00  0.00    +0.000 C 
ATOM     19  F   UNL     1       2.852   1.958  18.952  0.00  0.00    +0.000 F 
ATOM     20  F   UNL     1       4.182   2.724  17.413  0.00  0.00    +0.000 F 
ATOM     21  F   UNL     1       4.840   2.659  19.483  0.00  0.00    +0.000 F 
ENDBRANCH  14  18
ENDBRANCH   8  10
BRANCH   1  28
ATOM     22  C   UNL     1      -2.785  11.655  18.668  0.00  0.00    +0.000 A 
ATOM     23  C   UNL     1      -3.531  11.473  17.489  0.00  0.00    +0.000 A 
ATOM     24  F   UNL     1      -4.614  12.225  17.230  0.00  0.00    +0.000 F 
ATOM     25  C   UNL     1      -3.174  10.556  16.510  0.00  0.00    +0.000 A 
ATOM     26  C   UNL     1      -2.041   9.783  16.683  0.00  0.00    +0.000 A 
ATOM     27  C   UNL     1      -1.256   9.969  17.829  0.00  0.00    +0.000 A 
ATOM     28  C   UNL     1      -1.596  10.916  18.827  0.00  0.00    +0.000 A 
BRANCH  22  30
ATOM     29  C   UNL     1      -4.381  12.335  20.272  0.00  0.00    +0.000 C 
ATOM     30  O   UNL     1      -3.144  12.593  19.600  0.00  0.00    +0.000 OA
ENDBRANCH  22  30
ENDBRANCH   1  28
TORSDOF 4
ENDMDL
MODEL 4
REMARK VINA RESULT:      -7.4      1.939      2.641
REMARK  Name = 
REMARK  5 active torsions:
REMARK  status: ('A' for Active; 'I' for Inactive)
REMARK    1  A    between atoms: C_1  and  O_2
REMARK    2  A    between atoms: O_2  and  C_3
REMARK    3  A    between atoms: C_9  and  C_10
REMARK    4  A    between atoms: C_17  and  N_18
REMARK    5  A    between atoms: C_22  and  C_23
REMARK                            x       y       z     vdW  Elec       q    Type
REMARK                         _______ _______ _______ _____ _____    ______ ____
ROOT
ATOM      1  C   UNL     1       3.479   4.089  18.203  0.00  0.00    +0.000 C 
ATOM      2  O   UNL     1       2.945   3.796  17.132  0.00  0.00    +0.000 OA
ATOM      3  N   UNL     1       2.715   4.169  19.345  0.00  0.00    +0.000 N 
ATOM      4  C   UNL     1       1.359   3.688  19.465  0.00  0.00    +0.000 C 
ATOM      5  C   UNL     1       1.546   2.677  20.605  0.00  0.00    +0.000 C 
ATOM      6  C   UNL     1       2.549   3.416  21.527  0.00  0.00    +0.000 C 
ATOM      7  C   UNL     1       2.918   4.676  20.695  0.00  0.00    +0.000 C 
ATOM      8  C   UNL     1       1.714   5.654  20.837  0.00  0.00    +0.000 C 
ATOM      9  C   UNL     1       0.613   4.911  20.029  0.00  0.00    +0.000 C 
ENDROOT
BRANCH   8  10
ATOM     10  N   UNL     1       1.968   6.969  20.222  0.00  0.00    +0.000 N 
ATOM     11  C   UNL     1       1.249   8.041  20.774  0.00  0.00    +0.000 A 
ATOM     12  C   UNL     1       1.409   9.303  20.205  0.00  0.00    +0.000 A 
ATOM     13  C   UNL     1       0.671  10.380  20.697  0.00  0.00    +0.000 A 
ATOM     14  C   UNL     1      -0.225  10.174  21.745  0.00  0.00    +0.000 A 
ATOM     15  C   UNL     1      -0.310   8.891  22.260  0.00  0.00    +0.000 A 
ATOM     16  N   UNL     1       0.415   7.840  21.812  0.00  0.00    +0.000 NA
ATOM     17  H   UNL     1       1.762   6.955  19.227  0.00  0.00    +0.000 HD
BRANCH  14  18
ATOM     18  C   UNL     1      -1.079  11.261  22.315  0.00  0.00    +0.000 C 
ATOM     19  F   UNL     1      -2.009  11.736  21.440  0.00  0.00    +0.000 F 
ATOM     20  F   UNL     1      -1.774  10.855  23.413  0.00  0.00    +0.000 F 
ATOM     21  F   UNL     1      -0.352  12.341  22.711  0.00  0.00    +0.000 F 
ENDBRANCH  14  18
ENDBRANCH   8  10
BRANCH   1  28
ATOM     22  C   UNL     1       5.806   4.148  17.068  0.00  0.00    +0.000 A 
ATOM     23  C   UNL     1       7.104   4.688  17.127  0.00  0.00    +0.000 A 
ATOM     24  F   UNL     1       7.922   4.648  16.061  0.00  0.00    +0.000 F 
ATOM     25  C   UNL     1       7.597   5.332  18.253  0.00  0.00    +0.000 A 
ATOM     26  C   UNL     1       6.793   5.458  19.371  0.00  0.00    +0.000 A 
ATOM     27  C   UNL     1       5.483   4.964  19.329  0.00  0.00    +0.000 A 
ATOM     28  C   UNL     1       4.958   4.323  18.179  0.00  0.00    +0.000 A 
BRANCH  22  30
ATOM     29  C   UNL     1       5.344   4.375  14.762  0.00  0.00    +0.000 C 
ATOM     30  O   UNL     1       5.336   3.548  15.929  0.00  0.00    +0.000 OA
ENDBRANCH  22  30
ENDBRANCH   1  28
TORSDOF 4
ENDMDL
MODEL 5
REMARK VINA RESULT:      -7.4      4.093      8.182
REMARK  Name = 
REMARK  5 active torsions:
REMARK  status: ('A' for Active; 'I' for Inactive)
REMARK    1  A    between atoms: C_1  and  O_2
REMARK    2  A    between atoms: O_2  and  C_3
REMARK    3  A    between atoms: C_9  and  C_10
REMARK    4  A    between atoms: C_17  and  N_18
REMARK    5  A    between atoms: C_22  and  C_23
REMARK                            x       y       z     vdW  Elec       q    Type
REMARK                         _______ _______ _______ _____ _____    ______ ____
ROOT
ATOM      1  C   UNL     1       0.218  11.114  20.301  0.00  0.00    +0.000 C 
ATOM      2  O   UNL     1       0.906  12.124  20.461  0.00  0.00    +0.000 OA
ATOM      3  N   UNL     1       0.341  10.061  21.178  0.00  0.00    +0.000 N 
ATOM      4  C   UNL     1       1.034  10.119  22.444  0.00  0.00    +0.000 C 
ATOM      5  C   UNL     1      -0.120   9.741  23.384  0.00  0.00    +0.000 C 
ATOM      6  C   UNL     1      -0.854   8.647  22.568  0.00  0.00    +0.000 C 
ATOM      7  C   UNL     1      -0.107   8.675  21.204  0.00  0.00    +0.000 C 
ATOM      8  C   UNL     1       1.237   7.924  21.435  0.00  0.00    +0.000 C 
ATOM      9  C   UNL     1       1.994   8.917  22.361  0.00  0.00    +0.000 C 
ENDROOT
BRANCH   8  10
ATOM     10  N   UNL     1       2.006   7.731  20.192  0.00  0.00    +0.000 N 
ATOM     11  C   UNL     1       2.257   6.396  19.840  0.00  0.00    +0.000 A 
ATOM     12  C   UNL     1       3.021   6.148  18.701  0.00  0.00    +0.000 A 
ATOM     13  C   UNL     1       3.330   4.835  18.350  0.00  0.00    +0.000 A 
ATOM     14  C   UNL     1       2.880   3.788  19.153  0.00  0.00    +0.000 A 
ATOM     15  C   UNL     1       2.115   4.123  20.258  0.00  0.00    +0.000 A 
ATOM     16  N   UNL     1       1.784   5.390  20.600  0.00  0.00    +0.000 NA
ATOM     17  H   UNL     1       2.907   8.200  20.242  0.00  0.00    +0.000 HD
BRANCH  14  18
ATOM     18  C   UNL     1       3.190   2.352  18.873  0.00  0.00    +0.000 C 
ATOM     19  F   UNL     1       4.223   1.864  19.615  0.00  0.00    +0.000 F 
ATOM     20  F   UNL     1       2.132   1.533  19.123  0.00  0.00    +0.000 F 
ATOM     21  F   UNL     1       3.529   2.136  17.573  0.00  0.00    +0.000 F 
ENDBRANCH  14  18
ENDBRANCH   8  10
BRANCH   1  28
ATOM     22  C   UNL     1      -0.699  10.261  18.035  0.00  0.00    +0.000 A 
ATOM     23  C   UNL     1      -1.828  10.202  17.196  0.00  0.00    +0.000 A 
ATOM     24  F   UNL     1      -1.895   9.323  16.183  0.00  0.00    +0.000 F 
ATOM     25  C   UNL     1      -2.948  11.000  17.390  0.00  0.00    +0.000 A 
ATOM     26  C   UNL     1      -2.972  11.893  18.446  0.00  0.00    +0.000 A 
ATOM     27  C   UNL     1      -1.879  11.947  19.320  0.00  0.00    +0.000 A 
ATOM     28  C   UNL     1      -0.737  11.123  19.148  0.00  0.00    +0.000 A 
BRANCH  22  30
ATOM     29  C   UNL     1       1.634  10.104  17.701  0.00  0.00    +0.000 C 
ATOM     30  O   UNL     1       0.377   9.436  17.838  0.00  0.00    +0.000 OA
ENDBRANCH  22  30
ENDBRANCH   1  28
TORSDOF 4
ENDMDL
MODEL 6
REMARK VINA RESULT:      -7.3      1.381      1.638
REMARK  Name = 
REMARK  5 active torsions:
REMARK  status: ('A' for Active; 'I' for Inactive)
REMARK    1  A    between atoms: C_1  and  O_2
REMARK    2  A    between atoms: O_2  and  C_3
REMARK    3  A    between atoms: C_9  and  C_10
REMARK    4  A    between atoms: C_17  and  N_18
REMARK    5  A    between atoms: C_22  and  C_23
REMARK                            x       y       z     vdW  Elec       q    Type
REMARK                         _______ _______ _______ _____ _____    ______ ____
ROOT
ATOM      1  C   UNL     1       4.372   4.543  17.826  0.00  0.00    +0.000 C 
ATOM      2  O   UNL     1       4.093   4.064  16.725  0.00  0.00    +0.000 OA
ATOM      3  N   UNL     1       3.451   4.487  18.847  0.00  0.00    +0.000 N 
ATOM      4  C   UNL     1       2.252   3.682  18.832  0.00  0.00    +0.000 C 
ATOM      5  C   UNL     1       2.510   2.817  20.074  0.00  0.00    +0.000 C 
ATOM      6  C   UNL     1       3.150   3.839  21.048  0.00  0.00    +0.000 C 
ATOM      7  C   UNL     1       3.319   5.103  20.160  0.00  0.00    +0.000 C 
ATOM      8  C   UNL     1       1.904   5.746  20.054  0.00  0.00    +0.000 C 
ATOM      9  C   UNL     1       1.153   4.703  19.180  0.00  0.00    +0.000 C 
ENDROOT
BRANCH   8  10
ATOM     10  N   UNL     1       1.916   7.047  19.360  0.00  0.00    +0.000 N 
ATOM     11  C   UNL     1       1.322   8.108  20.061  0.00  0.00    +0.000 A 
ATOM     12  C   UNL     1       1.258   9.353  19.439  0.00  0.00    +0.000 A 
ATOM     13  C   UNL     1       0.630  10.417  20.086  0.00  0.00    +0.000 A 
ATOM     14  C   UNL     1       0.065  10.214  21.344  0.00  0.00    +0.000 A 
ATOM     15  C   UNL     1       0.186   8.949  21.895  0.00  0.00    +0.000 A 
ATOM     16  N   UNL     1       0.813   7.913  21.292  0.00  0.00    +0.000 NA
ATOM     17  H   UNL     1       1.448   6.986  18.460  0.00  0.00    +0.000 HD
BRANCH  14  18
ATOM     18  C   UNL     1      -0.655  11.286  22.098  0.00  0.00    +0.000 C 
ATOM     19  F   UNL     1      -0.989  10.926  23.369  0.00  0.00    +0.000 F 
ATOM     20  F   UNL     1       0.081  12.425  22.214  0.00  0.00    +0.000 F 
ATOM     21  F   UNL     1      -1.820  11.654  21.497  0.00  0.00    +0.000 F 
ENDBRANCH  14  18
ENDBRANCH   8  10
BRANCH   1  28
ATOM     22  C   UNL     1       6.349   6.036  17.072  0.00  0.00    +0.000 A 
ATOM     23  C   UNL     1       7.494   6.735  17.498  0.00  0.00    +0.000 A 
ATOM     24  F   UNL     1       8.061   7.676  16.724  0.00  0.00    +0.000 F 
ATOM     25  C   UNL     1       8.072   6.538  18.744  0.00  0.00    +0.000 A 
ATOM     26  C   UNL     1       7.511   5.622  19.616  0.00  0.00    +0.000 A 
ATOM     27  C   UNL     1       6.349   4.940  19.235  0.00  0.00    +0.000 A 
ATOM     28  C   UNL     1       5.735   5.146  17.974  0.00  0.00    +0.000 A 
BRANCH  22  30
ATOM     29  C   UNL     1       6.233   5.424  14.792  0.00  0.00    +0.000 C 
ATOM     30  O   UNL     1       5.782   6.278  15.848  0.00  0.00    +0.000 OA
ENDBRANCH  22  30
ENDBRANCH   1  28
TORSDOF 4
ENDMDL
MODEL 7
REMARK VINA RESULT:      -7.3      2.952      6.932
REMARK  Name = 
REMARK  5 active torsions:
REMARK  status: ('A' for Active; 'I' for Inactive)
REMARK    1  A    between atoms: C_1  and  O_2
REMARK    2  A    between atoms: O_2  and  C_3
REMARK    3  A    between atoms: C_9  and  C_10
REMARK    4  A    between atoms: C_17  and  N_18
REMARK    5  A    between atoms: C_22  and  C_23
REMARK                            x       y       z     vdW  Elec       q    Type
REMARK                         _______ _______ _______ _____ _____    ______ ____
ROOT
ATOM      1  C   UNL     1       2.442   5.108  20.258  0.00  0.00    +0.000 C 
ATOM      2  O   UNL     1       2.587   4.802  21.443  0.00  0.00    +0.000 OA
ATOM      3  N   UNL     1       2.458   4.126  19.294  0.00  0.00    +0.000 N 
ATOM      4  C   UNL     1       2.377   2.709  19.560  0.00  0.00    +0.000 C 
ATOM      5  C   UNL     1       1.109   2.371  18.763  0.00  0.00    +0.000 C 
ATOM      6  C   UNL     1       1.277   3.258  17.503  0.00  0.00    +0.000 C 
ATOM      7  C   UNL     1       2.539   4.101  17.840  0.00  0.00    +0.000 C 
ATOM      8  C   UNL     1       3.758   3.159  17.618  0.00  0.00    +0.000 C 
ATOM      9  C   UNL     1       3.588   2.150  18.789  0.00  0.00    +0.000 C 
ENDROOT
BRANCH   8  10
ATOM     10  N   UNL     1       5.051   3.852  17.755  0.00  0.00    +0.000 N 
ATOM     11  C   UNL     1       5.680   4.197  16.548  0.00  0.00    +0.000 A 
ATOM     12  C   UNL     1       6.929   4.813  16.609  0.00  0.00    +0.000 A 
ATOM     13  C   UNL     1       7.603   5.123  15.429  0.00  0.00    +0.000 A 
ATOM     14  C   UNL     1       7.021   4.802  14.203  0.00  0.00    +0.000 A 
ATOM     15  C   UNL     1       5.772   4.204  14.234  0.00  0.00    +0.000 A 
ATOM     16  N   UNL     1       5.093   3.918  15.369  0.00  0.00    +0.000 NA
ATOM     17  H   UNL     1       5.714   3.293  18.285  0.00  0.00    +0.000 HD
BRANCH  14  18
ATOM     18  C   UNL     1       7.684   5.068  12.890  0.00  0.00    +0.000 C 
ATOM     19  F   UNL     1       7.286   6.232  12.305  0.00  0.00    +0.000 F 
ATOM     20  F   UNL     1       9.039   5.149  12.997  0.00  0.00    +0.000 F 
ATOM     21  F   UNL     1       7.440   4.089  11.976  0.00  0.00    +0.000 F 
ENDBRANCH  14  18
ENDBRANCH   8  10
BRANCH   1  28
ATOM     22  C   UNL     1       2.574   7.214  18.757  0.00  0.00    +0.000 A 
ATOM     23  C   UNL     1       2.047   8.498  18.523  0.00  0.00    +0.000 A 
ATOM     24  F   UNL     1       2.247   9.128  17.353  0.00  0.00    +0.000 F 
ATOM     25  C   UNL     1       1.258   9.164  19.450  0.00  0.00    +0.000 A 
ATOM     26  C   UNL     1       0.966   8.556  20.657  0.00  0.00    +0.000 A 
ATOM     27  C   UNL     1       1.444   7.262  20.903  0.00  0.00    +0.000 A 
ATOM     28  C   UNL     1       2.233   6.560  19.957  0.00  0.00    +0.000 A 
BRANCH  22  30
ATOM     29  C   UNL     1       4.496   7.266  17.384  0.00  0.00    +0.000 C 
ATOM     30  O   UNL     1       3.321   6.568  17.808  0.00  0.00    +0.000 OA
ENDBRANCH  22  30
ENDBRANCH   1  28
TORSDOF 4
ENDMDL
MODEL 8
REMARK VINA RESULT:      -7.2      5.797     10.581
REMARK  Name = 
REMARK  5 active torsions:
REMARK  status: ('A' for Active; 'I' for Inactive)
REMARK    1  A    between atoms: C_1  and  O_2
REMARK    2  A    between atoms: O_2  and  C_3
REMARK    3  A    between atoms: C_9  and  C_10
REMARK    4  A    between atoms: C_17  and  N_18
REMARK    5  A    between atoms: C_22  and  C_23
REMARK                            x       y       z     vdW  Elec       q    Type
REMARK                         _______ _______ _______ _____ _____    ______ ____
ROOT
ATOM      1  C   UNL     1      -3.065  13.138  20.405  0.00  0.00    +0.000 C 
ATOM      2  O   UNL     1      -3.114  14.339  20.137  0.00  0.00    +0.000 OA
ATOM      3  N   UNL     1      -2.053  12.660  21.206  0.00  0.00    +0.000 N 
ATOM      4  C   UNL     1      -1.161  13.484  21.987  0.00  0.00    +0.000 C 
ATOM      5  C   UNL     1      -1.463  12.932  23.388  0.00  0.00    +0.000 C 
ATOM      6  C   UNL     1      -1.616  11.415  23.108  0.00  0.00    +0.000 C 
ATOM      7  C   UNL     1      -1.542  11.342  21.557  0.00  0.00    +0.000 C 
ATOM      8  C   UNL     1      -0.036  11.490  21.190  0.00  0.00    +0.000 C 
ATOM      9  C   UNL     1       0.230  12.975  21.564  0.00  0.00    +0.000 C 
ENDROOT
BRANCH   8  10
ATOM     10  N   UNL     1       0.226  11.293  19.753  0.00  0.00    +0.000 N 
ATOM     11  C   UNL     1       0.851  10.083  19.415  0.00  0.00    +0.000 A 
ATOM     12  C   UNL     1       1.169   9.857  18.077  0.00  0.00    +0.000 A 
ATOM     13  C   UNL     1       1.835   8.688  17.714  0.00  0.00    +0.000 A 
ATOM     14  C   UNL     1       2.184   7.765  18.699  0.00  0.00    +0.000 A 
ATOM     15  C   UNL     1       1.817   8.062  20.001  0.00  0.00    +0.000 A 
ATOM     16  N   UNL     1       1.149   9.179  20.368  0.00  0.00    +0.000 NA
ATOM     17  H   UNL     1       0.805  12.041  19.380  0.00  0.00    +0.000 HD
BRANCH  14  18
ATOM     18  C   UNL     1       2.926   6.500  18.407  0.00  0.00    +0.000 C 
ATOM     19  F   UNL     1       3.776   6.601  17.347  0.00  0.00    +0.000 F 
ATOM     20  F   UNL     1       3.689   6.090  19.458  0.00  0.00    +0.000 F 
ATOM     21  F   UNL     1       2.095   5.461  18.122  0.00  0.00    +0.000 F 
ENDBRANCH  14  18
ENDBRANCH   8  10
BRANCH   1  28
ATOM     22  C   UNL     1      -5.394  12.008  20.444  0.00  0.00    +0.000 A 
ATOM     23  C   UNL     1      -6.408  11.428  19.658  0.00  0.00    +0.000 A 
ATOM     24  F   UNL     1      -7.647  11.248  20.145  0.00  0.00    +0.000 F 
ATOM     25  C   UNL     1      -6.210  11.057  18.336  0.00  0.00    +0.000 A 
ATOM     26  C   UNL     1      -4.974  11.260  17.750  0.00  0.00    +0.000 A 
ATOM     27  C   UNL     1      -3.957  11.871  18.495  0.00  0.00    +0.000 A 
ATOM     28  C   UNL     1      -4.150  12.275  19.841  0.00  0.00    +0.000 A 
BRANCH  22  30
ATOM     29  C   UNL     1      -6.309  13.647  21.880  0.00  0.00    +0.000 C 
ATOM     30  O   UNL     1      -5.631  12.395  21.737  0.00  0.00    +0.000 OA
ENDBRANCH  22  30
ENDBRANCH   1  28
TORSDOF 4
ENDMDL
MODEL 9
REMARK VINA RESULT:      -7.2      4.940      9.303
REMARK  Name = 
REMARK  5 active torsions:
REMARK  status: ('A' for Active; 'I' for Inactive)
REMARK    1  A    between atoms: C_1  and  O_2
REMARK    2  A    between atoms: O_2  and  C_3
REMARK    3  A    between atoms: C_9  and  C_10
REMARK    4  A    between atoms: C_17  and  N_18
REMARK    5  A    between atoms: C_22  and  C_23
REMARK                            x       y       z     vdW  Elec       q    Type
REMARK                         _______ _______ _______ _____ _____    ______ ____
ROOT
ATOM      1  C   UNL     1      -1.307  12.185  18.858  0.00  0.00    +0.000 C 
ATOM      2  O   UNL     1      -0.990  13.310  18.468  0.00  0.00    +0.000 OA
ATOM      3  N   UNL     1      -0.664  11.634  19.943  0.00  0.00    +0.000 N 
ATOM      4  C   UNL     1       0.196  12.360  20.847  0.00  0.00    +0.000 C 
ATOM      5  C   UNL     1      -0.556  12.118  22.164  0.00  0.00    +0.000 C 
ATOM      6  C   UNL     1      -1.012  10.645  22.006  0.00  0.00    +0.000 C 
ATOM      7  C   UNL     1      -0.597  10.310  20.546  0.00  0.00    +0.000 C 
ATOM      8  C   UNL     1       0.941  10.069  20.581  0.00  0.00    +0.000 C 
ATOM      9  C   UNL     1       1.475  11.502  20.862  0.00  0.00    +0.000 C 
ENDROOT
BRANCH   8  10
ATOM     10  N   UNL     1       1.476   9.593  19.292  0.00  0.00    +0.000 N 
ATOM     11  C   UNL     1       1.872   8.246  19.265  0.00  0.00    +0.000 A 
ATOM     12  C   UNL     1       2.431   7.748  18.090  0.00  0.00    +0.000 A 
ATOM     13  C   UNL     1       2.881   6.429  18.045  0.00  0.00    +0.000 A 
ATOM     14  C   UNL     1       2.775   5.631  19.183  0.00  0.00    +0.000 A 
ATOM     15  C   UNL     1       2.194   6.202  20.303  0.00  0.00    +0.000 A 
ATOM     16  N   UNL     1       1.730   7.471  20.357  0.00  0.00    +0.000 NA
ATOM     17  H   UNL     1       2.279  10.145  19.002  0.00  0.00    +0.000 HD
BRANCH  14  18
ATOM     18  C   UNL     1       3.260   4.217  19.237  0.00  0.00    +0.000 C 
ATOM     19  F   UNL     1       2.580   3.443  20.128  0.00  0.00    +0.000 F 
ATOM     20  F   UNL     1       3.153   3.584  18.036  0.00  0.00    +0.000 F 
ATOM     21  F   UNL     1       4.571   4.129  19.590  0.00  0.00    +0.000 F 
ENDBRANCH  14  18
ENDBRANCH   8  10
BRANCH   1  28
ATOM     22  C   UNL     1      -3.781  11.812  18.188  0.00  0.00    +0.000 A 
ATOM     23  C   UNL     1      -4.643  11.276  17.212  0.00  0.00    +0.000 A 
ATOM     24  F   UNL     1      -5.940  11.624  17.166  0.00  0.00    +0.000 F 
ATOM     25  C   UNL     1      -4.206  10.410  16.220  0.00  0.00    +0.000 A 
ATOM     26  C   UNL     1      -2.872  10.048  16.173  0.00  0.00    +0.000 A 
ATOM     27  C   UNL     1      -1.983  10.594  17.107  0.00  0.00    +0.000 A 
ATOM     28  C   UNL     1      -2.410  11.498  18.113  0.00  0.00    +0.000 A 
BRANCH  22  30
ATOM     29  C   UNL     1      -5.051  12.113  20.157  0.00  0.00    +0.000 C 
ATOM     30  O   UNL     1      -4.236  12.692  19.133  0.00  0.00    +0.000 OA
ENDBRANCH  22  30
ENDBRANCH   1  28
TORSDOF 4
ENDMDL
