MODEL 1
REMARK VINA RESULT:      -8.1      0.000      0.000
REMARK  Name = 
REMARK  6 active torsions:
REMARK  status: ('A' for Active; 'I' for Inactive)
REMARK    1  A    between atoms: C_2  and  C_13
REMARK    2  A    between atoms: N_3  and  C_4
REMARK    3  A    between atoms: C_4  and  C_5
REMARK    4  A    between atoms: C_5  and  C_6
REMARK    5  A    between atoms: C_6  and  C_7
REMARK    6  A    between atoms: C_16  and  N_17
REMARK                            x       y       z     vdW  Elec       q    Type
REMARK                         _______ _______ _______ _____ _____    ______ ____
ROOT
ATOM      1  C   UNL     1       2.798   7.288  18.779  0.00  0.00    +0.000 A 
ATOM      2  C   UNL     1       2.588   8.308  17.845  0.00  0.00    +0.000 A 
ATOM      3  C   UNL     1       1.705   9.361  18.128  0.00  0.00    +0.000 A 
ATOM      4  C   UNL     1       1.030   9.420  19.348  0.00  0.00    +0.000 A 
ATOM      5  C   UNL     1       1.291   8.434  20.309  0.00  0.00    +0.000 A 
ATOM      6  C   UNL     1       2.163   7.374  20.026  0.00  0.00    +0.000 A 
ENDROOT
BRANCH   4   7
ATOM      7  N   UNL     1       0.079  10.412  19.678  0.00  0.00    +0.000 N 
ATOM      8  C   UNL     1      -1.137  10.645  19.071  0.00  0.00    +0.000 C 
ATOM      9  O   UNL     1      -1.564  10.050  18.085  0.00  0.00    +0.000 OA
ATOM     10  N   UNL     1      -1.905  11.615  19.680  0.00  0.00    +0.000 N 
ATOM     11  C   UNL     1      -3.240  11.932  19.160  0.00  0.00    +0.000 C 
ATOM     12  C   UNL     1      -3.779  12.895  20.151  0.00  0.00    +0.000 A 
ATOM     13  C   UNL     1      -4.968  13.560  20.227  0.00  0.00    +0.000 A 
ATOM     14  N   UNL     1      -5.247  14.390  21.254  0.00  0.00    +0.000 NA
ATOM     15  C   UNL     1      -4.293  14.529  22.200  0.00  0.00    +0.000 A 
ATOM     16  N   UNL     1      -3.094  13.921  22.221  0.00  0.00    +0.000 NA
ATOM     17  C   UNL     1      -2.881  13.116  21.175  0.00  0.00    +0.000 A 
ATOM     18  C   UNL     1      -1.643  12.298  20.948  0.00  0.00    +0.000 C 
ATOM     19  H   UNL     1       0.294  10.959  20.493  0.00  0.00    +0.000 HD
ENDBRANCH   4   7
BRANCH   1  21
ATOM     20  O   UNL     1       4.360   5.641  19.418  0.00  0.00    +0.000 OA
ATOM     21  C   UNL     1       3.689   6.121  18.511  0.00  0.00    +0.000 C 
ATOM     22  N   UNL     1       3.680   5.612  17.226  0.00  0.00    +0.000 N 
ATOM     23  H   UNL     1       3.007   5.955  16.555  0.00  0.00    +0.000 HD
BRANCH  22  24
ATOM     24  C   UNL     1       4.487   4.465  16.848  0.00  0.00    +0.000 C 
BRANCH  24  25
ATOM     25  C   UNL     1       3.683   3.164  16.804  0.00  0.00    +0.000 C 
BRANCH  25  26
ATOM     26  C   UNL     1       3.953   2.315  18.053  0.00  0.00    +0.000 C 
BRANCH  26  27
ATOM     27  C   UNL     1       2.979   2.601  19.171  0.00  0.00    +0.000 A 
ATOM     28  C   UNL     1       1.668   3.009  18.891  0.00  0.00    +0.000 A 
ATOM     29  C   UNL     1       0.773   3.282  19.929  0.00  0.00    +0.000 A 
ATOM     30  C   UNL     1       1.181   3.153  21.256  0.00  0.00    +0.000 A 
ATOM     31  C   UNL     1       2.482   2.746  21.544  0.00  0.00    +0.000 A 
ATOM     32  C   UNL     1       3.377   2.473  20.509  0.00  0.00    +0.000 A 
ENDBRANCH  26  27
ENDBRANCH  25  26
ENDBRANCH  24  25
ENDBRANCH  22  24
ENDBRANCH   1  21
TORSDOF 6
ENDMDL
MODEL 2
REMARK VINA RESULT:      -8.0      1.367      1.920
REMARK  Name = 
REMARK  6 active torsions:
REMARK  status: ('A' for Active; 'I' for Inactive)
REMARK    1  A    between atoms: C_2  and  C_13
REMARK    2  A    between atoms: N_3  and  C_4
REMARK    3  A    between atoms: C_4  and  C_5
REMARK    4  A    between atoms: C_5  and  C_6
REMARK    5  A    between atoms: C_6  and  C_7
REMARK    6  A    between atoms: C_16  and  N_17
REMARK                            x       y       z     vdW  Elec       q    Type
REMARK                         _______ _______ _______ _____ _____    ______ ____
ROOT
ATOM      1  C   UNL     1       3.161   6.912  18.660  0.00  0.00    +0.000 A 
ATOM      2  C   UNL     1       2.900   8.041  17.876  0.00  0.00    +0.000 A 
ATOM      3  C   UNL     1       1.972   9.004  18.301  0.00  0.00    +0.000 A 
ATOM      4  C   UNL     1       1.300   8.862  19.515  0.00  0.00    +0.000 A 
ATOM      5  C   UNL     1       1.610   7.765  20.331  0.00  0.00    +0.000 A 
ATOM      6  C   UNL     1       2.527   6.796  19.905  0.00  0.00    +0.000 A 
ENDROOT
BRANCH   4   7
ATOM      7  N   UNL     1       0.307   9.755  19.978  0.00  0.00    +0.000 N 
ATOM      8  C   UNL     1       0.327  10.508  21.133  0.00  0.00    +0.000 C 
ATOM      9  O   UNL     1       1.206  10.472  21.989  0.00  0.00    +0.000 OA
ATOM     10  N   UNL     1      -0.737  11.375  21.270  0.00  0.00    +0.000 N 
ATOM     11  C   UNL     1      -0.816  12.266  22.434  0.00  0.00    +0.000 C 
ATOM     12  C   UNL     1      -1.998  13.114  22.142  0.00  0.00    +0.000 A 
ATOM     13  C   UNL     1      -2.591  14.126  22.837  0.00  0.00    +0.000 A 
ATOM     14  N   UNL     1      -3.670  14.776  22.353  0.00  0.00    +0.000 NA
ATOM     15  C   UNL     1      -4.131  14.377  21.148  0.00  0.00    +0.000 A 
ATOM     16  N   UNL     1      -3.620  13.396  20.383  0.00  0.00    +0.000 NA
ATOM     17  C   UNL     1      -2.557  12.792  20.922  0.00  0.00    +0.000 A 
ATOM     18  C   UNL     1      -1.774  11.681  20.284  0.00  0.00    +0.000 C 
ATOM     19  H   UNL     1      -0.466   9.900  19.352  0.00  0.00    +0.000 HD
ENDBRANCH   4   7
BRANCH   1  21
ATOM     20  O   UNL     1       5.083   5.572  18.921  0.00  0.00    +0.000 OA
ATOM     21  C   UNL     1       4.101   5.835  18.235  0.00  0.00    +0.000 C 
ATOM     22  N   UNL     1       3.785   5.153  17.075  0.00  0.00    +0.000 N 
ATOM     23  H   UNL     1       2.895   5.315  16.624  0.00  0.00    +0.000 HD
BRANCH  22  24
ATOM     24  C   UNL     1       4.612   4.070  16.570  0.00  0.00    +0.000 C 
BRANCH  24  25
ATOM     25  C   UNL     1       4.272   2.720  17.206  0.00  0.00    +0.000 C 
BRANCH  25  26
ATOM     26  C   UNL     1       2.759   2.584  17.418  0.00  0.00    +0.000 C 
BRANCH  26  27
ATOM     27  C   UNL     1       2.349   2.827  18.850  0.00  0.00    +0.000 A 
ATOM     28  C   UNL     1       3.207   2.496  19.907  0.00  0.00    +0.000 A 
ATOM     29  C   UNL     1       2.819   2.714  21.231  0.00  0.00    +0.000 A 
ATOM     30  C   UNL     1       1.568   3.263  21.512  0.00  0.00    +0.000 A 
ATOM     31  C   UNL     1       0.708   3.597  20.468  0.00  0.00    +0.000 A 
ATOM     32  C   UNL     1       1.095   3.380  19.145  0.00  0.00    +0.000 A 
ENDBRANCH  26  27
ENDBRANCH  25  26
ENDBRANCH  24  25
ENDBRANCH  22  24
ENDBRANCH   1  21
TORSDOF 6
ENDMDL
MODEL 3
REMARK VINA RESULT:      -8.0      1.307      1.649
REMARK  Name = 
REMARK  6 active torsions:
REMARK  status: ('A' for Active; 'I' for Inactive)
REMARK    1  A    between atoms: C_2  and  C_13
REMARK    2  A    between atoms: N_3  and  C_4
REMARK    3  A    between atoms: C_4  and  C_5
REMARK    4  A    between atoms: C_5  and  C_6
REMARK    5  A    between atoms: C_6  and  C_7
REMARK    6  A    between atoms: C_16  and  N_17
REMARK                            x       y       z     vdW  Elec       q    Type
REMARK                         _______ _______ _______ _____ _____    ______ ____
ROOT
ATOM      1  C   UNL     1       2.629   7.215  19.074  0.00  0.00    +0.000 A 
ATOM      2  C   UNL     1       2.402   8.277  18.191  0.00  0.00    +0.000 A 
ATOM      3  C   UNL     1       1.544   9.328  18.548  0.00  0.00    +0.000 A 
ATOM      4  C   UNL     1       0.911   9.344  19.791  0.00  0.00    +0.000 A 
ATOM      5  C   UNL     1       1.189   8.314  20.700  0.00  0.00    +0.000 A 
ATOM      6  C   UNL     1       2.037   7.257  20.344  0.00  0.00    +0.000 A 
ENDROOT
BRANCH   4   7
ATOM      7  N   UNL     1      -0.015  10.333  20.194  0.00  0.00    +0.000 N 
ATOM      8  C   UNL     1       0.241  11.474  20.924  0.00  0.00    +0.000 C 
ATOM      9  O   UNL     1       1.330  11.783  21.401  0.00  0.00    +0.000 OA
ATOM     10  N   UNL     1      -0.843  12.313  21.075  0.00  0.00    +0.000 N 
ATOM     11  C   UNL     1      -0.698  13.583  21.796  0.00  0.00    +0.000 C 
ATOM     12  C   UNL     1      -2.017  14.237  21.616  0.00  0.00    +0.000 A 
ATOM     13  C   UNL     1      -2.512  15.432  22.050  0.00  0.00    +0.000 A 
ATOM     14  N   UNL     1      -3.764  15.830  21.741  0.00  0.00    +0.000 NA
ATOM     15  C   UNL     1      -4.500  14.990  20.982  0.00  0.00    +0.000 A 
ATOM     16  N   UNL     1      -4.108  13.796  20.502  0.00  0.00    +0.000 NA
ATOM     17  C   UNL     1      -2.861  13.461  20.848  0.00  0.00    +0.000 A 
ATOM     18  C   UNL     1      -2.156  12.200  20.439  0.00  0.00    +0.000 C 
ATOM     19  H   UNL     1      -0.950  10.214  19.845  0.00  0.00    +0.000 HD
ENDBRANCH   4   7
BRANCH   1  21
ATOM     20  O   UNL     1       4.243   5.570  19.572  0.00  0.00    +0.000 OA
ATOM     21  C   UNL     1       3.493   6.049  18.728  0.00  0.00    +0.000 C 
ATOM     22  N   UNL     1       3.372   5.541  17.448  0.00  0.00    +0.000 N 
ATOM     23  H   UNL     1       2.641   5.884  16.840  0.00  0.00    +0.000 HD
BRANCH  22  24
ATOM     24  C   UNL     1       4.144   4.395  17.000  0.00  0.00    +0.000 C 
BRANCH  24  25
ATOM     25  C   UNL     1       3.278   3.158  16.752  0.00  0.00    +0.000 C 
BRANCH  25  26
ATOM     26  C   UNL     1       3.463   2.131  17.877  0.00  0.00    +0.000 C 
BRANCH  26  27
ATOM     27  C   UNL     1       2.721   2.509  19.136  0.00  0.00    +0.000 A 
ATOM     28  C   UNL     1       1.406   2.989  19.076  0.00  0.00    +0.000 A 
ATOM     29  C   UNL     1       0.728   3.347  20.244  0.00  0.00    +0.000 A 
ATOM     30  C   UNL     1       1.357   3.229  21.482  0.00  0.00    +0.000 A 
ATOM     31  C   UNL     1       2.664   2.751  21.553  0.00  0.00    +0.000 A 
ATOM     32  C   UNL     1       3.343   2.393  20.387  0.00  0.00    +0.000 A 
ENDBRANCH  26  27
ENDBRANCH  25  26
ENDBRANCH  24  25
ENDBRANCH  22  24
ENDBRANCH   1  21
TORSDOF 6
ENDMDL
MODEL 4
REMARK VINA RESULT:      -7.9      0.839      1.244
REMARK  Name = 
REMARK  6 active torsions:
REMARK  status: ('A' for Active; 'I' for Inactive)
REMARK    1  A    between atoms: C_2  and  C_13
REMARK    2  A    between atoms: N_3  and  C_4
REMARK    3  A    between atoms: C_4  and  C_5
REMARK    4  A    between atoms: C_5  and  C_6
REMARK    5  A    between atoms: C_6  and  C_7
REMARK    6  A    between atoms: C_16  and  N_17
REMARK                            x       y       z     vdW  Elec       q    Type
REMARK                         _______ _______ _______ _____ _____    ______ ____
ROOT
ATOM      1  C   UNL     1       2.716   7.025  19.076  0.00  0.00    +0.000 A 
ATOM      2  C   UNL     1       2.038   7.066  20.299  0.00  0.00    +0.000 A 
ATOM      3  C   UNL     1       1.256   8.180  20.643  0.00  0.00    +0.000 A 
ATOM      4  C   UNL     1       1.130   9.261  19.770  0.00  0.00    +0.000 A 
ATOM      5  C   UNL     1       1.756   9.191  18.518  0.00  0.00    +0.000 A 
ATOM      6  C   UNL     1       2.546   8.086  18.176  0.00  0.00    +0.000 A 
ENDROOT
BRANCH   4   7
ATOM      7  N   UNL     1       0.415  10.442  20.074  0.00  0.00    +0.000 N 
ATOM      8  C   UNL     1      -0.858  10.781  19.666  0.00  0.00    +0.000 C 
ATOM      9  O   UNL     1      -1.560  10.119  18.907  0.00  0.00    +0.000 OA
ATOM     10  N   UNL     1      -1.340  11.953  20.209  0.00  0.00    +0.000 N 
ATOM     11  C   UNL     1      -2.698  12.409  19.891  0.00  0.00    +0.000 C 
ATOM     12  C   UNL     1      -2.879  13.597  20.761  0.00  0.00    +0.000 A 
ATOM     13  C   UNL     1      -3.922  14.459  20.926  0.00  0.00    +0.000 A 
ATOM     14  N   UNL     1      -3.862  15.479  21.808  0.00  0.00    +0.000 NA
ATOM     15  C   UNL     1      -2.720  15.601  22.519  0.00  0.00    +0.000 A 
ATOM     16  N   UNL     1      -1.638  14.807  22.435  0.00  0.00    +0.000 NA
ATOM     17  C   UNL     1      -1.763  13.820  21.541  0.00  0.00    +0.000 A 
ATOM     18  C   UNL     1      -0.725  12.775  21.253  0.00  0.00    +0.000 C 
ATOM     19  H   UNL     1       0.871  11.067  20.715  0.00  0.00    +0.000 HD
ENDBRANCH   4   7
BRANCH   1  21
ATOM     20  O   UNL     1       4.482   5.506  19.439  0.00  0.00    +0.000 OA
ATOM     21  C   UNL     1       3.598   5.888  18.681  0.00  0.00    +0.000 C 
ATOM     22  N   UNL     1       3.338   5.292  17.461  0.00  0.00    +0.000 N 
ATOM     23  H   UNL     1       2.513   5.555  16.940  0.00  0.00    +0.000 HD
BRANCH  22  24
ATOM     24  C   UNL     1       4.113   4.163  16.976  0.00  0.00    +0.000 C 
BRANCH  24  25
ATOM     25  C   UNL     1       3.275   2.892  16.821  0.00  0.00    +0.000 C 
BRANCH  25  26
ATOM     26  C   UNL     1       3.479   1.956  18.020  0.00  0.00    +0.000 C 
BRANCH  26  27
ATOM     27  C   UNL     1       2.722   2.408  19.245  0.00  0.00    +0.000 A 
ATOM     28  C   UNL     1       1.397   2.855  19.144  0.00  0.00    +0.000 A 
ATOM     29  C   UNL     1       0.704   3.282  20.280  0.00  0.00    +0.000 A 
ATOM     30  C   UNL     1       1.328   3.267  21.526  0.00  0.00    +0.000 A 
ATOM     31  C   UNL     1       2.644   2.823  21.637  0.00  0.00    +0.000 A 
ATOM     32  C   UNL     1       3.338   2.397  20.504  0.00  0.00    +0.000 A 
ENDBRANCH  26  27
ENDBRANCH  25  26
ENDBRANCH  24  25
ENDBRANCH  22  24
ENDBRANCH   1  21
TORSDOF 6
ENDMDL
MODEL 5
REMARK VINA RESULT:      -7.9      1.521      2.230
REMARK  Name = 
REMARK  6 active torsions:
REMARK  status: ('A' for Active; 'I' for Inactive)
REMARK    1  A    between atoms: C_2  and  C_13
REMARK    2  A    between atoms: N_3  and  C_4
REMARK    3  A    between atoms: C_4  and  C_5
REMARK    4  A    between atoms: C_5  and  C_6
REMARK    5  A    between atoms: C_6  and  C_7
REMARK    6  A    between atoms: C_16  and  N_17
REMARK                            x       y       z     vdW  Elec       q    Type
REMARK                         _______ _______ _______ _____ _____    ______ ____
ROOT
ATOM      1  C   UNL     1       2.835   6.979  19.076  0.00  0.00    +0.000 A 
ATOM      2  C   UNL     1       2.196   6.817  20.311  0.00  0.00    +0.000 A 
ATOM      3  C   UNL     1       1.265   7.767  20.759  0.00  0.00    +0.000 A 
ATOM      4  C   UNL     1       0.949   8.881  19.982  0.00  0.00    +0.000 A 
ATOM      5  C   UNL     1       1.541   9.009  18.718  0.00  0.00    +0.000 A 
ATOM      6  C   UNL     1       2.479   8.069  18.271  0.00  0.00    +0.000 A 
ENDROOT
BRANCH   4   7
ATOM      7  N   UNL     1       0.072   9.910  20.395  0.00  0.00    +0.000 N 
ATOM      8  C   UNL     1      -0.058  10.445  21.659  0.00  0.00    +0.000 C 
ATOM      9  O   UNL     1       0.539  10.058  22.659  0.00  0.00    +0.000 OA
ATOM     10  N   UNL     1      -0.921  11.518  21.741  0.00  0.00    +0.000 N 
ATOM     11  C   UNL     1      -1.120  12.208  23.021  0.00  0.00    +0.000 C 
ATOM     12  C   UNL     1      -1.985  13.359  22.664  0.00  0.00    +0.000 A 
ATOM     13  C   UNL     1      -2.521  14.366  23.411  0.00  0.00    +0.000 A 
ATOM     14  N   UNL     1      -3.279  15.332  22.852  0.00  0.00    +0.000 NA
ATOM     15  C   UNL     1      -3.479  15.253  21.519  0.00  0.00    +0.000 A 
ATOM     16  N   UNL     1      -2.996  14.308  20.693  0.00  0.00    +0.000 NA
ATOM     17  C   UNL     1      -2.258  13.381  21.312  0.00  0.00    +0.000 A 
ATOM     18  C   UNL     1      -1.578  12.223  20.640  0.00  0.00    +0.000 C 
ATOM     19  H   UNL     1      -0.463  10.339  19.660  0.00  0.00    +0.000 HD
ENDBRANCH   4   7
BRANCH   1  21
ATOM     20  O   UNL     1       4.815   5.716  19.286  0.00  0.00    +0.000 OA
ATOM     21  C   UNL     1       3.867   6.026  18.573  0.00  0.00    +0.000 C 
ATOM     22  N   UNL     1       3.672   5.508  17.306  0.00  0.00    +0.000 N 
ATOM     23  H   UNL     1       2.806   5.689  16.818  0.00  0.00    +0.000 HD
BRANCH  22  24
ATOM     24  C   UNL     1       4.596   4.556  16.715  0.00  0.00    +0.000 C 
BRANCH  24  25
ATOM     25  C   UNL     1       4.366   3.125  17.206  0.00  0.00    +0.000 C 
BRANCH  25  26
ATOM     26  C   UNL     1       2.867   2.842  17.373  0.00  0.00    +0.000 C 
BRANCH  26  27
ATOM     27  C   UNL     1       2.417   2.927  18.811  0.00  0.00    +0.000 A 
ATOM     28  C   UNL     1       3.281   2.569  19.855  0.00  0.00    +0.000 A 
ATOM     29  C   UNL     1       2.857   2.640  21.184  0.00  0.00    +0.000 A 
ATOM     30  C   UNL     1       1.564   3.069  21.483  0.00  0.00    +0.000 A 
ATOM     31  C   UNL     1       0.698   3.429  20.453  0.00  0.00    +0.000 A 
ATOM     32  C   UNL     1       1.120   3.358  19.125  0.00  0.00    +0.000 A 
ENDBRANCH  26  27
ENDBRANCH  25  26
ENDBRANCH  24  25
ENDBRANCH  22  24
ENDBRANCH   1  21
TORSDOF 6
ENDMDL
MODEL 6
REMARK VINA RESULT:      -7.8      1.603      2.330
REMARK  Name = 
REMARK  6 active torsions:
REMARK  status: ('A' for Active; 'I' for Inactive)
REMARK    1  A    between atoms: C_2  and  C_13
REMARK    2  A    between atoms: N_3  and  C_4
REMARK    3  A    between atoms: C_4  and  C_5
REMARK    4  A    between atoms: C_5  and  C_6
REMARK    5  A    between atoms: C_6  and  C_7
REMARK    6  A    between atoms: C_16  and  N_17
REMARK                            x       y       z     vdW  Elec       q    Type
REMARK                         _______ _______ _______ _____ _____    ______ ____
ROOT
ATOM      1  C   UNL     1       2.563   7.721  18.619  0.00  0.00    +0.000 A 
ATOM      2  C   UNL     1       2.121   7.430  19.915  0.00  0.00    +0.000 A 
ATOM      3  C   UNL     1       1.264   8.314  20.589  0.00  0.00    +0.000 A 
ATOM      4  C   UNL     1       0.827   9.490  19.981  0.00  0.00    +0.000 A 
ATOM      5  C   UNL     1       1.218   9.749  18.660  0.00  0.00    +0.000 A 
ATOM      6  C   UNL     1       2.082   8.876  17.986  0.00  0.00    +0.000 A 
ENDROOT
BRANCH   4   7
ATOM      7  N   UNL     1       0.019  10.458  20.620  0.00  0.00    +0.000 N 
ATOM      8  C   UNL     1       0.418  11.663  21.157  0.00  0.00    +0.000 C 
ATOM      9  O   UNL     1       1.576  12.064  21.219  0.00  0.00    +0.000 OA
ATOM     10  N   UNL     1      -0.613  12.453  21.621  0.00  0.00    +0.000 N 
ATOM     11  C   UNL     1      -0.331  13.780  22.180  0.00  0.00    +0.000 C 
ATOM     12  C   UNL     1      -1.680  14.349  22.423  0.00  0.00    +0.000 A 
ATOM     13  C   UNL     1      -2.089  15.545  22.933  0.00  0.00    +0.000 A 
ATOM     14  N   UNL     1      -3.398  15.853  23.046  0.00  0.00    +0.000 NA
ATOM     15  C   UNL     1      -4.281  14.920  22.627  0.00  0.00    +0.000 A 
ATOM     16  N   UNL     1      -3.983  13.715  22.109  0.00  0.00    +0.000 NA
ATOM     17  C   UNL     1      -2.671  13.473  22.029  0.00  0.00    +0.000 A 
ATOM     18  C   UNL     1      -2.051  12.223  21.474  0.00  0.00    +0.000 C 
ATOM     19  H   UNL     1      -0.968  10.264  20.615  0.00  0.00    +0.000 HD
ENDBRANCH   4   7
BRANCH   1  21
ATOM     20  O   UNL     1       4.019   7.234  16.830  0.00  0.00    +0.000 OA
ATOM     21  C   UNL     1       3.511   6.842  17.875  0.00  0.00    +0.000 C 
ATOM     22  N   UNL     1       3.796   5.613  18.440  0.00  0.00    +0.000 N 
ATOM     23  H   UNL     1       3.460   5.397  19.368  0.00  0.00    +0.000 HD
BRANCH  22  24
ATOM     24  C   UNL     1       4.720   4.678  17.820  0.00  0.00    +0.000 C 
BRANCH  24  25
ATOM     25  C   UNL     1       4.007   3.572  17.039  0.00  0.00    +0.000 C 
BRANCH  25  26
ATOM     26  C   UNL     1       3.818   2.325  17.912  0.00  0.00    +0.000 C 
BRANCH  26  27
ATOM     27  C   UNL     1       2.913   2.575  19.093  0.00  0.00    +0.000 A 
ATOM     28  C   UNL     1       3.410   2.510  20.403  0.00  0.00    +0.000 A 
ATOM     29  C   UNL     1       2.566   2.732  21.494  0.00  0.00    +0.000 A 
ATOM     30  C   UNL     1       1.218   3.020  21.287  0.00  0.00    +0.000 A 
ATOM     31  C   UNL     1       0.714   3.088  19.990  0.00  0.00    +0.000 A 
ATOM     32  C   UNL     1       1.556   2.866  18.899  0.00  0.00    +0.000 A 
ENDBRANCH  26  27
ENDBRANCH  25  26
ENDBRANCH  24  25
ENDBRANCH  22  24
ENDBRANCH   1  21
TORSDOF 6
ENDMDL
MODEL 7
REMARK VINA RESULT:      -7.8      0.861      1.501
REMARK  Name = 
REMARK  6 active torsions:
REMARK  status: ('A' for Active; 'I' for Inactive)
REMARK    1  A    between atoms: C_2  and  C_13
REMARK    2  A    between atoms: N_3  and  C_4
REMARK    3  A    between atoms: C_4  and  C_5
REMARK    4  A    between atoms: C_5  and  C_6
REMARK    5  A    between atoms: C_6  and  C_7
REMARK    6  A    between atoms: C_16  and  N_17
REMARK                            x       y       z     vdW  Elec       q    Type
REMARK                         _______ _______ _______ _____ _____    ______ ____
ROOT
ATOM      1  C   UNL     1       3.009   7.391  18.245  0.00  0.00    +0.000 A 
ATOM      2  C   UNL     1       2.350   7.084  19.441  0.00  0.00    +0.000 A 
ATOM      3  C   UNL     1       1.450   7.997  20.011  0.00  0.00    +0.000 A 
ATOM      4  C   UNL     1       1.184   9.220  19.395  0.00  0.00    +0.000 A 
ATOM      5  C   UNL     1       1.794   9.498  18.163  0.00  0.00    +0.000 A 
ATOM      6  C   UNL     1       2.702   8.595  17.596  0.00  0.00    +0.000 A 
ENDROOT
BRANCH   4   7
ATOM      7  N   UNL     1       0.341  10.214  19.941  0.00  0.00    +0.000 N 
ATOM      8  C   UNL     1      -0.801  10.747  19.381  0.00  0.00    +0.000 C 
ATOM      9  O   UNL     1      -1.237  10.477  18.266  0.00  0.00    +0.000 OA
ATOM     10  N   UNL     1      -1.481  11.627  20.196  0.00  0.00    +0.000 N 
ATOM     11  C   UNL     1      -2.735  12.236  19.739  0.00  0.00    +0.000 C 
ATOM     12  C   UNL     1      -3.212  12.985  20.928  0.00  0.00    +0.000 A 
ATOM     13  C   UNL     1      -4.315  13.758  21.140  0.00  0.00    +0.000 A 
ATOM     14  N   UNL     1      -4.552  14.337  22.335  0.00  0.00    +0.000 NA
ATOM     15  C   UNL     1      -3.645  14.111  23.310  0.00  0.00    +0.000 A 
ATOM     16  N   UNL     1      -2.530  13.366  23.207  0.00  0.00    +0.000 NA
ATOM     17  C   UNL     1      -2.355  12.825  21.997  0.00  0.00    +0.000 A 
ATOM     18  C   UNL     1      -1.213  11.934  21.602  0.00  0.00    +0.000 C 
ATOM     19  H   UNL     1       0.573  10.509  20.874  0.00  0.00    +0.000 HD
ENDBRANCH   4   7
BRANCH   1  21
ATOM     20  O   UNL     1       5.157   6.868  17.426  0.00  0.00    +0.000 OA
ATOM     21  C   UNL     1       4.011   6.479  17.619  0.00  0.00    +0.000 C 
ATOM     22  N   UNL     1       3.585   5.199  17.316  0.00  0.00    +0.000 N 
ATOM     23  H   UNL     1       2.674   4.888  17.623  0.00  0.00    +0.000 HD
BRANCH  22  24
ATOM     24  C   UNL     1       4.473   4.214  16.725  0.00  0.00    +0.000 C 
BRANCH  24  25
ATOM     25  C   UNL     1       4.469   2.884  17.480  0.00  0.00    +0.000 C 
BRANCH  25  26
ATOM     26  C   UNL     1       3.036   2.371  17.672  0.00  0.00    +0.000 C 
BRANCH  26  27
ATOM     27  C   UNL     1       2.487   2.681  19.044  0.00  0.00    +0.000 A 
ATOM     28  C   UNL     1       3.219   2.366  20.197  0.00  0.00    +0.000 A 
ATOM     29  C   UNL     1       2.702   2.646  21.464  0.00  0.00    +0.000 A 
ATOM     30  C   UNL     1       1.448   3.242  21.592  0.00  0.00    +0.000 A 
ATOM     31  C   UNL     1       0.713   3.560  20.452  0.00  0.00    +0.000 A 
ATOM     32  C   UNL     1       1.228   3.281  19.185  0.00  0.00    +0.000 A 
ENDBRANCH  26  27
ENDBRANCH  25  26
ENDBRANCH  24  25
ENDBRANCH  22  24
ENDBRANCH   1  21
TORSDOF 6
ENDMDL
MODEL 8
REMARK VINA RESULT:      -7.8      2.986      4.071
REMARK  Name = 
REMARK  6 active torsions:
REMARK  status: ('A' for Active; 'I' for Inactive)
REMARK    1  A    between atoms: C_2  and  C_13
REMARK    2  A    between atoms: N_3  and  C_4
REMARK    3  A    between atoms: C_4  and  C_5
REMARK    4  A    between atoms: C_5  and  C_6
REMARK    5  A    between atoms: C_6  and  C_7
REMARK    6  A    between atoms: C_16  and  N_17
REMARK                            x       y       z     vdW  Elec       q    Type
REMARK                         _______ _______ _______ _____ _____    ______ ____
ROOT
ATOM      1  C   UNL     1       1.645   6.519  20.233  0.00  0.00    +0.000 A 
ATOM      2  C   UNL     1       1.079   7.392  21.169  0.00  0.00    +0.000 A 
ATOM      3  C   UNL     1       0.979   8.764  20.893  0.00  0.00    +0.000 A 
ATOM      4  C   UNL     1       1.430   9.284  19.679  0.00  0.00    +0.000 A 
ATOM      5  C   UNL     1       1.936   8.400  18.716  0.00  0.00    +0.000 A 
ATOM      6  C   UNL     1       2.048   7.031  18.991  0.00  0.00    +0.000 A 
ENDROOT
BRANCH   4   7
ATOM      7  N   UNL     1       1.422  10.660  19.357  0.00  0.00    +0.000 N 
ATOM      8  C   UNL     1       0.323  11.467  19.146  0.00  0.00    +0.000 C 
ATOM      9  O   UNL     1      -0.845  11.089  19.144  0.00  0.00    +0.000 OA
ATOM     10  N   UNL     1       0.620  12.800  18.954  0.00  0.00    +0.000 N 
ATOM     11  C   UNL     1      -0.460  13.774  18.759  0.00  0.00    +0.000 C 
ATOM     12  C   UNL     1       0.249  15.078  18.734  0.00  0.00    +0.000 A 
ATOM     13  C   UNL     1      -0.196  16.358  18.580  0.00  0.00    +0.000 A 
ATOM     14  N   UNL     1       0.652  17.407  18.609  0.00  0.00    +0.000 NA
ATOM     15  C   UNL     1       1.959  17.128  18.800  0.00  0.00    +0.000 A 
ATOM     16  N   UNL     1       2.500  15.907  18.964  0.00  0.00    +0.000 NA
ATOM     17  C   UNL     1       1.606  14.914  18.921  0.00  0.00    +0.000 A 
ATOM     18  C   UNL     1       1.921  13.456  19.095  0.00  0.00    +0.000 C 
ATOM     19  H   UNL     1       2.323  11.105  19.352  0.00  0.00    +0.000 HD
ENDBRANCH   4   7
BRANCH   1  21
ATOM     20  O   UNL     1       2.392   4.683  21.509  0.00  0.00    +0.000 OA
ATOM     21  C   UNL     1       1.819   5.060  20.493  0.00  0.00    +0.000 C 
ATOM     22  N   UNL     1       1.278   4.192  19.563  0.00  0.00    +0.000 N 
ATOM     23  H   UNL     1       0.698   4.552  18.819  0.00  0.00    +0.000 HD
BRANCH  22  24
ATOM     24  C   UNL     1       1.364   2.751  19.717  0.00  0.00    +0.000 C 
BRANCH  24  25
ATOM     25  C   UNL     1       1.815   2.044  18.436  0.00  0.00    +0.000 C 
BRANCH  25  26
ATOM     26  C   UNL     1       3.340   1.872  18.417  0.00  0.00    +0.000 C 
BRANCH  26  27
ATOM     27  C   UNL     1       4.069   3.177  18.208  0.00  0.00    +0.000 A 
ATOM     28  C   UNL     1       4.895   3.705  19.210  0.00  0.00    +0.000 A 
ATOM     29  C   UNL     1       5.560   4.918  19.015  0.00  0.00    +0.000 A 
ATOM     30  C   UNL     1       5.404   5.617  17.819  0.00  0.00    +0.000 A 
ATOM     31  C   UNL     1       4.586   5.100  16.816  0.00  0.00    +0.000 A 
ATOM     32  C   UNL     1       3.921   3.888  17.009  0.00  0.00    +0.000 A 
ENDBRANCH  26  27
ENDBRANCH  25  26
ENDBRANCH  24  25
ENDBRANCH  22  24
ENDBRANCH   1  21
TORSDOF 6
ENDMDL
MODEL 9
REMARK VINA RESULT:      -7.7      2.998      4.188
REMARK  Name = 
REMARK  6 active torsions:
REMARK  status: ('A' for Active; 'I' for Inactive)
REMARK    1  A    between atoms: C_2  and  C_13
REMARK    2  A    between atoms: N_3  and  C_4
REMARK    3  A    between atoms: C_4  and  C_5
REMARK    4  A    between atoms: C_5  and  C_6
REMARK    5  A    between atoms: C_6  and  C_7
REMARK    6  A    between atoms: C_16  and  N_17
REMARK                            x       y       z     vdW  Elec       q    Type
REMARK                         _______ _______ _______ _____ _____    ______ ____
ROOT
ATOM      1  C   UNL     1       2.245   6.941  19.105  0.00  0.00    +0.000 A 
ATOM      2  C   UNL     1       1.739   7.610  20.226  0.00  0.00    +0.000 A 
ATOM      3  C   UNL     1       1.426   8.976  20.158  0.00  0.00    +0.000 A 
ATOM      4  C   UNL     1       1.601   9.692  18.974  0.00  0.00    +0.000 A 
ATOM      5  C   UNL     1       2.045   9.008  17.834  0.00  0.00    +0.000 A 
ATOM      6  C   UNL     1       2.369   7.646  17.900  0.00  0.00    +0.000 A 
ENDROOT
BRANCH   4   7
ATOM      7  N   UNL     1       1.369  11.081  18.848  0.00  0.00    +0.000 N 
ATOM      8  C   UNL     1       0.197  11.762  19.098  0.00  0.00    +0.000 C 
ATOM      9  O   UNL     1      -0.870  11.247  19.417  0.00  0.00    +0.000 OA
ATOM     10  N   UNL     1       0.299  13.134  18.993  0.00  0.00    +0.000 N 
ATOM     11  C   UNL     1      -0.865  13.982  19.274  0.00  0.00    +0.000 C 
ATOM     12  C   UNL     1      -0.319  15.359  19.192  0.00  0.00    +0.000 A 
ATOM     13  C   UNL     1      -0.898  16.584  19.350  0.00  0.00    +0.000 A 
ATOM     14  N   UNL     1      -0.181  17.722  19.244  0.00  0.00    +0.000 NA
ATOM     15  C   UNL     1       1.136  17.589  18.975  0.00  0.00    +0.000 A 
ATOM     16  N   UNL     1       1.803  16.434  18.805  0.00  0.00    +0.000 NA
ATOM     17  C   UNL     1       1.034  15.346  18.920  0.00  0.00    +0.000 A 
ATOM     18  C   UNL     1       1.512  13.928  18.799  0.00  0.00    +0.000 C 
ATOM     19  H   UNL     1       2.177  11.631  18.616  0.00  0.00    +0.000 HD
ENDBRANCH   4   7
BRANCH   1  21
ATOM     20  O   UNL     1       3.192   5.039  20.125  0.00  0.00    +0.000 OA
ATOM     21  C   UNL     1       2.639   5.503  19.134  0.00  0.00    +0.000 C 
ATOM     22  N   UNL     1       2.317   4.746  18.023  0.00  0.00    +0.000 N 
ATOM     23  H   UNL     1       1.740   5.143  17.296  0.00  0.00    +0.000 HD
BRANCH  22  24
ATOM     24  C   UNL     1       2.629   3.329  17.942  0.00  0.00    +0.000 C 
BRANCH  24  25
ATOM     25  C   UNL     1       4.095   3.065  17.590  0.00  0.00    +0.000 C 
BRANCH  25  26
ATOM     26  C   UNL     1       4.589   4.062  16.534  0.00  0.00    +0.000 C 
BRANCH  26  27
ATOM     27  C   UNL     1       5.639   5.005  17.071  0.00  0.00    +0.000 A 
ATOM     28  C   UNL     1       5.632   6.361  16.718  0.00  0.00    +0.000 A 
ATOM     29  C   UNL     1       6.611   7.227  17.210  0.00  0.00    +0.000 A 
ATOM     30  C   UNL     1       7.608   6.746  18.058  0.00  0.00    +0.000 A 
ATOM     31  C   UNL     1       7.623   5.400  18.416  0.00  0.00    +0.000 A 
ATOM     32  C   UNL     1       6.645   4.533  17.926  0.00  0.00    +0.000 A 
ENDBRANCH  26  27
ENDBRANCH  25  26
ENDBRANCH  24  25
ENDBRANCH  22  24
ENDBRANCH   1  21
TORSDOF 6
ENDMDL
