MODEL 1
REMARK VINA RESULT:      -7.1      0.000      0.000
REMARK  Name = 
REMARK  7 active torsions:
REMARK  status: ('A' for Active; 'I' for Inactive)
REMARK    1  A    between atoms: C_1  and  O_2
REMARK    2  A    between atoms: O_2  and  C_3
REMARK    3  A    between atoms: C_5  and  N_6
REMARK    4  A    between atoms: C_7  and  C_8
REMARK    5  A    between atoms: C_13  and  O_14
REMARK    6  A    between atoms: C_16  and  O_17
REMARK    7  A    between atoms: O_17  and  C_18
REMARK                            x       y       z     vdW  Elec       q    Type
REMARK                         _______ _______ _______ _____ _____    ______ ____
ROOT
ATOM      1  C   UNL     1       6.956   5.605  15.777  0.00  0.00    +0.000 A 
ATOM      2  C   UNL     1       5.909   5.137  16.579  0.00  0.00    +0.000 A 
ATOM      3  C   UNL     1       5.039   4.138  16.131  0.00  0.00    +0.000 A 
ATOM      4  C   UNL     1       5.252   3.597  14.861  0.00  0.00    +0.000 A 
ATOM      5  C   UNL     1       6.287   4.059  14.041  0.00  0.00    +0.000 A 
ATOM      6  C   UNL     1       7.134   5.072  14.500  0.00  0.00    +0.000 A 
ENDROOT
BRANCH   1   8
ATOM      7  C   UNL     1       7.396   6.970  17.681  0.00  0.00    +0.000 C 
ATOM      8  O   UNL     1       7.736   6.568  16.360  0.00  0.00    +0.000 OA
ENDBRANCH   1   8
BRANCH   3   9
ATOM      9  N   UNL     1       4.055   3.680  17.025  0.00  0.00    +0.000 NA
ATOM     10  C   UNL     1       4.036   4.109  18.249  0.00  0.00    +0.000 C 
BRANCH  10  11
ATOM     11  C   UNL     1       3.006   3.652  19.211  0.00  0.00    +0.000 A 
ATOM     12  C   UNL     1       3.385   3.272  20.503  0.00  0.00    +0.000 A 
ATOM     13  C   UNL     1       2.421   2.844  21.418  0.00  0.00    +0.000 A 
ATOM     14  C   UNL     1       1.079   2.790  21.042  0.00  0.00    +0.000 A 
ATOM     15  C   UNL     1       0.696   3.165  19.753  0.00  0.00    +0.000 A 
ATOM     16  C   UNL     1       1.661   3.596  18.839  0.00  0.00    +0.000 A 
BRANCH  16  17
ATOM     17  O   UNL     1       1.278   3.965  17.578  0.00  0.00    +0.000 OA
ATOM     18  H   UNL     1       1.939   3.646  16.941  0.00  0.00    +0.000 HD
ENDBRANCH  16  17
ENDBRANCH  10  11
ENDBRANCH   3   9
BRANCH   5  19
ATOM     19  O   UNL     1       6.368   3.434  12.825  0.00  0.00    +0.000 OA
ATOM     20  C   UNL     1       5.164   3.302  12.082  0.00  0.00    +0.000 C 
ENDBRANCH   5  19
TORSDOF 5
ENDMDL
MODEL 2
REMARK VINA RESULT:      -7.0      1.169      1.550
REMARK  Name = 
REMARK  7 active torsions:
REMARK  status: ('A' for Active; 'I' for Inactive)
REMARK    1  A    between atoms: C_1  and  O_2
REMARK    2  A    between atoms: O_2  and  C_3
REMARK    3  A    between atoms: C_5  and  N_6
REMARK    4  A    between atoms: C_7  and  C_8
REMARK    5  A    between atoms: C_13  and  O_14
REMARK    6  A    between atoms: C_16  and  O_17
REMARK    7  A    between atoms: O_17  and  C_18
REMARK                            x       y       z     vdW  Elec       q    Type
REMARK                         _______ _______ _______ _____ _____    ______ ____
ROOT
ATOM      1  C   UNL     1       6.955   5.677  15.764  0.00  0.00    +0.000 A 
ATOM      2  C   UNL     1       5.912   5.264  16.600  0.00  0.00    +0.000 A 
ATOM      3  C   UNL     1       5.025   4.256  16.215  0.00  0.00    +0.000 A 
ATOM      4  C   UNL     1       5.217   3.645  14.973  0.00  0.00    +0.000 A 
ATOM      5  C   UNL     1       6.248   4.050  14.119  0.00  0.00    +0.000 A 
ATOM      6  C   UNL     1       7.112   5.074  14.515  0.00  0.00    +0.000 A 
ENDROOT
BRANCH   1   8
ATOM      7  C   UNL     1       7.379   7.202  17.546  0.00  0.00    +0.000 C 
ATOM      8  O   UNL     1       7.754   6.659  16.287  0.00  0.00    +0.000 OA
ENDBRANCH   1   8
BRANCH   3   9
ATOM      9  N   UNL     1       4.045   3.858  17.142  0.00  0.00    +0.000 NA
ATOM     10  C   UNL     1       4.206   4.105  18.405  0.00  0.00    +0.000 C 
BRANCH  10  11
ATOM     11  C   UNL     1       3.187   3.706  19.405  0.00  0.00    +0.000 A 
ATOM     12  C   UNL     1       1.912   4.282  19.364  0.00  0.00    +0.000 A 
ATOM     13  C   UNL     1       0.945   3.909  20.299  0.00  0.00    +0.000 A 
ATOM     14  C   UNL     1       1.250   2.965  21.279  0.00  0.00    +0.000 A 
ATOM     15  C   UNL     1       2.522   2.389  21.327  0.00  0.00    +0.000 A 
ATOM     16  C   UNL     1       3.489   2.761  20.389  0.00  0.00    +0.000 A 
BRANCH  16  17
ATOM     17  O   UNL     1       4.732   2.191  20.440  0.00  0.00    +0.000 OA
ATOM     18  H   UNL     1       5.319   2.759  20.966  0.00  0.00    +0.000 HD
ENDBRANCH  16  17
ENDBRANCH  10  11
ENDBRANCH   3   9
BRANCH   5  19
ATOM     19  O   UNL     1       6.307   3.361  12.937  0.00  0.00    +0.000 OA
ATOM     20  C   UNL     1       5.130   3.333  12.142  0.00  0.00    +0.000 C 
ENDBRANCH   5  19
TORSDOF 5
ENDMDL
MODEL 3
REMARK VINA RESULT:      -6.9      2.255      6.761
REMARK  Name = 
REMARK  7 active torsions:
REMARK  status: ('A' for Active; 'I' for Inactive)
REMARK    1  A    between atoms: C_1  and  O_2
REMARK    2  A    between atoms: O_2  and  C_3
REMARK    3  A    between atoms: C_5  and  N_6
REMARK    4  A    between atoms: C_7  and  C_8
REMARK    5  A    between atoms: C_13  and  O_14
REMARK    6  A    between atoms: C_16  and  O_17
REMARK    7  A    between atoms: O_17  and  C_18
REMARK                            x       y       z     vdW  Elec       q    Type
REMARK                         _______ _______ _______ _____ _____    ______ ____
ROOT
ATOM      1  C   UNL     1       2.787   6.640  19.104  0.00  0.00    +0.000 A 
ATOM      2  C   UNL     1       3.553   6.585  17.935  0.00  0.00    +0.000 A 
ATOM      3  C   UNL     1       4.197   5.409  17.540  0.00  0.00    +0.000 A 
ATOM      4  C   UNL     1       4.041   4.271  18.336  0.00  0.00    +0.000 A 
ATOM      5  C   UNL     1       3.288   4.309  19.513  0.00  0.00    +0.000 A 
ATOM      6  C   UNL     1       2.667   5.500  19.901  0.00  0.00    +0.000 A 
ENDROOT
BRANCH   1   8
ATOM      7  C   UNL     1       2.137   8.774  18.266  0.00  0.00    +0.000 C 
ATOM      8  O   UNL     1       2.200   7.853  19.347  0.00  0.00    +0.000 OA
ENDBRANCH   1   8
BRANCH   3   9
ATOM      9  N   UNL     1       4.893   5.422  16.318  0.00  0.00    +0.000 NA
ATOM     10  C   UNL     1       5.201   4.307  15.732  0.00  0.00    +0.000 C 
BRANCH  10  11
ATOM     11  C   UNL     1       5.926   4.289  14.439  0.00  0.00    +0.000 A 
ATOM     12  C   UNL     1       5.437   3.516  13.381  0.00  0.00    +0.000 A 
ATOM     13  C   UNL     1       6.110   3.497  12.158  0.00  0.00    +0.000 A 
ATOM     14  C   UNL     1       7.275   4.245  11.992  0.00  0.00    +0.000 A 
ATOM     15  C   UNL     1       7.770   5.016  13.047  0.00  0.00    +0.000 A 
ATOM     16  C   UNL     1       7.094   5.036  14.269  0.00  0.00    +0.000 A 
BRANCH  16  17
ATOM     17  O   UNL     1       7.582   5.796  15.297  0.00  0.00    +0.000 OA
ATOM     18  H   UNL     1       6.838   6.208  15.767  0.00  0.00    +0.000 HD
ENDBRANCH  16  17
ENDBRANCH  10  11
ENDBRANCH   3   9
BRANCH   5  19
ATOM     19  O   UNL     1       3.229   3.118  20.187  0.00  0.00    +0.000 OA
ATOM     20  C   UNL     1       4.367   2.270  20.107  0.00  0.00    +0.000 C 
ENDBRANCH   5  19
TORSDOF 5
ENDMDL
MODEL 4
REMARK VINA RESULT:      -6.9      0.200      2.991
REMARK  Name = 
REMARK  7 active torsions:
REMARK  status: ('A' for Active; 'I' for Inactive)
REMARK    1  A    between atoms: C_1  and  O_2
REMARK    2  A    between atoms: O_2  and  C_3
REMARK    3  A    between atoms: C_5  and  N_6
REMARK    4  A    between atoms: C_7  and  C_8
REMARK    5  A    between atoms: C_13  and  O_14
REMARK    6  A    between atoms: C_16  and  O_17
REMARK    7  A    between atoms: O_17  and  C_18
REMARK                            x       y       z     vdW  Elec       q    Type
REMARK                         _______ _______ _______ _____ _____    ______ ____
ROOT
ATOM      1  C   UNL     1       6.309   4.043  14.181  0.00  0.00    +0.000 A 
ATOM      2  C   UNL     1       5.380   3.560  15.108  0.00  0.00    +0.000 A 
ATOM      3  C   UNL     1       5.284   4.102  16.393  0.00  0.00    +0.000 A 
ATOM      4  C   UNL     1       6.130   5.162  16.728  0.00  0.00    +0.000 A 
ATOM      5  C   UNL     1       7.072   5.652  15.818  0.00  0.00    +0.000 A 
ATOM      6  C   UNL     1       7.165   5.083  14.544  0.00  0.00    +0.000 A 
ENDROOT
BRANCH   1   8
ATOM      7  C   UNL     1       5.028   3.437  12.264  0.00  0.00    +0.000 C 
ATOM      8  O   UNL     1       6.269   3.427  12.958  0.00  0.00    +0.000 OA
ENDBRANCH   1   8
BRANCH   3   9
ATOM      9  N   UNL     1       4.280   3.602  17.241  0.00  0.00    +0.000 NA
ATOM     10  C   UNL     1       4.038   4.181  18.376  0.00  0.00    +0.000 C 
BRANCH  10  11
ATOM     11  C   UNL     1       2.980   3.683  19.287  0.00  0.00    +0.000 A 
ATOM     12  C   UNL     1       3.305   3.336  20.603  0.00  0.00    +0.000 A 
ATOM     13  C   UNL     1       2.314   2.870  21.469  0.00  0.00    +0.000 A 
ATOM     14  C   UNL     1       0.999   2.746  21.021  0.00  0.00    +0.000 A 
ATOM     15  C   UNL     1       0.670   3.087  19.708  0.00  0.00    +0.000 A 
ATOM     16  C   UNL     1       1.661   3.556  18.842  0.00  0.00    +0.000 A 
BRANCH  16  17
ATOM     17  O   UNL     1       1.332   3.892  17.558  0.00  0.00    +0.000 OA
ATOM     18  H   UNL     1       1.966   4.552  17.231  0.00  0.00    +0.000 HD
ENDBRANCH  16  17
ENDBRANCH  10  11
ENDBRANCH   3   9
BRANCH   5  19
ATOM     19  O   UNL     1       7.830   6.690  16.290  0.00  0.00    +0.000 OA
ATOM     20  C   UNL     1       7.437   7.271  17.526  0.00  0.00    +0.000 C 
ENDBRANCH   5  19
TORSDOF 5
ENDMDL
MODEL 5
REMARK VINA RESULT:      -6.9      2.221      6.999
REMARK  Name = 
REMARK  7 active torsions:
REMARK  status: ('A' for Active; 'I' for Inactive)
REMARK    1  A    between atoms: C_1  and  O_2
REMARK    2  A    between atoms: O_2  and  C_3
REMARK    3  A    between atoms: C_5  and  N_6
REMARK    4  A    between atoms: C_7  and  C_8
REMARK    5  A    between atoms: C_13  and  O_14
REMARK    6  A    between atoms: C_16  and  O_17
REMARK    7  A    between atoms: O_17  and  C_18
REMARK                            x       y       z     vdW  Elec       q    Type
REMARK                         _______ _______ _______ _____ _____    ______ ____
ROOT
ATOM      1  C   UNL     1       3.452   4.204  19.556  0.00  0.00    +0.000 A 
ATOM      2  C   UNL     1       4.106   4.268  18.321  0.00  0.00    +0.000 A 
ATOM      3  C   UNL     1       4.077   5.428  17.541  0.00  0.00    +0.000 A 
ATOM      4  C   UNL     1       3.393   6.541  18.037  0.00  0.00    +0.000 A 
ATOM      5  C   UNL     1       2.726   6.492  19.265  0.00  0.00    +0.000 A 
ATOM      6  C   UNL     1       2.750   5.317  20.021  0.00  0.00    +0.000 A 
ENDROOT
BRANCH   1   8
ATOM      7  C   UNL     1       2.672   2.739  21.267  0.00  0.00    +0.000 C 
ATOM      8  O   UNL     1       3.588   3.010  20.214  0.00  0.00    +0.000 OA
ENDBRANCH   1   8
BRANCH   3   9
ATOM      9  N   UNL     1       4.814   5.429  16.344  0.00  0.00    +0.000 NA
ATOM     10  C   UNL     1       5.078   4.311  15.741  0.00  0.00    +0.000 C 
BRANCH  10  11
ATOM     11  C   UNL     1       5.845   4.281  14.472  0.00  0.00    +0.000 A 
ATOM     12  C   UNL     1       5.367   3.532  13.391  0.00  0.00    +0.000 A 
ATOM     13  C   UNL     1       6.080   3.501  12.192  0.00  0.00    +0.000 A 
ATOM     14  C   UNL     1       7.272   4.214  12.071  0.00  0.00    +0.000 A 
ATOM     15  C   UNL     1       7.755   4.960  13.148  0.00  0.00    +0.000 A 
ATOM     16  C   UNL     1       7.040   4.993  14.347  0.00  0.00    +0.000 A 
BRANCH  16  17
ATOM     17  O   UNL     1       7.517   5.729  15.398  0.00  0.00    +0.000 OA
ATOM     18  H   UNL     1       8.006   6.495  15.052  0.00  0.00    +0.000 HD
ENDBRANCH  16  17
ENDBRANCH  10  11
ENDBRANCH   3   9
BRANCH   5  19
ATOM     19  O   UNL     1       2.099   7.659  19.615  0.00  0.00    +0.000 OA
ATOM     20  C   UNL     1       1.917   8.630  18.594  0.00  0.00    +0.000 C 
ENDBRANCH   5  19
TORSDOF 5
ENDMDL
MODEL 6
REMARK VINA RESULT:      -6.7      1.376      3.372
REMARK  Name = 
REMARK  7 active torsions:
REMARK  status: ('A' for Active; 'I' for Inactive)
REMARK    1  A    between atoms: C_1  and  O_2
REMARK    2  A    between atoms: O_2  and  C_3
REMARK    3  A    between atoms: C_5  and  N_6
REMARK    4  A    between atoms: C_7  and  C_8
REMARK    5  A    between atoms: C_13  and  O_14
REMARK    6  A    between atoms: C_16  and  O_17
REMARK    7  A    between atoms: O_17  and  C_18
REMARK                            x       y       z     vdW  Elec       q    Type
REMARK                         _______ _______ _______ _____ _____    ______ ____
ROOT
ATOM      1  C   UNL     1       6.065   4.166  14.396  0.00  0.00    +0.000 A 
ATOM      2  C   UNL     1       5.105   3.844  15.362  0.00  0.00    +0.000 A 
ATOM      3  C   UNL     1       5.097   4.462  16.615  0.00  0.00    +0.000 A 
ATOM      4  C   UNL     1       6.065   5.434  16.879  0.00  0.00    +0.000 A 
ATOM      5  C   UNL     1       7.038   5.763  15.931  0.00  0.00    +0.000 A 
ATOM      6  C   UNL     1       7.042   5.120  14.690  0.00  0.00    +0.000 A 
ENDROOT
BRANCH   1   8
ATOM      7  C   UNL     1       6.878   3.784  12.189  0.00  0.00    +0.000 C 
ATOM      8  O   UNL     1       5.932   3.494  13.210  0.00  0.00    +0.000 OA
ENDBRANCH   1   8
BRANCH   3   9
ATOM      9  N   UNL     1       4.059   4.127  17.503  0.00  0.00    +0.000 NA
ATOM     10  C   UNL     1       4.327   3.831  18.737  0.00  0.00    +0.000 C 
BRANCH  10  11
ATOM     11  C   UNL     1       3.254   3.482  19.698  0.00  0.00    +0.000 A 
ATOM     12  C   UNL     1       1.979   4.038  19.545  0.00  0.00    +0.000 A 
ATOM     13  C   UNL     1       0.961   3.712  20.443  0.00  0.00    +0.000 A 
ATOM     14  C   UNL     1       1.215   2.835  21.496  0.00  0.00    +0.000 A 
ATOM     15  C   UNL     1       2.487   2.280  21.656  0.00  0.00    +0.000 A 
ATOM     16  C   UNL     1       3.505   2.604  20.756  0.00  0.00    +0.000 A 
BRANCH  16  17
ATOM     17  O   UNL     1       4.748   2.055  20.915  0.00  0.00    +0.000 OA
ATOM     18  H   UNL     1       4.724   1.429  21.659  0.00  0.00    +0.000 HD
ENDBRANCH  16  17
ENDBRANCH  10  11
ENDBRANCH   3   9
BRANCH   5  19
ATOM     19  O   UNL     1       7.919   6.731  16.335  0.00  0.00    +0.000 OA
ATOM     20  C   UNL     1       7.499   7.594  17.383  0.00  0.00    +0.000 C 
ENDBRANCH   5  19
TORSDOF 5
ENDMDL
MODEL 7
REMARK VINA RESULT:      -6.6      1.125      3.310
REMARK  Name = 
REMARK  7 active torsions:
REMARK  status: ('A' for Active; 'I' for Inactive)
REMARK    1  A    between atoms: C_1  and  O_2
REMARK    2  A    between atoms: O_2  and  C_3
REMARK    3  A    between atoms: C_5  and  N_6
REMARK    4  A    between atoms: C_7  and  C_8
REMARK    5  A    between atoms: C_13  and  O_14
REMARK    6  A    between atoms: C_16  and  O_17
REMARK    7  A    between atoms: O_17  and  C_18
REMARK                            x       y       z     vdW  Elec       q    Type
REMARK                         _______ _______ _______ _____ _____    ______ ____
ROOT
ATOM      1  C   UNL     1       6.470   4.184  13.937  0.00  0.00    +0.000 A 
ATOM      2  C   UNL     1       5.421   3.741  14.749  0.00  0.00    +0.000 A 
ATOM      3  C   UNL     1       5.225   4.256  16.034  0.00  0.00    +0.000 A 
ATOM      4  C   UNL     1       6.097   5.251  16.486  0.00  0.00    +0.000 A 
ATOM      5  C   UNL     1       7.157   5.700  15.692  0.00  0.00    +0.000 A 
ATOM      6  C   UNL     1       7.347   5.157  14.419  0.00  0.00    +0.000 A 
ENDROOT
BRANCH   1   8
ATOM      7  C   UNL     1       5.282   3.255  12.091  0.00  0.00    +0.000 C 
ATOM      8  O   UNL     1       6.520   3.602  12.698  0.00  0.00    +0.000 OA
ENDBRANCH   1   8
BRANCH   3   9
ATOM      9  N   UNL     1       4.109   3.802  16.758  0.00  0.00    +0.000 NA
ATOM     10  C   UNL     1       3.818   4.333  17.905  0.00  0.00    +0.000 C 
BRANCH  10  11
ATOM     11  C   UNL     1       2.642   3.882  18.688  0.00  0.00    +0.000 A 
ATOM     12  C   UNL     1       1.855   2.828  18.212  0.00  0.00    +0.000 A 
ATOM     13  C   UNL     1       0.749   2.394  18.944  0.00  0.00    +0.000 A 
ATOM     14  C   UNL     1       0.425   3.014  20.151  0.00  0.00    +0.000 A 
ATOM     15  C   UNL     1       1.206   4.069  20.629  0.00  0.00    +0.000 A 
ATOM     16  C   UNL     1       2.314   4.501  19.897  0.00  0.00    +0.000 A 
BRANCH  16  17
ATOM     17  O   UNL     1       3.077   5.532  20.373  0.00  0.00    +0.000 OA
ATOM     18  H   UNL     1       3.562   5.934  19.633  0.00  0.00    +0.000 HD
ENDBRANCH  16  17
ENDBRANCH  10  11
ENDBRANCH   3   9
BRANCH   5  19
ATOM     19  O   UNL     1       7.925   6.674  16.272  0.00  0.00    +0.000 OA
ATOM     20  C   UNL     1       7.458   7.226  17.496  0.00  0.00    +0.000 C 
ENDBRANCH   5  19
TORSDOF 5
ENDMDL
MODEL 8
REMARK VINA RESULT:      -6.5      1.071      1.179
REMARK  Name = 
REMARK  7 active torsions:
REMARK  status: ('A' for Active; 'I' for Inactive)
REMARK    1  A    between atoms: C_1  and  O_2
REMARK    2  A    between atoms: O_2  and  C_3
REMARK    3  A    between atoms: C_5  and  N_6
REMARK    4  A    between atoms: C_7  and  C_8
REMARK    5  A    between atoms: C_13  and  O_14
REMARK    6  A    between atoms: C_16  and  O_17
REMARK    7  A    between atoms: O_17  and  C_18
REMARK                            x       y       z     vdW  Elec       q    Type
REMARK                         _______ _______ _______ _____ _____    ______ ____
ROOT
ATOM      1  C   UNL     1       7.054   5.615  15.599  0.00  0.00    +0.000 A 
ATOM      2  C   UNL     1       5.990   5.172  16.391  0.00  0.00    +0.000 A 
ATOM      3  C   UNL     1       5.097   4.198  15.935  0.00  0.00    +0.000 A 
ATOM      4  C   UNL     1       5.305   3.654  14.665  0.00  0.00    +0.000 A 
ATOM      5  C   UNL     1       6.357   4.092  13.854  0.00  0.00    +0.000 A 
ATOM      6  C   UNL     1       7.227   5.080  14.321  0.00  0.00    +0.000 A 
ENDROOT
BRANCH   1   8
ATOM      7  C   UNL     1       7.385   7.148  17.393  0.00  0.00    +0.000 C 
ATOM      8  O   UNL     1       7.855   6.556  16.189  0.00  0.00    +0.000 OA
ENDBRANCH   1   8
BRANCH   3   9
ATOM      9  N   UNL     1       4.095   3.763  16.821  0.00  0.00    +0.000 NA
ATOM     10  C   UNL     1       3.880   4.407  17.926  0.00  0.00    +0.000 C 
BRANCH  10  11
ATOM     11  C   UNL     1       2.825   3.978  18.875  0.00  0.00    +0.000 A 
ATOM     12  C   UNL     1       2.415   2.641  18.899  0.00  0.00    +0.000 A 
ATOM     13  C   UNL     1       1.426   2.228  19.793  0.00  0.00    +0.000 A 
ATOM     14  C   UNL     1       0.840   3.150  20.660  0.00  0.00    +0.000 A 
ATOM     15  C   UNL     1       1.243   4.487  20.638  0.00  0.00    +0.000 A 
ATOM     16  C   UNL     1       2.235   4.899  19.745  0.00  0.00    +0.000 A 
BRANCH  16  17
ATOM     17  O   UNL     1       2.627   6.210  19.731  0.00  0.00    +0.000 OA
ATOM     18  H   UNL     1       3.330   6.338  20.391  0.00  0.00    +0.000 HD
ENDBRANCH  16  17
ENDBRANCH  10  11
ENDBRANCH   3   9
BRANCH   5  19
ATOM     19  O   UNL     1       6.431   3.468  12.637  0.00  0.00    +0.000 OA
ATOM     20  C   UNL     1       5.205   3.211  11.964  0.00  0.00    +0.000 C 
ENDBRANCH   5  19
TORSDOF 5
ENDMDL
MODEL 9
REMARK VINA RESULT:      -6.4      4.159      4.822
REMARK  Name = 
REMARK  7 active torsions:
REMARK  status: ('A' for Active; 'I' for Inactive)
REMARK    1  A    between atoms: C_1  and  O_2
REMARK    2  A    between atoms: O_2  and  C_3
REMARK    3  A    between atoms: C_5  and  N_6
REMARK    4  A    between atoms: C_7  and  C_8
REMARK    5  A    between atoms: C_13  and  O_14
REMARK    6  A    between atoms: C_16  and  O_17
REMARK    7  A    between atoms: O_17  and  C_18
REMARK                            x       y       z     vdW  Elec       q    Type
REMARK                         _______ _______ _______ _____ _____    ______ ____
ROOT
ATOM      1  C   UNL     1       5.483   4.544  18.039  0.00  0.00    +0.000 A 
ATOM      2  C   UNL     1       4.598   5.599  18.281  0.00  0.00    +0.000 A 
ATOM      3  C   UNL     1       4.375   6.597  17.328  0.00  0.00    +0.000 A 
ATOM      4  C   UNL     1       5.047   6.506  16.106  0.00  0.00    +0.000 A 
ATOM      5  C   UNL     1       5.943   5.464  15.849  0.00  0.00    +0.000 A 
ATOM      6  C   UNL     1       6.166   4.487  16.823  0.00  0.00    +0.000 A 
ENDROOT
BRANCH   1   8
ATOM      7  C   UNL     1       4.368   3.082  19.555  0.00  0.00    +0.000 C 
ATOM      8  O   UNL     1       5.580   3.633  19.057  0.00  0.00    +0.000 OA
ENDBRANCH   1   8
BRANCH   3   9
ATOM      9  N   UNL     1       3.420   7.586  17.627  0.00  0.00    +0.000 NA
ATOM     10  C   UNL     1       2.698   7.489  18.700  0.00  0.00    +0.000 C 
BRANCH  10  11
ATOM     11  C   UNL     1       1.690   8.520  19.046  0.00  0.00    +0.000 A 
ATOM     12  C   UNL     1       1.170   9.346  18.044  0.00  0.00    +0.000 A 
ATOM     13  C   UNL     1       0.218  10.316  18.361  0.00  0.00    +0.000 A 
ATOM     14  C   UNL     1      -0.214  10.465  19.679  0.00  0.00    +0.000 A 
ATOM     15  C   UNL     1       0.304   9.645  20.683  0.00  0.00    +0.000 A 
ATOM     16  C   UNL     1       1.255   8.673  20.366  0.00  0.00    +0.000 A 
BRANCH  16  17
ATOM     17  O   UNL     1       1.756   7.871  21.354  0.00  0.00    +0.000 OA
ATOM     18  H   UNL     1       2.426   7.278  20.972  0.00  0.00    +0.000 HD
ENDBRANCH  16  17
ENDBRANCH  10  11
ENDBRANCH   3   9
BRANCH   5  19
ATOM     19  O   UNL     1       6.525   5.510  14.610  0.00  0.00    +0.000 OA
ATOM     20  C   UNL     1       6.647   4.283  13.904  0.00  0.00    +0.000 C 
ENDBRANCH   5  19
TORSDOF 5
ENDMDL
