MODEL 1
REMARK VINA RESULT:      -7.2      0.000      0.000
REMARK  Name = 
REMARK  7 active torsions:
REMARK  status: ('A' for Active; 'I' for Inactive)
REMARK    1  A    between atoms: C_1  and  C_2
REMARK    2  A    between atoms: C_2  and  C_3
REMARK    3  A    between atoms: C_3  and  N_4
REMARK    4  A    between atoms: C_10  and  C_11
REMARK    5  A    between atoms: C_11  and  N_12
REMARK    6  A    between atoms: C_13  and  C_15
REMARK    7  A    between atoms: C_15  and  C_16
REMARK                            x       y       z     vdW  Elec       q    Type
REMARK                         _______ _______ _______ _____ _____    ______ ____
ROOT
ATOM      1  N   UNL     1       5.778   3.272  11.860  0.00  0.00    +0.000 NA
ATOM      2  C   UNL     1       7.235   3.414  11.750  0.00  0.00    +0.000 C 
ATOM      3  C   UNL     1       7.727   4.863  11.716  0.00  0.00    +0.000 C 
ATOM      4  C   UNL     1       7.669   5.661  13.024  0.00  0.00    +0.000 C 
ATOM      5  N   UNL     1       7.087   5.006  14.175  0.00  0.00    +0.000 N 
ATOM      6  N   UNL     1       7.601   5.240  15.404  0.00  0.00    +0.000 NA
ATOM      7  C   UNL     1       6.820   4.520  16.227  0.00  0.00    +0.000 A 
ATOM      8  C   UNL     1       5.803   3.850  15.511  0.00  0.00    +0.000 A 
ATOM      9  C   UNL     1       5.980   4.206  14.192  0.00  0.00    +0.000 A 
ATOM     10  C   UNL     1       5.141   3.945  12.994  0.00  0.00    +0.000 C 
ENDROOT
BRANCH   1  11
ATOM     11  C   UNL     1       5.364   1.872  11.649  0.00  0.00    +0.000 C 
BRANCH  11  13
ATOM     12  C   UNL     1       6.102  -0.536  11.319  0.00  0.00    +0.000 C 
ATOM     13  C   UNL     1       6.482   0.930  11.163  0.00  0.00    +0.000 C 
ENDBRANCH  11  13
ENDBRANCH   1  11
BRANCH   7  14
ATOM     14  C   UNL     1       7.055   4.485  17.707  0.00  0.00    +0.000 C 
BRANCH  14  15
ATOM     15  N   UNL     1       5.943   5.093  18.421  0.00  0.00    +0.000 N 
ATOM     16  C   UNL     1       5.081   4.339  19.183  0.00  0.00    +0.000 C 
ATOM     17  O   UNL     1       5.239   3.145  19.402  0.00  0.00    +0.000 OA
ATOM     18  H   UNL     1       5.672   6.019  18.120  0.00  0.00    +0.000 HD
BRANCH  16  19
ATOM     19  C   UNL     1       3.928   5.111  19.806  0.00  0.00    +0.000 C 
BRANCH  19  20
ATOM     20  C   UNL     1       2.665   5.133  18.926  0.00  0.00    +0.000 C 
ATOM     21  C   UNL     1       1.345   5.304  19.703  0.00  0.00    +0.000 C 
ATOM     22  C   UNL     1       1.042   3.977  20.388  0.00  0.00    +0.000 C 
ATOM     23  S   UNL     1       1.505   2.738  19.192  0.00  0.00    +0.000 S 
ATOM     24  O   UNL     1       0.323   2.348  18.447  0.00  0.00    +0.000 OA
ATOM     25  O   UNL     1       2.368   1.768  19.838  0.00  0.00    +0.000 OA
ATOM     26  C   UNL     1       2.506   3.806  18.163  0.00  0.00    +0.000 C 
ENDBRANCH  19  20
ENDBRANCH  16  19
ENDBRANCH  14  15
ENDBRANCH   7  14
TORSDOF 6
ENDMDL
MODEL 2
REMARK VINA RESULT:      -7.1      4.938      9.111
REMARK  Name = 
REMARK  7 active torsions:
REMARK  status: ('A' for Active; 'I' for Inactive)
REMARK    1  A    between atoms: C_1  and  C_2
REMARK    2  A    between atoms: C_2  and  C_3
REMARK    3  A    between atoms: C_3  and  N_4
REMARK    4  A    between atoms: C_10  and  C_11
REMARK    5  A    between atoms: C_11  and  N_12
REMARK    6  A    between atoms: C_13  and  C_15
REMARK    7  A    between atoms: C_15  and  C_16
REMARK                            x       y       z     vdW  Elec       q    Type
REMARK                         _______ _______ _______ _____ _____    ______ ____
ROOT
ATOM      1  N   UNL     1      -0.725  11.789  20.370  0.00  0.00    +0.000 NA
ATOM      2  C   UNL     1       0.155  11.606  21.531  0.00  0.00    +0.000 C 
ATOM      3  C   UNL     1      -0.142  10.352  22.357  0.00  0.00    +0.000 C 
ATOM      4  C   UNL     1       0.246   8.998  21.752  0.00  0.00    +0.000 C 
ATOM      5  N   UNL     1       0.798   9.004  20.415  0.00  0.00    +0.000 N 
ATOM      6  N   UNL     1       1.774   8.123  20.094  0.00  0.00    +0.000 NA
ATOM      7  C   UNL     1       2.024   8.370  18.798  0.00  0.00    +0.000 A 
ATOM      8  C   UNL     1       1.188   9.396  18.302  0.00  0.00    +0.000 A 
ATOM      9  C   UNL     1       0.385   9.765  19.359  0.00  0.00    +0.000 A 
ATOM     10  C   UNL     1      -0.785  10.678  19.417  0.00  0.00    +0.000 C 
ENDROOT
BRANCH   1  11
ATOM     11  C   UNL     1      -0.539  13.122  19.768  0.00  0.00    +0.000 C 
BRANCH  11  13
ATOM     12  C   UNL     1       1.643  13.269  18.476  0.00  0.00    +0.000 C 
ATOM     13  C   UNL     1       0.131  13.122  18.381  0.00  0.00    +0.000 C 
ENDBRANCH  11  13
ENDBRANCH   1  11
BRANCH   7  14
ATOM     14  C   UNL     1       3.069   7.611  18.037  0.00  0.00    +0.000 C 
BRANCH  14  15
ATOM     15  N   UNL     1       2.713   6.204  17.934  0.00  0.00    +0.000 N 
ATOM     16  C   UNL     1       3.619   5.265  17.498  0.00  0.00    +0.000 C 
ATOM     17  O   UNL     1       4.796   5.514  17.270  0.00  0.00    +0.000 OA
ATOM     18  H   UNL     1       1.725   5.993  17.929  0.00  0.00    +0.000 HD
BRANCH  16  19
ATOM     19  C   UNL     1       3.073   3.851  17.376  0.00  0.00    +0.000 C 
BRANCH  19  20
ATOM     20  C   UNL     1       3.641   2.885  18.431  0.00  0.00    +0.000 C 
ATOM     21  C   UNL     1       2.723   1.695  18.771  0.00  0.00    +0.000 C 
ATOM     22  C   UNL     1       1.585   2.225  19.632  0.00  0.00    +0.000 C 
ATOM     23  S   UNL     1       2.357   3.411  20.718  0.00  0.00    +0.000 S 
ATOM     24  O   UNL     1       2.677   2.753  21.970  0.00  0.00    +0.000 OA
ATOM     25  O   UNL     1       1.605   4.649  20.665  0.00  0.00    +0.000 OA
ATOM     26  C   UNL     1       3.863   3.608  19.772  0.00  0.00    +0.000 C 
ENDBRANCH  19  20
ENDBRANCH  16  19
ENDBRANCH  14  15
ENDBRANCH   7  14
TORSDOF 6
ENDMDL
MODEL 3
REMARK VINA RESULT:      -7.0      5.618      7.866
REMARK  Name = 
REMARK  7 active torsions:
REMARK  status: ('A' for Active; 'I' for Inactive)
REMARK    1  A    between atoms: C_1  and  C_2
REMARK    2  A    between atoms: C_2  and  C_3
REMARK    3  A    between atoms: C_3  and  N_4
REMARK    4  A    between atoms: C_10  and  C_11
REMARK    5  A    between atoms: C_11  and  N_12
REMARK    6  A    between atoms: C_13  and  C_15
REMARK    7  A    between atoms: C_15  and  C_16
REMARK                            x       y       z     vdW  Elec       q    Type
REMARK                         _______ _______ _______ _____ _____    ______ ____
ROOT
ATOM      1  N   UNL     1       3.998   3.260  18.793  0.00  0.00    +0.000 NA
ATOM      2  C   UNL     1       5.278   3.946  19.005  0.00  0.00    +0.000 C 
ATOM      3  C   UNL     1       5.997   4.356  17.718  0.00  0.00    +0.000 C 
ATOM      4  C   UNL     1       5.411   5.530  16.924  0.00  0.00    +0.000 C 
ATOM      5  N   UNL     1       4.182   6.114  17.416  0.00  0.00    +0.000 N 
ATOM      6  N   UNL     1       3.990   7.449  17.307  0.00  0.00    +0.000 NA
ATOM      7  C   UNL     1       2.763   7.645  17.814  0.00  0.00    +0.000 A 
ATOM      8  C   UNL     1       2.177   6.426  18.223  0.00  0.00    +0.000 A 
ATOM      9  C   UNL     1       3.103   5.450  17.925  0.00  0.00    +0.000 A 
ATOM     10  C   UNL     1       3.006   3.969  17.982  0.00  0.00    +0.000 C 
ENDROOT
BRANCH   1  11
ATOM     11  C   UNL     1       3.486   2.690  20.053  0.00  0.00    +0.000 C 
BRANCH  11  13
ATOM     12  C   UNL     1       1.438   2.801  21.551  0.00  0.00    +0.000 C 
ATOM     13  C   UNL     1       1.952   2.569  20.137  0.00  0.00    +0.000 C 
ENDBRANCH  11  13
ENDBRANCH   1  11
BRANCH   7  14
ATOM     14  C   UNL     1       2.153   9.012  17.899  0.00  0.00    +0.000 C 
BRANCH  14  15
ATOM     15  N   UNL     1       1.288   9.120  19.065  0.00  0.00    +0.000 N 
ATOM     16  C   UNL     1       0.130   9.862  19.032  0.00  0.00    +0.000 C 
ATOM     17  O   UNL     1      -0.308  10.389  18.018  0.00  0.00    +0.000 OA
ATOM     18  H   UNL     1       1.701   8.867  19.952  0.00  0.00    +0.000 HD
BRANCH  16  19
ATOM     19  C   UNL     1      -0.625   9.937  20.351  0.00  0.00    +0.000 C 
BRANCH  19  20
ATOM     20  C   UNL     1       0.232  10.473  21.513  0.00  0.00    +0.000 C 
ATOM     21  C   UNL     1      -0.356  10.217  22.913  0.00  0.00    +0.000 C 
ATOM     22  C   UNL     1      -1.517  11.184  23.107  0.00  0.00    +0.000 C 
ATOM     23  S   UNL     1      -0.958  12.709  22.371  0.00  0.00    +0.000 S 
ATOM     24  O   UNL     1      -0.398  13.550  23.412  0.00  0.00    +0.000 OA
ATOM     25  O   UNL     1      -1.978  13.186  21.457  0.00  0.00    +0.000 OA
ATOM     26  C   UNL     1       0.383  12.002  21.422  0.00  0.00    +0.000 C 
ENDBRANCH  19  20
ENDBRANCH  16  19
ENDBRANCH  14  15
ENDBRANCH   7  14
TORSDOF 6
ENDMDL
MODEL 4
REMARK VINA RESULT:      -6.7      5.133      9.256
REMARK  Name = 
REMARK  7 active torsions:
REMARK  status: ('A' for Active; 'I' for Inactive)
REMARK    1  A    between atoms: C_1  and  C_2
REMARK    2  A    between atoms: C_2  and  C_3
REMARK    3  A    between atoms: C_3  and  N_4
REMARK    4  A    between atoms: C_10  and  C_11
REMARK    5  A    between atoms: C_11  and  N_12
REMARK    6  A    between atoms: C_13  and  C_15
REMARK    7  A    between atoms: C_15  and  C_16
REMARK                            x       y       z     vdW  Elec       q    Type
REMARK                         _______ _______ _______ _____ _____    ______ ____
ROOT
ATOM      1  N   UNL     1      -1.076  12.029  20.294  0.00  0.00    +0.000 NA
ATOM      2  C   UNL     1      -0.193  11.857  21.454  0.00  0.00    +0.000 C 
ATOM      3  C   UNL     1      -0.452  10.582  22.261  0.00  0.00    +0.000 C 
ATOM      4  C   UNL     1      -0.021   9.250  21.637  0.00  0.00    +0.000 C 
ATOM      5  N   UNL     1       0.533   9.293  20.301  0.00  0.00    +0.000 N 
ATOM      6  N   UNL     1       1.536   8.448  19.970  0.00  0.00    +0.000 NA
ATOM      7  C   UNL     1       1.780   8.721  18.678  0.00  0.00    +0.000 A 
ATOM      8  C   UNL     1       0.914   9.727  18.195  0.00  0.00    +0.000 A 
ATOM      9  C   UNL     1       0.098  10.056  19.255  0.00  0.00    +0.000 A 
ATOM     10  C   UNL     1      -1.100  10.931  19.325  0.00  0.00    +0.000 C 
ENDROOT
BRANCH   1  11
ATOM     11  C   UNL     1      -0.931  13.376  19.712  0.00  0.00    +0.000 C 
BRANCH  11  13
ATOM     12  C   UNL     1       1.263  13.699  18.474  0.00  0.00    +0.000 C 
ATOM     13  C   UNL     1      -0.227  13.421  18.342  0.00  0.00    +0.000 C 
ENDBRANCH  11  13
ENDBRANCH   1  11
BRANCH   7  14
ATOM     14  C   UNL     1       2.850   8.007  17.908  0.00  0.00    +0.000 C 
BRANCH  14  15
ATOM     15  N   UNL     1       3.437   6.942  18.707  0.00  0.00    +0.000 N 
ATOM     16  C   UNL     1       4.025   5.845  18.120  0.00  0.00    +0.000 C 
ATOM     17  O   UNL     1       4.191   5.731  16.912  0.00  0.00    +0.000 OA
ATOM     18  H   UNL     1       3.157   6.906  19.677  0.00  0.00    +0.000 HD
BRANCH  16  19
ATOM     19  C   UNL     1       4.526   4.786  19.090  0.00  0.00    +0.000 C 
BRANCH  19  20
ATOM     20  C   UNL     1       3.404   4.154  19.934  0.00  0.00    +0.000 C 
ATOM     21  C   UNL     1       3.577   2.647  20.204  0.00  0.00    +0.000 C 
ATOM     22  C   UNL     1       3.245   1.909  18.914  0.00  0.00    +0.000 C 
ATOM     23  S   UNL     1       1.849   2.789  18.238  0.00  0.00    +0.000 S 
ATOM     24  O   UNL     1       0.632   2.117  18.653  0.00  0.00    +0.000 OA
ATOM     25  O   UNL     1       2.125   3.103  16.850  0.00  0.00    +0.000 OA
ATOM     26  C   UNL     1       2.047   4.273  19.217  0.00  0.00    +0.000 C 
ENDBRANCH  19  20
ENDBRANCH  16  19
ENDBRANCH  14  15
ENDBRANCH   7  14
TORSDOF 6
ENDMDL
MODEL 5
REMARK VINA RESULT:      -6.7      5.170      9.286
REMARK  Name = 
REMARK  7 active torsions:
REMARK  status: ('A' for Active; 'I' for Inactive)
REMARK    1  A    between atoms: C_1  and  C_2
REMARK    2  A    between atoms: C_2  and  C_3
REMARK    3  A    between atoms: C_3  and  N_4
REMARK    4  A    between atoms: C_10  and  C_11
REMARK    5  A    between atoms: C_11  and  N_12
REMARK    6  A    between atoms: C_13  and  C_15
REMARK    7  A    between atoms: C_15  and  C_16
REMARK                            x       y       z     vdW  Elec       q    Type
REMARK                         _______ _______ _______ _____ _____    ______ ____
ROOT
ATOM      1  N   UNL     1       1.277  11.812  19.057  0.00  0.00    +0.000 NA
ATOM      2  C   UNL     1       1.421  11.881  20.516  0.00  0.00    +0.000 C 
ATOM      3  C   UNL     1       0.192  11.407  21.296  0.00  0.00    +0.000 C 
ATOM      4  C   UNL     1      -0.095   9.901  21.317  0.00  0.00    +0.000 C 
ATOM      5  N   UNL     1       0.779   9.049  20.539  0.00  0.00    +0.000 N 
ATOM      6  N   UNL     1       1.102   7.823  21.008  0.00  0.00    +0.000 NA
ATOM      7  C   UNL     1       1.877   7.298  20.045  0.00  0.00    +0.000 A 
ATOM      8  C   UNL     1       2.023   8.193  18.962  0.00  0.00    +0.000 A 
ATOM      9  C   UNL     1       1.277   9.303  19.293  0.00  0.00    +0.000 A 
ATOM     10  C   UNL     1       0.920  10.506  18.499  0.00  0.00    +0.000 C 
ENDROOT
BRANCH   1  11
ATOM     11  C   UNL     1       2.393  12.499  18.381  0.00  0.00    +0.000 C 
BRANCH  11  13
ATOM     12  C   UNL     1       3.135  14.780  19.217  0.00  0.00    +0.000 C 
ATOM     13  C   UNL     1       2.234  14.026  18.250  0.00  0.00    +0.000 C 
ENDBRANCH  11  13
ENDBRANCH   1  11
BRANCH   7  14
ATOM     14  C   UNL     1       2.474   5.929  20.171  0.00  0.00    +0.000 C 
BRANCH  14  15
ATOM     15  N   UNL     1       2.824   5.396  18.863  0.00  0.00    +0.000 N 
ATOM     16  C   UNL     1       3.942   4.615  18.683  0.00  0.00    +0.000 C 
ATOM     17  O   UNL     1       4.653   4.227  19.601  0.00  0.00    +0.000 OA
ATOM     18  H   UNL     1       2.384   5.840  18.068  0.00  0.00    +0.000 HD
BRANCH  16  19
ATOM     19  C   UNL     1       4.212   4.198  17.245  0.00  0.00    +0.000 C 
BRANCH  19  20
ATOM     20  C   UNL     1       4.658   5.365  16.346  0.00  0.00    +0.000 C 
ATOM     21  C   UNL     1       5.654   4.975  15.237  0.00  0.00    +0.000 C 
ATOM     22  C   UNL     1       7.009   4.750  15.896  0.00  0.00    +0.000 C 
ATOM     23  S   UNL     1       7.127   6.032  17.130  0.00  0.00    +0.000 S 
ATOM     24  O   UNL     1       7.857   7.152  16.567  0.00  0.00    +0.000 OA
ATOM     25  O   UNL     1       7.494   5.427  18.395  0.00  0.00    +0.000 OA
ATOM     26  C   UNL     1       5.386   6.443  17.170  0.00  0.00    +0.000 C 
ENDBRANCH  19  20
ENDBRANCH  16  19
ENDBRANCH  14  15
ENDBRANCH   7  14
TORSDOF 6
ENDMDL
MODEL 6
REMARK VINA RESULT:      -6.7      5.749     10.022
REMARK  Name = 
REMARK  7 active torsions:
REMARK  status: ('A' for Active; 'I' for Inactive)
REMARK    1  A    between atoms: C_1  and  C_2
REMARK    2  A    between atoms: C_2  and  C_3
REMARK    3  A    between atoms: C_3  and  N_4
REMARK    4  A    between atoms: C_10  and  C_11
REMARK    5  A    between atoms: C_11  and  N_12
REMARK    6  A    between atoms: C_13  and  C_15
REMARK    7  A    between atoms: C_15  and  C_16
REMARK                            x       y       z     vdW  Elec       q    Type
REMARK                         _______ _______ _______ _____ _____    ______ ____
ROOT
ATOM      1  N   UNL     1      -1.432  12.687  20.941  0.00  0.00    +0.000 NA
ATOM      2  C   UNL     1      -0.483  12.386  22.020  0.00  0.00    +0.000 C 
ATOM      3  C   UNL     1      -0.724  11.045  22.718  0.00  0.00    +0.000 C 
ATOM      4  C   UNL     1      -0.367   9.771  21.944  0.00  0.00    +0.000 C 
ATOM      5  N   UNL     1       0.104   9.931  20.586  0.00  0.00    +0.000 N 
ATOM      6  N   UNL     1       1.062   9.102  20.112  0.00  0.00    +0.000 NA
ATOM      7  C   UNL     1       1.232   9.493  18.839  0.00  0.00    +0.000 A 
ATOM      8  C   UNL     1       0.364  10.558  18.510  0.00  0.00    +0.000 A 
ATOM      9  C   UNL     1      -0.376  10.799  19.647  0.00  0.00    +0.000 A 
ATOM     10  C   UNL     1      -1.544  11.688  19.876  0.00  0.00    +0.000 C 
ENDROOT
BRANCH   1  11
ATOM     11  C   UNL     1      -1.288  14.080  20.481  0.00  0.00    +0.000 C 
BRANCH  11  13
ATOM     12  C   UNL     1       0.725  14.462  18.980  0.00  0.00    +0.000 C 
ATOM     13  C   UNL     1       0.164  14.589  20.389  0.00  0.00    +0.000 C 
ENDBRANCH  11  13
ENDBRANCH   1  11
BRANCH   7  14
ATOM     14  C   UNL     1       2.233   8.835  17.938  0.00  0.00    +0.000 C 
BRANCH  14  15
ATOM     15  N   UNL     1       2.256   7.396  18.155  0.00  0.00    +0.000 N 
ATOM     16  C   UNL     1       3.363   6.641  17.845  0.00  0.00    +0.000 C 
ATOM     17  O   UNL     1       4.426   7.119  17.471  0.00  0.00    +0.000 OA
ATOM     18  H   UNL     1       1.357   6.949  18.276  0.00  0.00    +0.000 HD
BRANCH  16  19
ATOM     19  C   UNL     1       3.203   5.143  18.060  0.00  0.00    +0.000 C 
BRANCH  19  20
ATOM     20  C   UNL     1       3.835   4.646  19.372  0.00  0.00    +0.000 C 
ATOM     21  C   UNL     1       4.131   3.134  19.409  0.00  0.00    +0.000 C 
ATOM     22  C   UNL     1       2.801   2.412  19.584  0.00  0.00    +0.000 C 
ATOM     23  S   UNL     1       1.891   3.420  20.741  0.00  0.00    +0.000 S 
ATOM     24  O   UNL     1       2.084   2.885  22.075  0.00  0.00    +0.000 OA
ATOM     25  O   UNL     1       0.574   3.679  20.195  0.00  0.00    +0.000 OA
ATOM     26  C   UNL     1       2.891   4.893  20.563  0.00  0.00    +0.000 C 
ENDBRANCH  19  20
ENDBRANCH  16  19
ENDBRANCH  14  15
ENDBRANCH   7  14
TORSDOF 6
ENDMDL
MODEL 7
REMARK VINA RESULT:      -6.7      5.662     10.309
REMARK  Name = 
REMARK  7 active torsions:
REMARK  status: ('A' for Active; 'I' for Inactive)
REMARK    1  A    between atoms: C_1  and  C_2
REMARK    2  A    between atoms: C_2  and  C_3
REMARK    3  A    between atoms: C_3  and  N_4
REMARK    4  A    between atoms: C_10  and  C_11
REMARK    5  A    between atoms: C_11  and  N_12
REMARK    6  A    between atoms: C_13  and  C_15
REMARK    7  A    between atoms: C_15  and  C_16
REMARK                            x       y       z     vdW  Elec       q    Type
REMARK                         _______ _______ _______ _____ _____    ______ ____
ROOT
ATOM      1  N   UNL     1      -1.274  12.230  20.830  0.00  0.00    +0.000 NA
ATOM      2  C   UNL     1      -1.353  11.902  19.402  0.00  0.00    +0.000 C 
ATOM      3  C   UNL     1      -0.053  12.134  18.627  0.00  0.00    +0.000 C 
ATOM      4  C   UNL     1       1.098  11.151  18.869  0.00  0.00    +0.000 C 
ATOM      5  N   UNL     1       0.893  10.121  19.864  0.00  0.00    +0.000 N 
ATOM      6  N   UNL     1       1.417   8.890  19.665  0.00  0.00    +0.000 NA
ATOM      7  C   UNL     1       1.078   8.208  20.771  0.00  0.00    +0.000 A 
ATOM      8  C   UNL     1       0.356   9.022  21.673  0.00  0.00    +0.000 A 
ATOM      9  C   UNL     1       0.279  10.261  21.076  0.00  0.00    +0.000 A 
ATOM     10  C   UNL     1      -0.220  11.560  21.595  0.00  0.00    +0.000 C 
ENDROOT
BRANCH   1  11
ATOM     11  C   UNL     1      -2.611  12.210  21.454  0.00  0.00    +0.000 C 
BRANCH  11  13
ATOM     12  C   UNL     1      -2.679  13.852  23.390  0.00  0.00    +0.000 C 
ATOM     13  C   UNL     1      -2.618  12.387  22.984  0.00  0.00    +0.000 C 
ENDBRANCH  11  13
ENDBRANCH   1  11
BRANCH   7  14
ATOM     14  C   UNL     1       1.456   6.769  20.958  0.00  0.00    +0.000 C 
BRANCH  14  15
ATOM     15  N   UNL     1       2.740   6.487  20.335  0.00  0.00    +0.000 N 
ATOM     16  C   UNL     1       2.948   5.338  19.609  0.00  0.00    +0.000 C 
ATOM     17  O   UNL     1       2.064   4.533  19.347  0.00  0.00    +0.000 OA
ATOM     18  H   UNL     1       3.529   7.017  20.680  0.00  0.00    +0.000 HD
BRANCH  16  19
ATOM     19  C   UNL     1       4.364   5.154  19.085  0.00  0.00    +0.000 C 
BRANCH  19  20
ATOM     20  C   UNL     1       4.617   5.872  17.747  0.00  0.00    +0.000 C 
ATOM     21  C   UNL     1       4.452   4.983  16.500  0.00  0.00    +0.000 C 
ATOM     22  C   UNL     1       5.669   4.069  16.426  0.00  0.00    +0.000 C 
ATOM     23  S   UNL     1       7.038   5.103  16.911  0.00  0.00    +0.000 S 
ATOM     24  O   UNL     1       7.665   5.635  15.716  0.00  0.00    +0.000 OA
ATOM     25  O   UNL     1       7.795   4.420  17.942  0.00  0.00    +0.000 OA
ATOM     26  C   UNL     1       6.062   6.396  17.671  0.00  0.00    +0.000 C 
ENDBRANCH  19  20
ENDBRANCH  16  19
ENDBRANCH  14  15
ENDBRANCH   7  14
TORSDOF 6
ENDMDL
MODEL 8
REMARK VINA RESULT:      -6.6      4.985      8.901
REMARK  Name = 
REMARK  7 active torsions:
REMARK  status: ('A' for Active; 'I' for Inactive)
REMARK    1  A    between atoms: C_1  and  C_2
REMARK    2  A    between atoms: C_2  and  C_3
REMARK    3  A    between atoms: C_3  and  N_4
REMARK    4  A    between atoms: C_10  and  C_11
REMARK    5  A    between atoms: C_11  and  N_12
REMARK    6  A    between atoms: C_13  and  C_15
REMARK    7  A    between atoms: C_15  and  C_16
REMARK                            x       y       z     vdW  Elec       q    Type
REMARK                         _______ _______ _______ _____ _____    ______ ____
ROOT
ATOM      1  N   UNL     1      -0.155  11.907  20.013  0.00  0.00    +0.000 NA
ATOM      2  C   UNL     1       0.588  11.557  21.230  0.00  0.00    +0.000 C 
ATOM      3  C   UNL     1       0.079  10.301  21.942  0.00  0.00    +0.000 C 
ATOM      4  C   UNL     1       0.370   8.948  21.282  0.00  0.00    +0.000 C 
ATOM      5  N   UNL     1       1.040   8.966  20.000  0.00  0.00    +0.000 N 
ATOM      6  N   UNL     1       1.938   7.998  19.706  0.00  0.00    +0.000 NA
ATOM      7  C   UNL     1       2.332   8.288  18.455  0.00  0.00    +0.000 A 
ATOM      8  C   UNL     1       1.664   9.430  17.960  0.00  0.00    +0.000 A 
ATOM      9  C   UNL     1       0.813   9.828  18.966  0.00  0.00    +0.000 A 
ATOM     10  C   UNL     1      -0.250  10.867  18.987  0.00  0.00    +0.000 C 
ENDROOT
BRANCH   1  11
ATOM     11  C   UNL     1       0.232  13.242  19.520  0.00  0.00    +0.000 C 
BRANCH  11  13
ATOM     12  C   UNL     1       2.276  14.367  18.519  0.00  0.00    +0.000 C 
ATOM     13  C   UNL     1       1.718  13.599  19.709  0.00  0.00    +0.000 C 
ENDBRANCH  11  13
ENDBRANCH   1  11
BRANCH   7  14
ATOM     14  C   UNL     1       3.353   7.457  17.737  0.00  0.00    +0.000 C 
BRANCH  14  15
ATOM     15  N   UNL     1       2.989   6.048  17.771  0.00  0.00    +0.000 N 
ATOM     16  C   UNL     1       3.728   5.134  18.484  0.00  0.00    +0.000 C 
ATOM     17  O   UNL     1       4.663   5.439  19.213  0.00  0.00    +0.000 OA
ATOM     18  H   UNL     1       2.357   5.734  17.047  0.00  0.00    +0.000 HD
BRANCH  16  19
ATOM     19  C   UNL     1       3.263   3.691  18.359  0.00  0.00    +0.000 C 
BRANCH  19  20
ATOM     20  C   UNL     1       1.879   3.441  18.985  0.00  0.00    +0.000 C 
ATOM     21  C   UNL     1       1.439   4.502  20.012  0.00  0.00    +0.000 C 
ATOM     22  C   UNL     1       2.240   4.267  21.286  0.00  0.00    +0.000 C 
ATOM     23  S   UNL     1       2.316   2.492  21.448  0.00  0.00    +0.000 S 
ATOM     24  O   UNL     1       1.245   2.060  22.327  0.00  0.00    +0.000 OA
ATOM     25  O   UNL     1       3.696   2.103  21.661  0.00  0.00    +0.000 OA
ATOM     26  C   UNL     1       1.861   2.111  19.760  0.00  0.00    +0.000 C 
ENDBRANCH  19  20
ENDBRANCH  16  19
ENDBRANCH  14  15
ENDBRANCH   7  14
TORSDOF 6
ENDMDL
MODEL 9
REMARK VINA RESULT:      -6.6      5.045      9.770
REMARK  Name = 
REMARK  7 active torsions:
REMARK  status: ('A' for Active; 'I' for Inactive)
REMARK    1  A    between atoms: C_1  and  C_2
REMARK    2  A    between atoms: C_2  and  C_3
REMARK    3  A    between atoms: C_3  and  N_4
REMARK    4  A    between atoms: C_10  and  C_11
REMARK    5  A    between atoms: C_11  and  N_12
REMARK    6  A    between atoms: C_13  and  C_15
REMARK    7  A    between atoms: C_15  and  C_16
REMARK                            x       y       z     vdW  Elec       q    Type
REMARK                         _______ _______ _______ _____ _____    ______ ____
ROOT
ATOM      1  N   UNL     1      -0.430  11.482  20.914  0.00  0.00    +0.000 NA
ATOM      2  C   UNL     1      -0.858  11.113  19.560  0.00  0.00    +0.000 C 
ATOM      3  C   UNL     1       0.241  11.216  18.499  0.00  0.00    +0.000 C 
ATOM      4  C   UNL     1       1.347  10.156  18.522  0.00  0.00    +0.000 C 
ATOM      5  N   UNL     1       1.308   9.179  19.589  0.00  0.00    +0.000 N 
ATOM      6  N   UNL     1       1.686   7.905  19.338  0.00  0.00    +0.000 NA
ATOM      7  C   UNL     1       1.566   7.289  20.526  0.00  0.00    +0.000 A 
ATOM      8  C   UNL     1       1.129   8.186  21.526  0.00  0.00    +0.000 A 
ATOM      9  C   UNL     1       1.001   9.407  20.900  0.00  0.00    +0.000 A 
ATOM     10  C   UNL     1       0.724  10.758  21.452  0.00  0.00    +0.000 C 
ENDROOT
BRANCH   1  11
ATOM     11  C   UNL     1      -1.584  11.587  21.826  0.00  0.00    +0.000 C 
BRANCH  11  13
ATOM     12  C   UNL     1      -0.884  13.827  22.795  0.00  0.00    +0.000 C 
ATOM     13  C   UNL     1      -1.331  12.406  23.106  0.00  0.00    +0.000 C 
ENDBRANCH  11  13
ENDBRANCH   1  11
BRANCH   7  14
ATOM     14  C   UNL     1       1.878   5.832  20.694  0.00  0.00    +0.000 C 
BRANCH  14  15
ATOM     15  N   UNL     1       2.879   5.403  19.730  0.00  0.00    +0.000 N 
ATOM     16  C   UNL     1       3.132   4.070  19.503  0.00  0.00    +0.000 C 
ATOM     17  O   UNL     1       2.479   3.163  20.002  0.00  0.00    +0.000 OA
ATOM     18  H   UNL     1       3.555   6.101  19.448  0.00  0.00    +0.000 HD
BRANCH  16  19
ATOM     19  C   UNL     1       4.258   3.786  18.520  0.00  0.00    +0.000 C 
BRANCH  19  20
ATOM     20  C   UNL     1       4.428   4.883  17.455  0.00  0.00    +0.000 C 
ATOM     21  C   UNL     1       4.716   4.360  16.035  0.00  0.00    +0.000 C 
ATOM     22  C   UNL     1       6.161   3.880  16.008  0.00  0.00    +0.000 C 
ATOM     23  S   UNL     1       7.053   5.083  16.977  0.00  0.00    +0.000 S 
ATOM     24  O   UNL     1       7.617   6.075  16.081  0.00  0.00    +0.000 OA
ATOM     25  O   UNL     1       7.855   4.385  17.962  0.00  0.00    +0.000 OA
ATOM     26  C   UNL     1       5.625   5.792  17.791  0.00  0.00    +0.000 C 
ENDBRANCH  19  20
ENDBRANCH  16  19
ENDBRANCH  14  15
ENDBRANCH   7  14
TORSDOF 6
ENDMDL
