MODEL 1
REMARK VINA RESULT:      -7.1      0.000      0.000
REMARK  Name = 
REMARK  2 active torsions:
REMARK  status: ('A' for Active; 'I' for Inactive)
REMARK    1  A    between atoms: O_1  and  C_2
REMARK    2  A    between atoms: C_2  and  C_3
REMARK                            x       y       z     vdW  Elec       q    Type
REMARK                         _______ _______ _______ _____ _____    ______ ____
ROOT
ATOM      1  C   UNL     1       5.842   5.112  16.632  0.00  0.00    +0.000 C 
ATOM      2  C   UNL     1       7.191   5.222  17.415  0.00  0.00    +0.000 C 
ATOM      3  S   UNL     1       6.730   5.475  19.188  0.00  0.00    +0.000 S 
ATOM      4  C   UNL     1       5.112   4.982  18.845  0.00  0.00    +0.000 C 
ATOM      5  N   UNL     1       4.064   5.279  19.547  0.00  0.00    +0.000 NA
ATOM      6  C   UNL     1       2.955   5.049  18.549  0.00  0.00    +0.000 C 
ATOM      7  C   UNL     1       1.705   4.561  19.268  0.00  0.00    +0.000 C 
ATOM      8  C   UNL     1       1.723   3.069  19.549  0.00  0.00    +0.000 C 
ATOM      9  C   UNL     1       1.969   2.303  18.257  0.00  0.00    +0.000 C 
ATOM     10  C   UNL     1       3.343   2.643  17.689  0.00  0.00    +0.000 C 
ATOM     11  C   UNL     1       3.548   4.149  17.430  0.00  0.00    +0.000 C 
ATOM     12  N   UNL     1       4.968   4.442  17.603  0.00  0.00    +0.000 N 
ENDROOT
BRANCH   1  13
ATOM     13  C   UNL     1       6.114   4.386  15.271  0.00  0.00    +0.000 C 
ATOM     14  F   UNL     1       6.033   3.037  15.398  0.00  0.00    +0.000 F 
ATOM     15  F   UNL     1       5.224   4.730  14.308  0.00  0.00    +0.000 F 
ATOM     16  F   UNL     1       7.349   4.653  14.784  0.00  0.00    +0.000 F 
ENDBRANCH   1  13
BRANCH   1  17
ATOM     17  O   UNL     1       5.318   6.432  16.403  0.00  0.00    +0.000 OA
ATOM     18  H   UNL     1       5.949   7.061  16.794  0.00  0.00    +0.000 HD
ENDBRANCH   1  17
TORSDOF 2
ENDMDL
MODEL 2
REMARK VINA RESULT:      -6.9      2.522      3.194
REMARK  Name = 
REMARK  2 active torsions:
REMARK  status: ('A' for Active; 'I' for Inactive)
REMARK    1  A    between atoms: O_1  and  C_2
REMARK    2  A    between atoms: C_2  and  C_3
REMARK                            x       y       z     vdW  Elec       q    Type
REMARK                         _______ _______ _______ _____ _____    ______ ____
ROOT
ATOM      1  C   UNL     1       6.773   5.357  17.372  0.00  0.00    +0.000 C 
ATOM      2  C   UNL     1       6.888   5.140  15.827  0.00  0.00    +0.000 C 
ATOM      3  S   UNL     1       5.687   3.795  15.413  0.00  0.00    +0.000 S 
ATOM      4  C   UNL     1       4.931   3.986  16.953  0.00  0.00    +0.000 C 
ATOM      5  N   UNL     1       4.219   3.093  17.564  0.00  0.00    +0.000 NA
ATOM      6  C   UNL     1       4.270   3.587  18.990  0.00  0.00    +0.000 C 
ATOM      7  C   UNL     1       2.971   3.241  19.703  0.00  0.00    +0.000 C 
ATOM      8  C   UNL     1       1.857   4.237  19.429  0.00  0.00    +0.000 C 
ATOM      9  C   UNL     1       2.330   5.645  19.761  0.00  0.00    +0.000 C 
ATOM     10  C   UNL     1       3.488   6.046  18.855  0.00  0.00    +0.000 C 
ATOM     11  C   UNL     1       4.689   5.081  18.924  0.00  0.00    +0.000 C 
ATOM     12  N   UNL     1       5.349   5.097  17.622  0.00  0.00    +0.000 N 
ENDROOT
BRANCH   1  13
ATOM     13  C   UNL     1       7.327   6.781  17.717  0.00  0.00    +0.000 C 
ATOM     14  F   UNL     1       6.324   7.678  17.898  0.00  0.00    +0.000 F 
ATOM     15  F   UNL     1       8.058   6.794  18.860  0.00  0.00    +0.000 F 
ATOM     16  F   UNL     1       8.115   7.277  16.734  0.00  0.00    +0.000 F 
ENDBRANCH   1  13
BRANCH   1  17
ATOM     17  O   UNL     1       7.534   4.342  18.050  0.00  0.00    +0.000 OA
ATOM     18  H   UNL     1       6.899   3.685  18.385  0.00  0.00    +0.000 HD
ENDBRANCH   1  17
TORSDOF 2
ENDMDL
MODEL 3
REMARK VINA RESULT:      -6.9      3.574      5.320
REMARK  Name = 
REMARK  2 active torsions:
REMARK  status: ('A' for Active; 'I' for Inactive)
REMARK    1  A    between atoms: O_1  and  C_2
REMARK    2  A    between atoms: C_2  and  C_3
REMARK                            x       y       z     vdW  Elec       q    Type
REMARK                         _______ _______ _______ _____ _____    ______ ____
ROOT
ATOM      1  C   UNL     1       2.313   4.422  19.003  0.00  0.00    +0.000 C 
ATOM      2  C   UNL     1       1.844   2.934  19.100  0.00  0.00    +0.000 C 
ATOM      3  S   UNL     1       2.850   2.001  17.859  0.00  0.00    +0.000 S 
ATOM      4  C   UNL     1       3.942   3.333  17.734  0.00  0.00    +0.000 C 
ATOM      5  N   UNL     1       4.727   3.578  16.733  0.00  0.00    +0.000 NA
ATOM      6  C   UNL     1       5.023   5.046  16.932  0.00  0.00    +0.000 C 
ATOM      7  C   UNL     1       6.430   5.360  16.444  0.00  0.00    +0.000 C 
ATOM      8  C   UNL     1       7.502   5.035  17.469  0.00  0.00    +0.000 C 
ATOM      9  C   UNL     1       7.188   5.733  18.785  0.00  0.00    +0.000 C 
ATOM     10  C   UNL     1       5.878   5.213  19.365  0.00  0.00    +0.000 C 
ATOM     11  C   UNL     1       4.676   5.368  18.412  0.00  0.00    +0.000 C 
ATOM     12  N   UNL     1       3.742   4.282  18.691  0.00  0.00    +0.000 N 
ENDROOT
BRANCH   1  13
ATOM     13  C   UNL     1       1.924   5.154  20.331  0.00  0.00    +0.000 C 
ATOM     14  F   UNL     1       0.623   4.942  20.657  0.00  0.00    +0.000 F 
ATOM     15  F   UNL     1       2.655   4.732  21.393  0.00  0.00    +0.000 F 
ATOM     16  F   UNL     1       2.086   6.496  20.245  0.00  0.00    +0.000 F 
ENDBRANCH   1  13
BRANCH   1  17
ATOM     17  O   UNL     1       1.674   5.048  17.876  0.00  0.00    +0.000 OA
ATOM     18  H   UNL     1       1.877   4.505  17.095  0.00  0.00    +0.000 HD
ENDBRANCH   1  17
TORSDOF 2
ENDMDL
MODEL 4
REMARK VINA RESULT:      -6.7      2.869      4.747
REMARK  Name = 
REMARK  2 active torsions:
REMARK  status: ('A' for Active; 'I' for Inactive)
REMARK    1  A    between atoms: O_1  and  C_2
REMARK    2  A    between atoms: C_2  and  C_3
REMARK                            x       y       z     vdW  Elec       q    Type
REMARK                         _______ _______ _______ _____ _____    ______ ____
ROOT
ATOM      1  C   UNL     1       2.959   3.340  19.154  0.00  0.00    +0.000 C 
ATOM      2  C   UNL     1       1.743   4.266  19.483  0.00  0.00    +0.000 C 
ATOM      3  S   UNL     1       2.452   5.947  19.787  0.00  0.00    +0.000 S 
ATOM      4  C   UNL     1       3.945   5.454  19.073  0.00  0.00    +0.000 C 
ATOM      5  N   UNL     1       5.100   6.002  19.279  0.00  0.00    +0.000 NA
ATOM      6  C   UNL     1       6.039   4.901  18.848  0.00  0.00    +0.000 C 
ATOM      7  C   UNL     1       7.304   5.503  18.253  0.00  0.00    +0.000 C 
ATOM      8  C   UNL     1       7.147   5.900  16.795  0.00  0.00    +0.000 C 
ATOM      9  C   UNL     1       6.650   4.710  15.987  0.00  0.00    +0.000 C 
ATOM     10  C   UNL     1       5.266   4.283  16.461  0.00  0.00    +0.000 C 
ATOM     11  C   UNL     1       5.207   3.934  17.962  0.00  0.00    +0.000 C 
ATOM     12  N   UNL     1       3.865   4.250  18.442  0.00  0.00    +0.000 N 
ENDROOT
BRANCH   1  13
ATOM     13  C   UNL     1       2.433   2.082  18.384  0.00  0.00    +0.000 C 
ATOM     14  F   UNL     1       2.309   2.325  17.054  0.00  0.00    +0.000 F 
ATOM     15  F   UNL     1       3.262   1.014  18.499  0.00  0.00    +0.000 F 
ATOM     16  F   UNL     1       1.213   1.686  18.819  0.00  0.00    +0.000 F 
ENDBRANCH   1  13
BRANCH   1  17
ATOM     17  O   UNL     1       3.601   2.949  20.381  0.00  0.00    +0.000 OA
ATOM     18  H   UNL     1       3.247   2.076  20.623  0.00  0.00    +0.000 HD
ENDBRANCH   1  17
TORSDOF 2
ENDMDL
MODEL 5
REMARK VINA RESULT:      -6.6      2.736      3.342
REMARK  Name = 
REMARK  2 active torsions:
REMARK  status: ('A' for Active; 'I' for Inactive)
REMARK    1  A    between atoms: O_1  and  C_2
REMARK    2  A    between atoms: C_2  and  C_3
REMARK                            x       y       z     vdW  Elec       q    Type
REMARK                         _______ _______ _______ _____ _____    ______ ____
ROOT
ATOM      1  C   UNL     1       6.889   5.147  17.842  0.00  0.00    +0.000 C 
ATOM      2  C   UNL     1       7.041   6.031  16.561  0.00  0.00    +0.000 C 
ATOM      3  S   UNL     1       5.618   5.587  15.466  0.00  0.00    +0.000 S 
ATOM      4  C   UNL     1       4.833   4.806  16.790  0.00  0.00    +0.000 C 
ATOM      5  N   UNL     1       3.923   3.889  16.698  0.00  0.00    +0.000 NA
ATOM      6  C   UNL     1       3.995   3.251  18.065  0.00  0.00    +0.000 C 
ATOM      7  C   UNL     1       2.616   2.758  18.478  0.00  0.00    +0.000 C 
ATOM      8  C   UNL     1       1.743   3.852  19.068  0.00  0.00    +0.000 C 
ATOM      9  C   UNL     1       2.472   4.532  20.218  0.00  0.00    +0.000 C 
ATOM     10  C   UNL     1       3.735   5.222  19.716  0.00  0.00    +0.000 C 
ATOM     11  C   UNL     1       4.710   4.273  18.991  0.00  0.00    +0.000 C 
ATOM     12  N   UNL     1       5.430   5.054  17.989  0.00  0.00    +0.000 N 
ENDROOT
BRANCH   1  13
ATOM     13  C   UNL     1       7.699   5.813  19.005  0.00  0.00    +0.000 C 
ATOM     14  F   UNL     1       8.785   5.072  19.347  0.00  0.00    +0.000 F 
ATOM     15  F   UNL     1       8.168   7.043  18.677  0.00  0.00    +0.000 F 
ATOM     16  F   UNL     1       6.960   5.956  20.130  0.00  0.00    +0.000 F 
ENDBRANCH   1  13
BRANCH   1  17
ATOM     17  O   UNL     1       7.391   3.827  17.569  0.00  0.00    +0.000 OA
ATOM     18  H   UNL     1       8.127   3.925  16.941  0.00  0.00    +0.000 HD
ENDBRANCH   1  17
TORSDOF 2
ENDMDL
MODEL 6
REMARK VINA RESULT:      -6.6      2.812      4.679
REMARK  Name = 
REMARK  2 active torsions:
REMARK  status: ('A' for Active; 'I' for Inactive)
REMARK    1  A    between atoms: O_1  and  C_2
REMARK    2  A    between atoms: C_2  and  C_3
REMARK                            x       y       z     vdW  Elec       q    Type
REMARK                         _______ _______ _______ _____ _____    ______ ____
ROOT
ATOM      1  C   UNL     1       3.834   3.093  18.872  0.00  0.00    +0.000 C 
ATOM      2  C   UNL     1       2.856   4.051  19.629  0.00  0.00    +0.000 C 
ATOM      3  S   UNL     1       3.606   5.738  19.512  0.00  0.00    +0.000 S 
ATOM      4  C   UNL     1       4.667   5.187  18.266  0.00  0.00    +0.000 C 
ATOM      5  N   UNL     1       5.796   5.732  17.937  0.00  0.00    +0.000 NA
ATOM      6  C   UNL     1       6.481   4.596  17.214  0.00  0.00    +0.000 C 
ATOM      7  C   UNL     1       7.371   5.149  16.110  0.00  0.00    +0.000 C 
ATOM      8  C   UNL     1       6.612   5.465  14.833  0.00  0.00    +0.000 C 
ATOM      9  C   UNL     1       5.836   4.237  14.377  0.00  0.00    +0.000 C 
ATOM     10  C   UNL     1       4.784   3.855  15.411  0.00  0.00    +0.000 C 
ATOM     11  C   UNL     1       5.365   3.591  16.815  0.00  0.00    +0.000 C 
ATOM     12  N   UNL     1       4.345   3.950  17.795  0.00  0.00    +0.000 N 
ENDROOT
BRANCH   1  13
ATOM     13  C   UNL     1       3.049   1.800  18.466  0.00  0.00    +0.000 C 
ATOM     14  F   UNL     1       2.468   1.929  17.246  0.00  0.00    +0.000 F 
ATOM     15  F   UNL     1       3.848   0.706  18.391  0.00  0.00    +0.000 F 
ATOM     16  F   UNL     1       2.055   1.507  19.338  0.00  0.00    +0.000 F 
ENDBRANCH   1  13
BRANCH   1  17
ATOM     17  O   UNL     1       4.936   2.763  19.736  0.00  0.00    +0.000 OA
ATOM     18  H   UNL     1       4.563   2.558  20.610  0.00  0.00    +0.000 HD
ENDBRANCH   1  17
TORSDOF 2
ENDMDL
MODEL 7
REMARK VINA RESULT:      -6.5      3.421      5.019
REMARK  Name = 
REMARK  2 active torsions:
REMARK  status: ('A' for Active; 'I' for Inactive)
REMARK    1  A    between atoms: O_1  and  C_2
REMARK    2  A    between atoms: C_2  and  C_3
REMARK                            x       y       z     vdW  Elec       q    Type
REMARK                         _______ _______ _______ _____ _____    ______ ____
ROOT
ATOM      1  C   UNL     1       2.461   2.794  18.779  0.00  0.00    +0.000 C 
ATOM      2  C   UNL     1       2.766   2.211  20.198  0.00  0.00    +0.000 C 
ATOM      3  S   UNL     1       4.590   2.399  20.443  0.00  0.00    +0.000 S 
ATOM      4  C   UNL     1       4.664   3.493  19.110  0.00  0.00    +0.000 C 
ATOM      5  N   UNL     1       5.719   3.763  18.408  0.00  0.00    +0.000 NA
ATOM      6  C   UNL     1       5.109   4.324  17.146  0.00  0.00    +0.000 C 
ATOM      7  C   UNL     1       6.027   5.385  16.556  0.00  0.00    +0.000 C 
ATOM      8  C   UNL     1       5.861   6.747  17.207  0.00  0.00    +0.000 C 
ATOM      9  C   UNL     1       4.399   7.169  17.156  0.00  0.00    +0.000 C 
ATOM     10  C   UNL     1       3.538   6.206  17.964  0.00  0.00    +0.000 C 
ATOM     11  C   UNL     1       3.655   4.739  17.506  0.00  0.00    +0.000 C 
ATOM     12  N   UNL     1       3.436   3.888  18.672  0.00  0.00    +0.000 N 
ENDROOT
BRANCH   1  13
ATOM     13  C   UNL     1       0.940   3.161  18.708  0.00  0.00    +0.000 C 
ATOM     14  F   UNL     1       0.677   4.007  17.680  0.00  0.00    +0.000 F 
ATOM     15  F   UNL     1       0.150   2.075  18.518  0.00  0.00    +0.000 F 
ATOM     16  F   UNL     1       0.507   3.776  19.834  0.00  0.00    +0.000 F 
ENDBRANCH   1  13
BRANCH   1  17
ATOM     17  O   UNL     1       2.790   1.810  17.783  0.00  0.00    +0.000 OA
ATOM     18  H   UNL     1       2.378   0.973  18.061  0.00  0.00    +0.000 HD
ENDBRANCH   1  17
TORSDOF 2
ENDMDL
MODEL 8
REMARK VINA RESULT:      -6.5      3.933      5.310
REMARK  Name = 
REMARK  2 active torsions:
REMARK  status: ('A' for Active; 'I' for Inactive)
REMARK    1  A    between atoms: O_1  and  C_2
REMARK    2  A    between atoms: C_2  and  C_3
REMARK                            x       y       z     vdW  Elec       q    Type
REMARK                         _______ _______ _______ _____ _____    ______ ____
ROOT
ATOM      1  C   UNL     1       2.327   2.843  19.663  0.00  0.00    +0.000 C 
ATOM      2  C   UNL     1       3.145   2.183  20.821  0.00  0.00    +0.000 C 
ATOM      3  S   UNL     1       4.923   2.323  20.331  0.00  0.00    +0.000 S 
ATOM      4  C   UNL     1       4.505   3.483  19.122  0.00  0.00    +0.000 C 
ATOM      5  N   UNL     1       5.207   3.768  18.071  0.00  0.00    +0.000 NA
ATOM      6  C   UNL     1       4.170   4.404  17.177  0.00  0.00    +0.000 C 
ATOM      7  C   UNL     1       4.820   5.476  16.313  0.00  0.00    +0.000 C 
ATOM      8  C   UNL     1       4.975   6.806  17.029  0.00  0.00    +0.000 C 
ATOM      9  C   UNL     1       3.629   7.257  17.578  0.00  0.00    +0.000 C 
ATOM     10  C   UNL     1       3.121   6.271  18.623  0.00  0.00    +0.000 C 
ATOM     11  C   UNL     1       2.993   4.827  18.098  0.00  0.00    +0.000 C 
ATOM     12  N   UNL     1       3.220   3.922  19.221  0.00  0.00    +0.000 N 
ENDROOT
BRANCH   1  13
ATOM     13  C   UNL     1       0.916   3.242  20.215  0.00  0.00    +0.000 C 
ATOM     14  F   UNL     1       0.683   2.694  21.435  0.00  0.00    +0.000 F 
ATOM     15  F   UNL     1       0.775   4.582  20.367  0.00  0.00    +0.000 F 
ATOM     16  F   UNL     1      -0.088   2.825  19.408  0.00  0.00    +0.000 F 
ENDBRANCH   1  13
BRANCH   1  17
ATOM     17  O   UNL     1       2.198   1.905  18.580  0.00  0.00    +0.000 OA
ATOM     18  H   UNL     1       2.587   2.322  17.792  0.00  0.00    +0.000 HD
ENDBRANCH   1  17
TORSDOF 2
ENDMDL
