MODEL 1
REMARK VINA RESULT:      -5.7      0.000      0.000
REMARK  Name = 
REMARK  1 active torsions:
REMARK  status: ('A' for Active; 'I' for Inactive)
REMARK    1  A    between atoms: C_2  and  C_3
REMARK                            x       y       z     vdW  Elec       q    Type
REMARK                         _______ _______ _______ _____ _____    ______ ____
ROOT
ATOM      1  C   UNL     1       5.232   4.635  17.566  0.00  0.00    +0.000 A 
ATOM      2  N   UNL     1       4.254   5.451  17.038  0.00  0.00    +0.000 NA
ATOM      3  C   UNL     1       3.175   5.201  17.750  0.00  0.00    +0.000 A 
ATOM      4  N   UNL     1       3.424   4.261  18.704  0.00  0.00    +0.000 N 
ATOM      5  C   UNL     1       4.730   3.887  18.611  0.00  0.00    +0.000 A 
ATOM      6  N   UNL     1       5.277   2.955  19.451  0.00  0.00    +0.000 N 
ATOM      7  C   UNL     1       4.554   2.342  20.432  0.00  0.00    +0.000 C 
ATOM      8  O   UNL     1       5.095   1.517  21.170  0.00  0.00    +0.000 OA
ATOM      9  C   UNL     1       3.084   2.675  20.595  0.00  0.00    +0.000 C 
ATOM     10  C   UNL     1       2.495   3.721  19.659  0.00  0.00    +0.000 C 
ATOM     11  H   UNL     1       6.255   2.691  19.376  0.00  0.00    +0.000 HD
ENDROOT
BRANCH   1  13
ATOM     12  N   UNL     1       7.639   4.659  16.606  0.00  0.00    +0.000 NA
ATOM     13  C   UNL     1       6.562   4.619  17.041  0.00  0.00    +0.000 C 
ENDBRANCH   1  13
TORSDOF 1
ENDMDL
MODEL 2
REMARK VINA RESULT:      -5.6      2.416      3.482
REMARK  Name = 
REMARK  1 active torsions:
REMARK  status: ('A' for Active; 'I' for Inactive)
REMARK    1  A    between atoms: C_2  and  C_3
REMARK                            x       y       z     vdW  Elec       q    Type
REMARK                         _______ _______ _______ _____ _____    ______ ____
ROOT
ATOM      1  C   UNL     1       6.509   4.323  15.965  0.00  0.00    +0.000 A 
ATOM      2  N   UNL     1       7.771   4.430  16.511  0.00  0.00    +0.000 NA
ATOM      3  C   UNL     1       7.574   4.748  17.774  0.00  0.00    +0.000 A 
ATOM      4  N   UNL     1       6.244   4.850  18.052  0.00  0.00    +0.000 N 
ATOM      5  C   UNL     1       5.544   4.579  16.916  0.00  0.00    +0.000 A 
ATOM      6  N   UNL     1       4.175   4.596  16.889  0.00  0.00    +0.000 N 
ATOM      7  C   UNL     1       3.427   4.886  17.992  0.00  0.00    +0.000 C 
ATOM      8  O   UNL     1       2.197   4.878  17.920  0.00  0.00    +0.000 OA
ATOM      9  C   UNL     1       4.120   5.226  19.297  0.00  0.00    +0.000 C 
ATOM     10  C   UNL     1       5.642   5.191  19.311  0.00  0.00    +0.000 C 
ATOM     11  H   UNL     1       3.665   4.385  16.037  0.00  0.00    +0.000 HD
ENDROOT
BRANCH   1  13
ATOM     12  N   UNL     1       6.162   3.777  13.455  0.00  0.00    +0.000 NA
ATOM     13  C   UNL     1       6.312   3.994  14.587  0.00  0.00    +0.000 C 
ENDBRANCH   1  13
TORSDOF 1
ENDMDL
MODEL 3
REMARK VINA RESULT:      -5.5      2.142      4.049
REMARK  Name = 
REMARK  1 active torsions:
REMARK  status: ('A' for Active; 'I' for Inactive)
REMARK    1  A    between atoms: C_2  and  C_3
REMARK                            x       y       z     vdW  Elec       q    Type
REMARK                         _______ _______ _______ _____ _____    ______ ____
ROOT
ATOM      1  C   UNL     1       3.851   4.547  19.078  0.00  0.00    +0.000 A 
ATOM      2  N   UNL     1       2.918   5.523  18.797  0.00  0.00    +0.000 NA
ATOM      3  C   UNL     1       3.550   6.396  18.040  0.00  0.00    +0.000 A 
ATOM      4  N   UNL     1       4.843   6.018  17.830  0.00  0.00    +0.000 N 
ATOM      5  C   UNL     1       5.058   4.840  18.478  0.00  0.00    +0.000 A 
ATOM      6  N   UNL     1       6.271   4.207  18.443  0.00  0.00    +0.000 N 
ATOM      7  C   UNL     1       7.339   4.713  17.761  0.00  0.00    +0.000 C 
ATOM      8  O   UNL     1       8.408   4.100  17.751  0.00  0.00    +0.000 OA
ATOM      9  C   UNL     1       7.201   6.034  17.030  0.00  0.00    +0.000 C 
ATOM     10  C   UNL     1       5.842   6.718  17.071  0.00  0.00    +0.000 C 
ATOM     11  H   UNL     1       6.417   3.325  18.925  0.00  0.00    +0.000 HD
ENDROOT
BRANCH   1  13
ATOM     12  N   UNL     1       3.324   2.504  20.583  0.00  0.00    +0.000 NA
ATOM     13  C   UNL     1       3.534   3.417  19.895  0.00  0.00    +0.000 C 
ENDBRANCH   1  13
TORSDOF 1
ENDMDL
MODEL 4
REMARK VINA RESULT:      -5.5      2.124      3.106
REMARK  Name = 
REMARK  1 active torsions:
REMARK  status: ('A' for Active; 'I' for Inactive)
REMARK    1  A    between atoms: C_2  and  C_3
REMARK                            x       y       z     vdW  Elec       q    Type
REMARK                         _______ _______ _______ _____ _____    ______ ____
ROOT
ATOM      1  C   UNL     1       6.485   4.684  15.547  0.00  0.00    +0.000 A 
ATOM      2  N   UNL     1       7.364   5.708  15.829  0.00  0.00    +0.000 NA
ATOM      3  C   UNL     1       7.183   5.976  17.106  0.00  0.00    +0.000 A 
ATOM      4  N   UNL     1       6.228   5.168  17.646  0.00  0.00    +0.000 N 
ATOM      5  C   UNL     1       5.771   4.332  16.673  0.00  0.00    +0.000 A 
ATOM      6  N   UNL     1       4.804   3.395  16.922  0.00  0.00    +0.000 N 
ATOM      7  C   UNL     1       4.237   3.239  18.153  0.00  0.00    +0.000 C 
ATOM      8  O   UNL     1       3.378   2.374  18.329  0.00  0.00    +0.000 OA
ATOM      9  C   UNL     1       4.665   4.143  19.292  0.00  0.00    +0.000 C 
ATOM     10  C   UNL     1       5.749   5.172  19.001  0.00  0.00    +0.000 C 
ATOM     11  H   UNL     1       4.477   2.772  16.189  0.00  0.00    +0.000 HD
ENDROOT
BRANCH   1  13
ATOM     12  N   UNL     1       6.254   3.683  13.168  0.00  0.00    +0.000 NA
ATOM     13  C   UNL     1       6.384   4.119  14.237  0.00  0.00    +0.000 C 
ENDBRANCH   1  13
TORSDOF 1
ENDMDL
MODEL 5
REMARK VINA RESULT:      -5.5      2.113      4.068
REMARK  Name = 
REMARK  1 active torsions:
REMARK  status: ('A' for Active; 'I' for Inactive)
REMARK    1  A    between atoms: C_2  and  C_3
REMARK                            x       y       z     vdW  Elec       q    Type
REMARK                         _______ _______ _______ _____ _____    ______ ____
ROOT
ATOM      1  C   UNL     1       3.015   3.045  19.433  0.00  0.00    +0.000 A 
ATOM      2  N   UNL     1       2.068   2.714  18.486  0.00  0.00    +0.000 NA
ATOM      3  C   UNL     1       2.602   3.057  17.332  0.00  0.00    +0.000 A 
ATOM      4  N   UNL     1       3.843   3.592  17.505  0.00  0.00    +0.000 N 
ATOM      5  C   UNL     1       4.132   3.591  18.836  0.00  0.00    +0.000 A 
ATOM      6  N   UNL     1       5.322   4.065  19.318  0.00  0.00    +0.000 N 
ATOM      7  C   UNL     1       6.292   4.569  18.502  0.00  0.00    +0.000 C 
ATOM      8  O   UNL     1       7.351   4.974  18.983  0.00  0.00    +0.000 OA
ATOM      9  C   UNL     1       6.050   4.635  17.007  0.00  0.00    +0.000 C 
ATOM     10  C   UNL     1       4.725   4.093  16.487  0.00  0.00    +0.000 C 
ATOM     11  H   UNL     1       5.527   4.052  20.313  0.00  0.00    +0.000 HD
ENDROOT
BRANCH   1  13
ATOM     12  N   UNL     1       2.583   2.601  21.950  0.00  0.00    +0.000 NA
ATOM     13  C   UNL     1       2.791   2.825  20.829  0.00  0.00    +0.000 C 
ENDBRANCH   1  13
TORSDOF 1
ENDMDL
MODEL 6
REMARK VINA RESULT:      -5.5      2.058      2.251
REMARK  Name = 
REMARK  1 active torsions:
REMARK  status: ('A' for Active; 'I' for Inactive)
REMARK    1  A    between atoms: C_2  and  C_3
REMARK                            x       y       z     vdW  Elec       q    Type
REMARK                         _______ _______ _______ _____ _____    ______ ____
ROOT
ATOM      1  C   UNL     1       4.588   4.296  18.605  0.00  0.00    +0.000 A 
ATOM      2  N   UNL     1       4.401   4.221  17.241  0.00  0.00    +0.000 NA
ATOM      3  C   UNL     1       3.220   3.659  17.086  0.00  0.00    +0.000 A 
ATOM      4  N   UNL     1       2.651   3.372  18.290  0.00  0.00    +0.000 N 
ATOM      5  C   UNL     1       3.502   3.774  19.275  0.00  0.00    +0.000 A 
ATOM      6  N   UNL     1       3.196   3.621  20.601  0.00  0.00    +0.000 N 
ATOM      7  C   UNL     1       2.026   3.059  21.021  0.00  0.00    +0.000 C 
ATOM      8  O   UNL     1       1.792   2.954  22.226  0.00  0.00    +0.000 OA
ATOM      9  C   UNL     1       1.027   2.559  19.995  0.00  0.00    +0.000 C 
ATOM     10  C   UNL     1       1.379   2.746  18.526  0.00  0.00    +0.000 C 
ATOM     11  H   UNL     1       3.837   3.931  21.325  0.00  0.00    +0.000 HD
ENDROOT
BRANCH   1  13
ATOM     12  N   UNL     1       6.741   5.267  19.672  0.00  0.00    +0.000 NA
ATOM     13  C   UNL     1       5.779   4.850  19.171  0.00  0.00    +0.000 C 
ENDBRANCH   1  13
TORSDOF 1
ENDMDL
MODEL 7
REMARK VINA RESULT:      -5.4      1.740      1.901
REMARK  Name = 
REMARK  1 active torsions:
REMARK  status: ('A' for Active; 'I' for Inactive)
REMARK    1  A    between atoms: C_2  and  C_3
REMARK                            x       y       z     vdW  Elec       q    Type
REMARK                         _______ _______ _______ _____ _____    ______ ____
ROOT
ATOM      1  C   UNL     1       5.723   5.152  17.504  0.00  0.00    +0.000 A 
ATOM      2  N   UNL     1       5.382   6.477  17.330  0.00  0.00    +0.000 NA
ATOM      3  C   UNL     1       4.073   6.518  17.475  0.00  0.00    +0.000 A 
ATOM      4  N   UNL     1       3.569   5.278  17.730  0.00  0.00    +0.000 N 
ATOM      5  C   UNL     1       4.601   4.390  17.758  0.00  0.00    +0.000 A 
ATOM      6  N   UNL     1       4.402   3.058  18.002  0.00  0.00    +0.000 N 
ATOM      7  C   UNL     1       3.163   2.534  18.230  0.00  0.00    +0.000 C 
ATOM      8  O   UNL     1       3.037   1.330  18.455  0.00  0.00    +0.000 OA
ATOM      9  C   UNL     1       1.950   3.442  18.192  0.00  0.00    +0.000 C 
ATOM     10  C   UNL     1       2.191   4.923  17.930  0.00  0.00    +0.000 C 
ATOM     11  H   UNL     1       5.182   2.408  18.028  0.00  0.00    +0.000 HD
ENDROOT
BRANCH   1  13
ATOM     12  N   UNL     1       8.162   4.299  17.315  0.00  0.00    +0.000 NA
ATOM     13  C   UNL     1       7.078   4.707  17.412  0.00  0.00    +0.000 C 
ENDBRANCH   1  13
TORSDOF 1
ENDMDL
MODEL 8
REMARK VINA RESULT:      -5.4      2.197      4.038
REMARK  Name = 
REMARK  1 active torsions:
REMARK  status: ('A' for Active; 'I' for Inactive)
REMARK    1  A    between atoms: C_2  and  C_3
REMARK                            x       y       z     vdW  Elec       q    Type
REMARK                         _______ _______ _______ _____ _____    ______ ____
ROOT
ATOM      1  C   UNL     1       4.247   3.691  19.211  0.00  0.00    +0.000 A 
ATOM      2  N   UNL     1       3.042   4.341  19.376  0.00  0.00    +0.000 NA
ATOM      3  C   UNL     1       3.065   5.333  18.509  0.00  0.00    +0.000 A 
ATOM      4  N   UNL     1       4.231   5.343  17.805  0.00  0.00    +0.000 N 
ATOM      5  C   UNL     1       5.000   4.303  18.230  0.00  0.00    +0.000 A 
ATOM      6  N   UNL     1       6.235   4.052  17.695  0.00  0.00    +0.000 N 
ATOM      7  C   UNL     1       6.774   4.823  16.708  0.00  0.00    +0.000 C 
ATOM      8  O   UNL     1       7.886   4.549  16.252  0.00  0.00    +0.000 OA
ATOM      9  C   UNL     1       6.001   6.019  16.189  0.00  0.00    +0.000 C 
ATOM     10  C   UNL     1       4.625   6.278  16.787  0.00  0.00    +0.000 C 
ATOM     11  H   UNL     1       6.796   3.268  18.017  0.00  0.00    +0.000 HD
ENDROOT
BRANCH   1  13
ATOM     12  N   UNL     1       4.933   1.636  20.633  0.00  0.00    +0.000 NA
ATOM     13  C   UNL     1       4.598   2.547  19.994  0.00  0.00    +0.000 C 
ENDBRANCH   1  13
TORSDOF 1
ENDMDL
MODEL 9
REMARK VINA RESULT:      -5.3      2.375      3.968
REMARK  Name = 
REMARK  1 active torsions:
REMARK  status: ('A' for Active; 'I' for Inactive)
REMARK    1  A    between atoms: C_2  and  C_3
REMARK                            x       y       z     vdW  Elec       q    Type
REMARK                         _______ _______ _______ _____ _____    ______ ____
ROOT
ATOM      1  C   UNL     1       4.754   3.939  17.245  0.00  0.00    +0.000 A 
ATOM      2  N   UNL     1       4.554   4.371  15.951  0.00  0.00    +0.000 NA
ATOM      3  C   UNL     1       5.421   5.347  15.776  0.00  0.00    +0.000 A 
ATOM      4  N   UNL     1       6.161   5.554  16.902  0.00  0.00    +0.000 N 
ATOM      5  C   UNL     1       5.757   4.666  17.852  0.00  0.00    +0.000 A 
ATOM      6  N   UNL     1       6.328   4.629  19.095  0.00  0.00    +0.000 N 
ATOM      7  C   UNL     1       7.332   5.476  19.464  0.00  0.00    +0.000 C 
ATOM      8  O   UNL     1       7.821   5.396  20.592  0.00  0.00    +0.000 OA
ATOM      9  C   UNL     1       7.829   6.517  18.480  0.00  0.00    +0.000 C 
ATOM     10  C   UNL     1       7.191   6.537  17.098  0.00  0.00    +0.000 C 
ATOM     11  H   UNL     1       6.023   3.957  19.793  0.00  0.00    +0.000 HD
ENDROOT
BRANCH   1  13
ATOM     12  N   UNL     1       3.346   2.045  18.316  0.00  0.00    +0.000 NA
ATOM     13  C   UNL     1       3.980   2.878  17.812  0.00  0.00    +0.000 C 
ENDBRANCH   1  13
TORSDOF 1
ENDMDL
