MODEL 1
REMARK VINA RESULT:      -5.8      0.000      0.000
REMARK  Name = 
REMARK  10 active torsions:
REMARK  status: ('A' for Active; 'I' for Inactive)
REMARK    1  A    between atoms: C_1  and  C_2
REMARK    2  A    between atoms: C_2  and  O_3
REMARK    3  A    between atoms: O_3  and  P_4
REMARK    4  A    between atoms: P_4  and  O_6
REMARK    5  A    between atoms: P_4  and  O_9
REMARK    6  A    between atoms: O_6  and  C_7
REMARK    7  A    between atoms: C_7  and  C_8
REMARK    8  A    between atoms: O_9  and  C_10
REMARK    9  A    between atoms: C_13  and  S_14
REMARK   10  A    between atoms: S_14  and  C_15
REMARK                            x       y       z     vdW  Elec       q    Type
REMARK                         _______ _______ _______ _____ _____    ______ ____
ROOT
ATOM      1  O   UNL     1       5.474   6.218  17.916  0.00  0.00    +0.000 OA
ENDROOT
BRANCH   1   2
ATOM      2  C   UNL     1       4.322   5.464  18.155  0.00  0.00    +0.000 A 
ATOM      3  C   UNL     1       4.333   4.071  18.261  0.00  0.00    +0.000 A 
ATOM      4  C   UNL     1       3.264   3.376  18.831  0.00  0.00    +0.000 A 
ATOM      5  C   UNL     1       2.088   4.044  19.183  0.00  0.00    +0.000 A 
ATOM      6  C   UNL     1       1.999   5.407  18.895  0.00  0.00    +0.000 A 
ATOM      7  C   UNL     1       3.108   6.117  18.387  0.00  0.00    +0.000 A 
ATOM      8 CL   UNL     1       2.933   7.804  18.075  0.00  0.00    +0.000 Cl
BRANCH   5   9
ATOM      9  S   UNL     1       0.846   3.034  19.978  0.00  0.00    +0.000 S 
ATOM     10  C   UNL     1       1.545   2.679  21.607  0.00  0.00    +0.000 C 
ENDBRANCH   5   9
ENDBRANCH   1   2
BRANCH   1  11
ATOM     11  P   UNL     1       6.549   5.894  16.600  0.00  0.00    +0.000 P 
ATOM     12  S   UNL     1       7.657   4.676  17.790  0.00  0.00    +0.000 S 
BRANCH  11  13
ATOM     13  O   UNL     1       7.624   5.569  15.284  0.00  0.00    +0.000 OA
BRANCH  13  15
ATOM     14  C   UNL     1       5.588   4.527  14.549  0.00  0.00    +0.000 C 
ATOM     15  C   UNL     1       7.068   4.708  14.290  0.00  0.00    +0.000 C 
ENDBRANCH  13  15
ENDBRANCH  11  13
BRANCH  11  16
ATOM     16  O   UNL     1       7.156   7.424  16.574  0.00  0.00    +0.000 OA
BRANCH  16  17
ATOM     17  C   UNL     1       7.101   8.319  17.667  0.00  0.00    +0.000 C 
ATOM     18  C   UNL     1       8.450   8.475  18.328  0.00  0.00    +0.000 C 
ENDBRANCH  16  17
ENDBRANCH  11  16
ENDBRANCH   1  11
TORSDOF 7
ENDMDL
MODEL 2
REMARK VINA RESULT:      -5.6      1.817      3.327
REMARK  Name = 
REMARK  10 active torsions:
REMARK  status: ('A' for Active; 'I' for Inactive)
REMARK    1  A    between atoms: C_1  and  C_2
REMARK    2  A    between atoms: C_2  and  O_3
REMARK    3  A    between atoms: O_3  and  P_4
REMARK    4  A    between atoms: P_4  and  O_6
REMARK    5  A    between atoms: P_4  and  O_9
REMARK    6  A    between atoms: O_6  and  C_7
REMARK    7  A    between atoms: C_7  and  C_8
REMARK    8  A    between atoms: O_9  and  C_10
REMARK    9  A    between atoms: C_13  and  S_14
REMARK   10  A    between atoms: S_14  and  C_15
REMARK                            x       y       z     vdW  Elec       q    Type
REMARK                         _______ _______ _______ _____ _____    ______ ____
ROOT
ATOM      1  O   UNL     1       5.473   4.099  16.592  0.00  0.00    +0.000 OA
ENDROOT
BRANCH   1   2
ATOM      2  C   UNL     1       4.351   4.067  17.425  0.00  0.00    +0.000 A 
ATOM      3  C   UNL     1       3.073   3.739  16.966  0.00  0.00    +0.000 A 
ATOM      4  C   UNL     1       2.053   3.380  17.850  0.00  0.00    +0.000 A 
ATOM      5  C   UNL     1       2.241   3.478  19.231  0.00  0.00    +0.000 A 
ATOM      6  C   UNL     1       3.453   3.995  19.691  0.00  0.00    +0.000 A 
ATOM      7  C   UNL     1       4.505   4.286  18.797  0.00  0.00    +0.000 A 
ATOM      8 CL   UNL     1       5.983   4.902  19.437  0.00  0.00    +0.000 Cl
BRANCH   5   9
ATOM      9  S   UNL     1       0.875   2.902  20.230  0.00  0.00    +0.000 S 
ATOM     10  C   UNL     1       1.626   2.532  21.832  0.00  0.00    +0.000 C 
ENDBRANCH   5   9
ENDBRANCH   1   2
BRANCH   1  11
ATOM     11  P   UNL     1       6.591   5.419  16.579  0.00  0.00    +0.000 P 
ATOM     12  S   UNL     1       5.135   6.659  15.893  0.00  0.00    +0.000 S 
BRANCH  11  13
ATOM     13  O   UNL     1       7.709   6.740  16.565  0.00  0.00    +0.000 OA
BRANCH  13  15
ATOM     14  C   UNL     1       7.915   8.894  17.607  0.00  0.00    +0.000 C 
ATOM     15  C   UNL     1       7.830   7.399  17.825  0.00  0.00    +0.000 C 
ENDBRANCH  13  15
ENDBRANCH  11  13
BRANCH  11  16
ATOM     16  O   UNL     1       7.482   4.796  15.342  0.00  0.00    +0.000 OA
BRANCH  16  17
ATOM     17  C   UNL     1       7.203   5.015  13.973  0.00  0.00    +0.000 C 
ATOM     18  C   UNL     1       6.468   3.846  13.361  0.00  0.00    +0.000 C 
ENDBRANCH  16  17
ENDBRANCH  11  16
ENDBRANCH   1  11
TORSDOF 7
ENDMDL
MODEL 3
REMARK VINA RESULT:      -5.5      3.478      5.196
REMARK  Name = 
REMARK  10 active torsions:
REMARK  status: ('A' for Active; 'I' for Inactive)
REMARK    1  A    between atoms: C_1  and  C_2
REMARK    2  A    between atoms: C_2  and  O_3
REMARK    3  A    between atoms: O_3  and  P_4
REMARK    4  A    between atoms: P_4  and  O_6
REMARK    5  A    between atoms: P_4  and  O_9
REMARK    6  A    between atoms: O_6  and  C_7
REMARK    7  A    between atoms: C_7  and  C_8
REMARK    8  A    between atoms: O_9  and  C_10
REMARK    9  A    between atoms: C_13  and  S_14
REMARK   10  A    between atoms: S_14  and  C_15
REMARK                            x       y       z     vdW  Elec       q    Type
REMARK                         _______ _______ _______ _____ _____    ______ ____
ROOT
ATOM      1  O   UNL     1       3.014   5.762  17.871  0.00  0.00    +0.000 OA
ENDROOT
BRANCH   1   2
ATOM      2  C   UNL     1       2.627   6.997  18.398  0.00  0.00    +0.000 A 
ATOM      3  C   UNL     1       2.721   8.193  17.682  0.00  0.00    +0.000 A 
ATOM      4  C   UNL     1       2.025   9.336  18.080  0.00  0.00    +0.000 A 
ATOM      5  C   UNL     1       1.326   9.358  19.289  0.00  0.00    +0.000 A 
ATOM      6  C   UNL     1       1.393   8.227  20.105  0.00  0.00    +0.000 A 
ATOM      7  C   UNL     1       2.036   7.051  19.664  0.00  0.00    +0.000 A 
ATOM      8 CL   UNL     1       2.062   5.684  20.715  0.00  0.00    +0.000 Cl
BRANCH   5   9
ATOM      9  S   UNL     1       0.417  10.862  19.618  0.00  0.00    +0.000 S 
ATOM     10  C   UNL     1       0.215  10.870  21.414  0.00  0.00    +0.000 C 
ENDBRANCH   5   9
ENDBRANCH   1   2
BRANCH   1  11
ATOM     11  P   UNL     1       4.529   5.017  18.250  0.00  0.00    +0.000 P 
ATOM     12  S   UNL     1       5.201   5.404  16.373  0.00  0.00    +0.000 S 
BRANCH  11  13
ATOM     13  O   UNL     1       6.044   4.272  18.629  0.00  0.00    +0.000 OA
BRANCH  13  15
ATOM     14  C   UNL     1       7.850   5.759  19.169  0.00  0.00    +0.000 C 
ATOM     15  C   UNL     1       7.171   4.956  18.082  0.00  0.00    +0.000 C 
ENDBRANCH  13  15
ENDBRANCH  11  13
BRANCH  11  16
ATOM     16  O   UNL     1       3.884   3.506  18.358  0.00  0.00    +0.000 OA
BRANCH  16  17
ATOM     17  C   UNL     1       2.824   3.035  17.551  0.00  0.00    +0.000 C 
ATOM     18  C   UNL     1       1.778   2.315  18.368  0.00  0.00    +0.000 C 
ENDBRANCH  16  17
ENDBRANCH  11  16
ENDBRANCH   1  11
TORSDOF 7
ENDMDL
MODEL 4
REMARK VINA RESULT:      -5.5      2.953      6.398
REMARK  Name = 
REMARK  10 active torsions:
REMARK  status: ('A' for Active; 'I' for Inactive)
REMARK    1  A    between atoms: C_1  and  C_2
REMARK    2  A    between atoms: C_2  and  O_3
REMARK    3  A    between atoms: O_3  and  P_4
REMARK    4  A    between atoms: P_4  and  O_6
REMARK    5  A    between atoms: P_4  and  O_9
REMARK    6  A    between atoms: O_6  and  C_7
REMARK    7  A    between atoms: C_7  and  C_8
REMARK    8  A    between atoms: O_9  and  C_10
REMARK    9  A    between atoms: C_13  and  S_14
REMARK   10  A    between atoms: S_14  and  C_15
REMARK                            x       y       z     vdW  Elec       q    Type
REMARK                         _______ _______ _______ _____ _____    ______ ____
ROOT
ATOM      1  O   UNL     1       4.627   5.614  18.217  0.00  0.00    +0.000 OA
ENDROOT
BRANCH   1   2
ATOM      2  C   UNL     1       5.350   5.157  17.112  0.00  0.00    +0.000 A 
ATOM      3  C   UNL     1       4.778   4.392  16.092  0.00  0.00    +0.000 A 
ATOM      4  C   UNL     1       5.408   4.241  14.855  0.00  0.00    +0.000 A 
ATOM      5  C   UNL     1       6.699   4.734  14.649  0.00  0.00    +0.000 A 
ATOM      6  C   UNL     1       7.353   5.326  15.731  0.00  0.00    +0.000 A 
ATOM      7  C   UNL     1       6.685   5.541  16.955  0.00  0.00    +0.000 A 
ATOM      8 CL   UNL     1       7.548   6.299  18.242  0.00  0.00    +0.000 Cl
BRANCH   5   9
ATOM      9  S   UNL     1       7.335   4.538  12.991  0.00  0.00    +0.000 S 
ATOM     10  C   UNL     1       6.208   3.351  12.225  0.00  0.00    +0.000 C 
ENDBRANCH   5   9
ENDBRANCH   1   2
BRANCH   1  11
ATOM     11  P   UNL     1       3.088   4.963  18.664  0.00  0.00    +0.000 P 
ATOM     12  S   UNL     1       2.562   6.743  19.489  0.00  0.00    +0.000 S 
BRANCH  11  13
ATOM     13  O   UNL     1       1.549   4.311  19.111  0.00  0.00    +0.000 OA
BRANCH  13  15
ATOM     14  C   UNL     1       1.047   3.017  21.071  0.00  0.00    +0.000 C 
ATOM     15  C   UNL     1       1.273   4.403  20.509  0.00  0.00    +0.000 C 
ENDBRANCH  13  15
ENDBRANCH  11  13
BRANCH  11  16
ATOM     16  O   UNL     1       3.724   3.942  19.789  0.00  0.00    +0.000 OA
BRANCH  16  17
ATOM     17  C   UNL     1       4.460   2.777  19.479  0.00  0.00    +0.000 C 
ATOM     18  C   UNL     1       3.642   1.800  18.669  0.00  0.00    +0.000 C 
ENDBRANCH  16  17
ENDBRANCH  11  16
ENDBRANCH   1  11
TORSDOF 7
ENDMDL
MODEL 5
REMARK VINA RESULT:      -5.4      3.074      4.818
REMARK  Name = 
REMARK  10 active torsions:
REMARK  status: ('A' for Active; 'I' for Inactive)
REMARK    1  A    between atoms: C_1  and  C_2
REMARK    2  A    between atoms: C_2  and  O_3
REMARK    3  A    between atoms: O_3  and  P_4
REMARK    4  A    between atoms: P_4  and  O_6
REMARK    5  A    between atoms: P_4  and  O_9
REMARK    6  A    between atoms: O_6  and  C_7
REMARK    7  A    between atoms: C_7  and  C_8
REMARK    8  A    between atoms: O_9  and  C_10
REMARK    9  A    between atoms: C_13  and  S_14
REMARK   10  A    between atoms: S_14  and  C_15
REMARK                            x       y       z     vdW  Elec       q    Type
REMARK                         _______ _______ _______ _____ _____    ______ ____
ROOT
ATOM      1  O   UNL     1       3.712   5.379  18.113  0.00  0.00    +0.000 OA
ENDROOT
BRANCH   1   2
ATOM      2  C   UNL     1       3.112   6.546  18.594  0.00  0.00    +0.000 A 
ATOM      3  C   UNL     1       3.105   7.748  17.880  0.00  0.00    +0.000 A 
ATOM      4  C   UNL     1       2.225   8.782  18.206  0.00  0.00    +0.000 A 
ATOM      5  C   UNL     1       1.423   8.700  19.347  0.00  0.00    +0.000 A 
ATOM      6  C   UNL     1       1.572   7.586  20.174  0.00  0.00    +0.000 A 
ATOM      7  C   UNL     1       2.408   6.512  19.801  0.00  0.00    +0.000 A 
ATOM      8 CL   UNL     1       2.527   5.156  20.860  0.00  0.00    +0.000 Cl
BRANCH   5   9
ATOM      9  S   UNL     1       0.290  10.063  19.582  0.00  0.00    +0.000 S 
ATOM     10  C   UNL     1      -0.527  10.237  17.979  0.00  0.00    +0.000 C 
ENDBRANCH   5   9
ENDBRANCH   1   2
BRANCH   1  11
ATOM     11  P   UNL     1       5.412   5.083  18.235  0.00  0.00    +0.000 P 
ATOM     12  S   UNL     1       5.422   4.302  16.360  0.00  0.00    +0.000 S 
BRANCH  11  13
ATOM     13  O   UNL     1       7.112   4.786  18.357  0.00  0.00    +0.000 OA
BRANCH  13  15
ATOM     14  C   UNL     1       7.595   7.089  17.876  0.00  0.00    +0.000 C 
ATOM     15  C   UNL     1       7.861   5.919  18.797  0.00  0.00    +0.000 C 
ENDBRANCH  13  15
ENDBRANCH  11  13
BRANCH  11  16
ATOM     16  O   UNL     1       5.237   3.907  19.375  0.00  0.00    +0.000 OA
BRANCH  16  17
ATOM     17  C   UNL     1       4.397   2.780  19.231  0.00  0.00    +0.000 C 
ATOM     18  C   UNL     1       4.334   1.966  20.501  0.00  0.00    +0.000 C 
ENDBRANCH  16  17
ENDBRANCH  11  16
ENDBRANCH   1  11
TORSDOF 7
ENDMDL
MODEL 6
REMARK VINA RESULT:      -5.4      3.008      4.742
REMARK  Name = 
REMARK  10 active torsions:
REMARK  status: ('A' for Active; 'I' for Inactive)
REMARK    1  A    between atoms: C_1  and  C_2
REMARK    2  A    between atoms: C_2  and  O_3
REMARK    3  A    between atoms: O_3  and  P_4
REMARK    4  A    between atoms: P_4  and  O_6
REMARK    5  A    between atoms: P_4  and  O_9
REMARK    6  A    between atoms: O_6  and  C_7
REMARK    7  A    between atoms: C_7  and  C_8
REMARK    8  A    between atoms: O_9  and  C_10
REMARK    9  A    between atoms: C_13  and  S_14
REMARK   10  A    between atoms: S_14  and  C_15
REMARK                            x       y       z     vdW  Elec       q    Type
REMARK                         _______ _______ _______ _____ _____    ______ ____
ROOT
ATOM      1  O   UNL     1       3.320   4.778  18.579  0.00  0.00    +0.000 OA
ENDROOT
BRANCH   1   2
ATOM      2  C   UNL     1       2.555   5.769  19.201  0.00  0.00    +0.000 A 
ATOM      3  C   UNL     1       1.803   5.537  20.354  0.00  0.00    +0.000 A 
ATOM      4  C   UNL     1       1.335   6.591  21.142  0.00  0.00    +0.000 A 
ATOM      5  C   UNL     1       1.485   7.915  20.720  0.00  0.00    +0.000 A 
ATOM      6  C   UNL     1       2.061   8.142  19.470  0.00  0.00    +0.000 A 
ATOM      7  C   UNL     1       2.597   7.078  18.713  0.00  0.00    +0.000 A 
ATOM      8 CL   UNL     1       3.315   7.435  17.185  0.00  0.00    +0.000 Cl
BRANCH   5   9
ATOM      9  S   UNL     1       0.912   9.153  21.875  0.00  0.00    +0.000 S 
ATOM     10  C   UNL     1       0.655  10.622  20.854  0.00  0.00    +0.000 C 
ENDBRANCH   5   9
ENDBRANCH   1   2
BRANCH   1  11
ATOM     11  P   UNL     1       5.027   4.628  18.815  0.00  0.00    +0.000 P 
ATOM     12  S   UNL     1       5.295   4.408  16.813  0.00  0.00    +0.000 S 
BRANCH  11  13
ATOM     13  O   UNL     1       6.735   4.479  19.050  0.00  0.00    +0.000 OA
BRANCH  13  15
ATOM     14  C   UNL     1       7.894   6.531  18.587  0.00  0.00    +0.000 C 
ATOM     15  C   UNL     1       7.510   5.163  18.066  0.00  0.00    +0.000 C 
ENDBRANCH  13  15
ENDBRANCH  11  13
BRANCH  11  16
ATOM     16  O   UNL     1       4.907   3.170  19.569  0.00  0.00    +0.000 OA
BRANCH  16  17
ATOM     17  C   UNL     1       3.718   2.408  19.640  0.00  0.00    +0.000 C 
ATOM     18  C   UNL     1       3.629   1.408  18.512  0.00  0.00    +0.000 C 
ENDBRANCH  16  17
ENDBRANCH  11  16
ENDBRANCH   1  11
TORSDOF 7
ENDMDL
MODEL 7
REMARK VINA RESULT:      -5.4      3.200      4.671
REMARK  Name = 
REMARK  10 active torsions:
REMARK  status: ('A' for Active; 'I' for Inactive)
REMARK    1  A    between atoms: C_1  and  C_2
REMARK    2  A    between atoms: C_2  and  O_3
REMARK    3  A    between atoms: O_3  and  P_4
REMARK    4  A    between atoms: P_4  and  O_6
REMARK    5  A    between atoms: P_4  and  O_9
REMARK    6  A    between atoms: O_6  and  C_7
REMARK    7  A    between atoms: C_7  and  C_8
REMARK    8  A    between atoms: O_9  and  C_10
REMARK    9  A    between atoms: C_13  and  S_14
REMARK   10  A    between atoms: S_14  and  C_15
REMARK                            x       y       z     vdW  Elec       q    Type
REMARK                         _______ _______ _______ _____ _____    ______ ____
ROOT
ATOM      1  O   UNL     1       3.406   5.413  17.414  0.00  0.00    +0.000 OA
ENDROOT
BRANCH   1   2
ATOM      2  C   UNL     1       2.996   6.510  18.175  0.00  0.00    +0.000 A 
ATOM      3  C   UNL     1       2.865   7.797  17.646  0.00  0.00    +0.000 A 
ATOM      4  C   UNL     1       2.140   8.786  18.313  0.00  0.00    +0.000 A 
ATOM      5  C   UNL     1       1.643   8.560  19.600  0.00  0.00    +0.000 A 
ATOM      6  C   UNL     1       1.943   7.343  20.212  0.00  0.00    +0.000 A 
ATOM      7  C   UNL     1       2.613   6.320  19.506  0.00  0.00    +0.000 A 
ATOM      8 CL   UNL     1       2.931   4.832  20.318  0.00  0.00    +0.000 Cl
BRANCH   5   9
ATOM      9  S   UNL     1       0.665   9.890  20.284  0.00  0.00    +0.000 S 
ATOM     10  C   UNL     1       0.357   9.377  21.990  0.00  0.00    +0.000 C 
ENDBRANCH   5   9
ENDBRANCH   1   2
BRANCH   1  11
ATOM     11  P   UNL     1       5.057   4.905  17.316  0.00  0.00    +0.000 P 
ATOM     12  S   UNL     1       5.245   5.827  15.516  0.00  0.00    +0.000 S 
BRANCH  11  13
ATOM     13  O   UNL     1       6.708   4.398  17.219  0.00  0.00    +0.000 OA
BRANCH  13  15
ATOM     14  C   UNL     1       6.664   5.563  19.319  0.00  0.00    +0.000 C 
ATOM     15  C   UNL     1       7.534   4.936  18.251  0.00  0.00    +0.000 C 
ENDBRANCH  13  15
ENDBRANCH  11  13
BRANCH  11  16
ATOM     16  O   UNL     1       4.672   3.314  17.140  0.00  0.00    +0.000 OA
BRANCH  16  17
ATOM     17  C   UNL     1       3.409   2.762  17.454  0.00  0.00    +0.000 C 
ATOM     18  C   UNL     1       3.531   1.604  18.415  0.00  0.00    +0.000 C 
ENDBRANCH  16  17
ENDBRANCH  11  16
ENDBRANCH   1  11
TORSDOF 7
ENDMDL
MODEL 8
REMARK VINA RESULT:      -5.4      3.293      4.198
REMARK  Name = 
REMARK  10 active torsions:
REMARK  status: ('A' for Active; 'I' for Inactive)
REMARK    1  A    between atoms: C_1  and  C_2
REMARK    2  A    between atoms: C_2  and  O_3
REMARK    3  A    between atoms: O_3  and  P_4
REMARK    4  A    between atoms: P_4  and  O_6
REMARK    5  A    between atoms: P_4  and  O_9
REMARK    6  A    between atoms: O_6  and  C_7
REMARK    7  A    between atoms: C_7  and  C_8
REMARK    8  A    between atoms: O_9  and  C_10
REMARK    9  A    between atoms: C_13  and  S_14
REMARK   10  A    between atoms: S_14  and  C_15
REMARK                            x       y       z     vdW  Elec       q    Type
REMARK                         _______ _______ _______ _____ _____    ______ ____
ROOT
ATOM      1  O   UNL     1       2.890   5.546  18.036  0.00  0.00    +0.000 OA
ENDROOT
BRANCH   1   2
ATOM      2  C   UNL     1       2.536   6.748  18.654  0.00  0.00    +0.000 A 
ATOM      3  C   UNL     1       2.478   7.966  17.972  0.00  0.00    +0.000 A 
ATOM      4  C   UNL     1       1.804   9.066  18.505  0.00  0.00    +0.000 A 
ATOM      5  C   UNL     1       1.289   9.025  19.803  0.00  0.00    +0.000 A 
ATOM      6  C   UNL     1       1.520   7.877  20.562  0.00  0.00    +0.000 A 
ATOM      7  C   UNL     1       2.137   6.742  19.993  0.00  0.00    +0.000 A 
ATOM      8 CL   UNL     1       2.370   5.349  20.984  0.00  0.00    +0.000 Cl
BRANCH   5   9
ATOM      9  S   UNL     1       0.381  10.479  20.310  0.00  0.00    +0.000 S 
ATOM     10  C   UNL     1      -0.120  11.249  18.754  0.00  0.00    +0.000 C 
ENDBRANCH   5   9
ENDBRANCH   1   2
BRANCH   1  11
ATOM     11  P   UNL     1       4.328   5.367  17.090  0.00  0.00    +0.000 P 
ATOM     12  S   UNL     1       4.227   3.349  17.298  0.00  0.00    +0.000 S 
BRANCH  11  13
ATOM     13  O   UNL     1       5.765   5.189  16.144  0.00  0.00    +0.000 OA
BRANCH  13  15
ATOM     14  C   UNL     1       6.248   3.949  14.144  0.00  0.00    +0.000 C 
ATOM     15  C   UNL     1       5.948   3.871  15.625  0.00  0.00    +0.000 C 
ENDBRANCH  13  15
ENDBRANCH  11  13
BRANCH  11  16
ATOM     16  O   UNL     1       5.298   6.042  18.236  0.00  0.00    +0.000 OA
BRANCH  16  17
ATOM     17  C   UNL     1       6.052   5.302  19.175  0.00  0.00    +0.000 C 
ATOM     18  C   UNL     1       7.498   5.737  19.195  0.00  0.00    +0.000 C 
ENDBRANCH  16  17
ENDBRANCH  11  16
ENDBRANCH   1  11
TORSDOF 7
ENDMDL
MODEL 9
REMARK VINA RESULT:      -5.2      3.049      6.312
REMARK  Name = 
REMARK  10 active torsions:
REMARK  status: ('A' for Active; 'I' for Inactive)
REMARK    1  A    between atoms: C_1  and  C_2
REMARK    2  A    between atoms: C_2  and  O_3
REMARK    3  A    between atoms: O_3  and  P_4
REMARK    4  A    between atoms: P_4  and  O_6
REMARK    5  A    between atoms: P_4  and  O_9
REMARK    6  A    between atoms: O_6  and  C_7
REMARK    7  A    between atoms: C_7  and  C_8
REMARK    8  A    between atoms: O_9  and  C_10
REMARK    9  A    between atoms: C_13  and  S_14
REMARK   10  A    between atoms: S_14  and  C_15
REMARK                            x       y       z     vdW  Elec       q    Type
REMARK                         _______ _______ _______ _____ _____    ______ ____
ROOT
ATOM      1  O   UNL     1       4.869   5.300  18.498  0.00  0.00    +0.000 OA
ENDROOT
BRANCH   1   2
ATOM      2  C   UNL     1       5.583   4.975  17.341  0.00  0.00    +0.000 A 
ATOM      3  C   UNL     1       5.050   4.193  16.313  0.00  0.00    +0.000 A 
ATOM      4  C   UNL     1       5.631   4.168  15.044  0.00  0.00    +0.000 A 
ATOM      5  C   UNL     1       6.847   4.813  14.804  0.00  0.00    +0.000 A 
ATOM      6  C   UNL     1       7.484   5.429  15.883  0.00  0.00    +0.000 A 
ATOM      7  C   UNL     1       6.857   5.515  17.144  0.00  0.00    +0.000 A 
ATOM      8 CL   UNL     1       7.693   6.311  18.426  0.00  0.00    +0.000 Cl
BRANCH   5   9
ATOM      9  S   UNL     1       7.418   4.761  13.112  0.00  0.00    +0.000 S 
ATOM     10  C   UNL     1       6.370   3.511  12.332  0.00  0.00    +0.000 C 
ENDBRANCH   5   9
ENDBRANCH   1   2
BRANCH   1  11
ATOM     11  P   UNL     1       3.182   4.966  18.682  0.00  0.00    +0.000 P 
ATOM     12  S   UNL     1       2.784   6.957  18.756  0.00  0.00    +0.000 S 
BRANCH  11  13
ATOM     13  O   UNL     1       1.494   4.632  18.865  0.00  0.00    +0.000 OA
BRANCH  13  15
ATOM     14  C   UNL     1       0.764   2.350  18.689  0.00  0.00    +0.000 C 
ATOM     15  C   UNL     1       1.003   3.651  17.953  0.00  0.00    +0.000 C 
ENDBRANCH  13  15
ENDBRANCH  11  13
BRANCH  11  16
ATOM     16  O   UNL     1       3.359   4.331  20.191  0.00  0.00    +0.000 OA
BRANCH  16  17
ATOM     17  C   UNL     1       2.384   4.422  21.210  0.00  0.00    +0.000 C 
ATOM     18  C   UNL     1       2.171   3.094  21.897  0.00  0.00    +0.000 C 
ENDBRANCH  16  17
ENDBRANCH  11  16
ENDBRANCH   1  11
TORSDOF 7
ENDMDL
