MODEL 1
REMARK VINA RESULT:      -7.2      0.000      0.000
REMARK  Name = 
REMARK  11 active torsions:
REMARK  status: ('A' for Active; 'I' for Inactive)
REMARK    1  A    between atoms: C_1  and  N_2
REMARK    2  A    between atoms: N_8  and  C_9
REMARK    3  A    between atoms: C_12  and  C_13
REMARK    4  A    between atoms: C_16  and  N_17
REMARK    5  A    between atoms: N_17  and  C_18
REMARK    6  A    between atoms: C_18  and  C_19
REMARK    7  A    between atoms: C_19  and  C_20
REMARK    8  A    between atoms: C_19  and  C_21
REMARK    9  A    between atoms: C_19  and  C_22
REMARK   10  A    between atoms: C_27  and  C_28
REMARK   11  A    between atoms: C_27  and  C_29
REMARK                            x       y       z     vdW  Elec       q    Type
REMARK                         _______ _______ _______ _____ _____    ______ ____
ROOT
ATOM      1  C   UNL     1      -2.203  12.377  22.196  0.00  0.00    +0.000 A 
ATOM      2  C   UNL     1      -1.436  11.552  23.025  0.00  0.00    +0.000 A 
ATOM      3  C   UNL     1      -0.525  10.628  22.479  0.00  0.00    +0.000 A 
ATOM      4  C   UNL     1      -0.379  10.500  21.090  0.00  0.00    +0.000 A 
ATOM      5  C   UNL     1      -1.129  11.328  20.221  0.00  0.00    +0.000 A 
ATOM      6  C   UNL     1      -2.025  12.248  20.808  0.00  0.00    +0.000 A 
ENDROOT
BRANCH   1  14
ATOM      7  C   UNL     1      -7.717  11.746  21.324  0.00  0.00    +0.000 C 
ATOM      8  N   UNL     1      -6.833  12.516  22.194  0.00  0.00    +0.000 NA
ATOM      9  C   UNL     1      -7.261  13.931  22.209  0.00  0.00    +0.000 C 
ATOM     10  C   UNL     1      -6.523  14.714  23.300  0.00  0.00    +0.000 C 
ATOM     11  C   UNL     1      -5.063  14.419  23.251  0.00  0.00    +0.000 A 
ATOM     12  C   UNL     1      -4.021  15.095  23.892  0.00  0.00    +0.000 A 
ATOM     13  C   UNL     1      -2.846  14.442  23.578  0.00  0.00    +0.000 A 
ATOM     14  N   UNL     1      -3.145  13.334  22.746  0.00  0.00    +0.000 N 
ATOM     15  C   UNL     1      -4.533  13.350  22.554  0.00  0.00    +0.000 A 
ATOM     16  C   UNL     1      -5.405  12.380  21.792  0.00  0.00    +0.000 C 
ATOM     17  C   UNL     1      -1.493  14.945  23.975  0.00  0.00    +0.000 C 
ATOM     18  C   UNL     1      -1.487  16.218  24.893  0.00  0.00    +0.000 C 
ATOM     19  C   UNL     1      -0.844  15.830  26.249  0.00  0.00    +0.000 C 
ATOM     20  C   UNL     1      -0.574  17.280  24.237  0.00  0.00    +0.000 C 
ATOM     21  C   UNL     1      -2.840  16.907  25.212  0.00  0.00    +0.000 C 
ATOM     22  C   UNL     1      -4.111  16.281  24.713  0.00  0.00    +0.000 C 
ATOM     23  O   UNL     1      -5.193  16.800  24.993  0.00  0.00    +0.000 OA
ENDBRANCH   1  14
BRANCH   4  24
ATOM     24  C   UNL     1       0.619   9.532  20.524  0.00  0.00    +0.000 C 
ATOM     25  N   UNL     1       0.771   8.327  21.156  0.00  0.00    +0.000 N 
ATOM     26  O   UNL     1       1.273   9.783  19.515  0.00  0.00    +0.000 OA
ATOM     27  H   UNL     1       0.100   7.972  21.818  0.00  0.00    +0.000 HD
ATOM     28  H   UNL     1       1.359   7.651  20.679  0.00  0.00    +0.000 HD
ENDBRANCH   4  24
BRANCH   5  29
ATOM     29  N   UNL     1      -1.069  11.132  18.839  0.00  0.00    +0.000 N 
ATOM     30  H   UNL     1      -0.112  10.899  18.541  0.00  0.00    +0.000 HD
BRANCH  29  31
ATOM     31  C   UNL     1      -1.855  11.883  17.869  0.00  0.00    +0.000 C 
BRANCH  31  32
ATOM     32  C   UNL     1      -2.968  11.016  17.219  0.00  0.00    +0.000 C 
ATOM     33  C   UNL     1      -2.940   9.571  17.751  0.00  0.00    +0.000 C 
ATOM     34  C   UNL     1      -4.336  11.635  17.568  0.00  0.00    +0.000 C 
ATOM     35  C   UNL     1      -2.827  11.004  15.686  0.00  0.00    +0.000 C 
ENDBRANCH  31  32
ENDBRANCH  29  31
ENDBRANCH   5  29
TORSDOF 5
ENDMDL
MODEL 2
REMARK VINA RESULT:      -7.2      1.087      4.264
REMARK  Name = 
REMARK  11 active torsions:
REMARK  status: ('A' for Active; 'I' for Inactive)
REMARK    1  A    between atoms: C_1  and  N_2
REMARK    2  A    between atoms: N_8  and  C_9
REMARK    3  A    between atoms: C_12  and  C_13
REMARK    4  A    between atoms: C_16  and  N_17
REMARK    5  A    between atoms: N_17  and  C_18
REMARK    6  A    between atoms: C_18  and  C_19
REMARK    7  A    between atoms: C_19  and  C_20
REMARK    8  A    between atoms: C_19  and  C_21
REMARK    9  A    between atoms: C_19  and  C_22
REMARK   10  A    between atoms: C_27  and  C_28
REMARK   11  A    between atoms: C_27  and  C_29
REMARK                            x       y       z     vdW  Elec       q    Type
REMARK                         _______ _______ _______ _____ _____    ______ ____
ROOT
ATOM      1  C   UNL     1      -2.519  12.470  21.777  0.00  0.00    +0.000 A 
ATOM      2  C   UNL     1      -1.691  11.777  22.666  0.00  0.00    +0.000 A 
ATOM      3  C   UNL     1      -0.688  10.911  22.192  0.00  0.00    +0.000 A 
ATOM      4  C   UNL     1      -0.508  10.707  20.816  0.00  0.00    +0.000 A 
ATOM      5  C   UNL     1      -1.319  11.401  19.886  0.00  0.00    +0.000 A 
ATOM      6  C   UNL     1      -2.307  12.268  20.402  0.00  0.00    +0.000 A 
ENDROOT
BRANCH   1  14
ATOM      7  C   UNL     1      -1.205  16.821  25.079  0.00  0.00    +0.000 C 
ATOM      8  N   UNL     1      -2.337  16.364  24.277  0.00  0.00    +0.000 NA
ATOM      9  C   UNL     1      -3.581  16.474  25.068  0.00  0.00    +0.000 C 
ATOM     10  C   UNL     1      -4.812  16.249  24.184  0.00  0.00    +0.000 C 
ATOM     11  C   UNL     1      -4.623  15.043  23.330  0.00  0.00    +0.000 A 
ATOM     12  C   UNL     1      -5.580  14.356  22.579  0.00  0.00    +0.000 A 
ATOM     13  C   UNL     1      -4.934  13.324  21.926  0.00  0.00    +0.000 A 
ATOM     14  N   UNL     1      -3.556  13.366  22.253  0.00  0.00    +0.000 N 
ATOM     15  C   UNL     1      -3.393  14.442  23.135  0.00  0.00    +0.000 A 
ATOM     16  C   UNL     1      -2.131  14.979  23.768  0.00  0.00    +0.000 C 
ATOM     17  C   UNL     1      -5.649  12.284  21.121  0.00  0.00    +0.000 C 
ATOM     18  C   UNL     1      -7.194  12.502  20.952  0.00  0.00    +0.000 C 
ATOM     19  C   UNL     1      -7.489  12.706  19.444  0.00  0.00    +0.000 C 
ATOM     20  C   UNL     1      -7.915  11.207  21.392  0.00  0.00    +0.000 C 
ATOM     21  C   UNL     1      -7.862  13.681  21.709  0.00  0.00    +0.000 C 
ATOM     22  C   UNL     1      -6.998  14.623  22.496  0.00  0.00    +0.000 C 
ATOM     23  O   UNL     1      -7.515  15.584  23.069  0.00  0.00    +0.000 OA
ENDBRANCH   1  14
BRANCH   4  24
ATOM     24  C   UNL     1       0.586   9.803  20.326  0.00  0.00    +0.000 C 
ATOM     25  N   UNL     1       0.814   8.643  21.015  0.00  0.00    +0.000 N 
ATOM     26  O   UNL     1       1.252  10.067  19.328  0.00  0.00    +0.000 OA
ATOM     27  H   UNL     1       0.152   8.260  21.670  0.00  0.00    +0.000 HD
ATOM     28  H   UNL     1       1.473   7.999  20.587  0.00  0.00    +0.000 HD
ENDBRANCH   4  24
BRANCH   5  29
ATOM     29  N   UNL     1      -1.218  11.121  18.521  0.00  0.00    +0.000 N 
ATOM     30  H   UNL     1      -0.257  10.858  18.268  0.00  0.00    +0.000 HD
BRANCH  29  31
ATOM     31  C   UNL     1      -1.962  11.824  17.483  0.00  0.00    +0.000 C 
BRANCH  31  32
ATOM     32  C   UNL     1      -3.097  10.951  16.883  0.00  0.00    +0.000 C 
ATOM     33  C   UNL     1      -2.888  10.710  15.377  0.00  0.00    +0.000 C 
ATOM     34  C   UNL     1      -3.094   9.585  17.598  0.00  0.00    +0.000 C 
ATOM     35  C   UNL     1      -4.471  11.608  17.114  0.00  0.00    +0.000 C 
ENDBRANCH  31  32
ENDBRANCH  29  31
ENDBRANCH   5  29
TORSDOF 5
ENDMDL
MODEL 3
REMARK VINA RESULT:      -6.7      4.307      7.828
REMARK  Name = 
REMARK  11 active torsions:
REMARK  status: ('A' for Active; 'I' for Inactive)
REMARK    1  A    between atoms: C_1  and  N_2
REMARK    2  A    between atoms: N_8  and  C_9
REMARK    3  A    between atoms: C_12  and  C_13
REMARK    4  A    between atoms: C_16  and  N_17
REMARK    5  A    between atoms: N_17  and  C_18
REMARK    6  A    between atoms: C_18  and  C_19
REMARK    7  A    between atoms: C_19  and  C_20
REMARK    8  A    between atoms: C_19  and  C_21
REMARK    9  A    between atoms: C_19  and  C_22
REMARK   10  A    between atoms: C_27  and  C_28
REMARK   11  A    between atoms: C_27  and  C_29
REMARK                            x       y       z     vdW  Elec       q    Type
REMARK                         _______ _______ _______ _____ _____    ______ ____
ROOT
ATOM      1  C   UNL     1       1.401   9.353  18.856  0.00  0.00    +0.000 A 
ATOM      2  C   UNL     1       2.188   9.342  17.700  0.00  0.00    +0.000 A 
ATOM      3  C   UNL     1       3.045   8.262  17.422  0.00  0.00    +0.000 A 
ATOM      4  C   UNL     1       3.145   7.179  18.307  0.00  0.00    +0.000 A 
ATOM      5  C   UNL     1       2.354   7.149  19.480  0.00  0.00    +0.000 A 
ATOM      6  C   UNL     1       1.500   8.248  19.719  0.00  0.00    +0.000 A 
ENDROOT
BRANCH   1  14
ATOM      7  C   UNL     1       3.284  13.805  21.721  0.00  0.00    +0.000 C 
ATOM      8  N   UNL     1       2.131  13.444  20.901  0.00  0.00    +0.000 NA
ATOM      9  C   UNL     1       0.888  13.857  21.586  0.00  0.00    +0.000 C 
ATOM     10  C   UNL     1      -0.320  13.730  20.652  0.00  0.00    +0.000 C 
ATOM     11  C   UNL     1      -0.300  12.412  19.957  0.00  0.00    +0.000 A 
ATOM     12  C   UNL     1      -1.324  11.805  19.225  0.00  0.00    +0.000 A 
ATOM     13  C   UNL     1      -0.835  10.607  18.741  0.00  0.00    +0.000 A 
ATOM     14  N   UNL     1       0.512  10.461  19.154  0.00  0.00    +0.000 N 
ATOM     15  C   UNL     1       0.815  11.597  19.917  0.00  0.00    +0.000 A 
ATOM     16  C   UNL     1       2.119  11.992  20.569  0.00  0.00    +0.000 C 
ATOM     17  C   UNL     1      -1.679   9.607  18.013  0.00  0.00    +0.000 C 
ATOM     18  C   UNL     1      -3.153  10.056  17.715  0.00  0.00    +0.000 C 
ATOM     19  C   UNL     1      -3.335  10.115  16.176  0.00  0.00    +0.000 C 
ATOM     20  C   UNL     1      -4.107   8.962  18.249  0.00  0.00    +0.000 C 
ATOM     21  C   UNL     1      -3.644  11.413  18.284  0.00  0.00    +0.000 C 
ATOM     22  C   UNL     1      -2.669  12.290  19.015  0.00  0.00    +0.000 C 
ATOM     23  O   UNL     1      -3.039  13.387  19.438  0.00  0.00    +0.000 OA
ENDBRANCH   1  14
BRANCH   4  24
ATOM     24  C   UNL     1       4.041   6.019  17.980  0.00  0.00    +0.000 C 
ATOM     25  N   UNL     1       3.590   5.096  17.075  0.00  0.00    +0.000 N 
ATOM     26  O   UNL     1       5.156   5.895  18.480  0.00  0.00    +0.000 OA
ATOM     27  H   UNL     1       2.814   5.275  16.459  0.00  0.00    +0.000 HD
ATOM     28  H   UNL     1       4.266   4.397  16.785  0.00  0.00    +0.000 HD
ENDBRANCH   4  24
BRANCH   5  29
ATOM     29  N   UNL     1       2.527   6.129  20.418  0.00  0.00    +0.000 N 
ATOM     30  H   UNL     1       3.473   5.730  20.359  0.00  0.00    +0.000 HD
BRANCH  29  31
ATOM     31  C   UNL     1       1.483   5.192  20.814  0.00  0.00    +0.000 C 
BRANCH  31  32
ATOM     32  C   UNL     1       1.833   3.728  20.429  0.00  0.00    +0.000 C 
ATOM     33  C   UNL     1       3.353   3.530  20.285  0.00  0.00    +0.000 C 
ATOM     34  C   UNL     1       1.325   2.794  21.545  0.00  0.00    +0.000 C 
ATOM     35  C   UNL     1       1.134   3.327  19.116  0.00  0.00    +0.000 C 
ENDBRANCH  31  32
ENDBRANCH  29  31
ENDBRANCH   5  29
TORSDOF 5
ENDMDL
MODEL 4
REMARK VINA RESULT:      -6.7      1.336      4.160
REMARK  Name = 
REMARK  11 active torsions:
REMARK  status: ('A' for Active; 'I' for Inactive)
REMARK    1  A    between atoms: C_1  and  N_2
REMARK    2  A    between atoms: N_8  and  C_9
REMARK    3  A    between atoms: C_12  and  C_13
REMARK    4  A    between atoms: C_16  and  N_17
REMARK    5  A    between atoms: N_17  and  C_18
REMARK    6  A    between atoms: C_18  and  C_19
REMARK    7  A    between atoms: C_19  and  C_20
REMARK    8  A    between atoms: C_19  and  C_21
REMARK    9  A    between atoms: C_19  and  C_22
REMARK   10  A    between atoms: C_27  and  C_28
REMARK   11  A    between atoms: C_27  and  C_29
REMARK                            x       y       z     vdW  Elec       q    Type
REMARK                         _______ _______ _______ _____ _____    ______ ____
ROOT
ATOM      1  C   UNL     1      -2.226  12.898  21.944  0.00  0.00    +0.000 A 
ATOM      2  C   UNL     1      -1.521  12.136  22.882  0.00  0.00    +0.000 A 
ATOM      3  C   UNL     1      -0.712  11.059  22.473  0.00  0.00    +0.000 A 
ATOM      4  C   UNL     1      -0.608  10.713  21.118  0.00  0.00    +0.000 A 
ATOM      5  C   UNL     1      -1.295  11.471  20.140  0.00  0.00    +0.000 A 
ATOM      6  C   UNL     1      -2.090  12.549  20.589  0.00  0.00    +0.000 A 
ENDROOT
BRANCH   1  14
ATOM      7  C   UNL     1       0.077  17.873  23.176  0.00  0.00    +0.000 C 
ATOM      8  N   UNL     1      -1.246  17.325  22.892  0.00  0.00    +0.000 NA
ATOM      9  C   UNL     1      -2.213  17.816  23.897  0.00  0.00    +0.000 C 
ATOM     10  C   UNL     1      -3.649  17.473  23.488  0.00  0.00    +0.000 C 
ATOM     11  C   UNL     1      -3.739  16.049  23.058  0.00  0.00    +0.000 A 
ATOM     12  C   UNL     1      -4.886  15.280  22.849  0.00  0.00    +0.000 A 
ATOM     13  C   UNL     1      -4.477  14.030  22.427  0.00  0.00    +0.000 A 
ATOM     14  N   UNL     1      -3.062  14.011  22.352  0.00  0.00    +0.000 N 
ATOM     15  C   UNL     1      -2.630  15.280  22.758  0.00  0.00    +0.000 A 
ATOM     16  C   UNL     1      -1.227  15.836  22.830  0.00  0.00    +0.000 C 
ATOM     17  C   UNL     1      -5.417  12.882  22.222  0.00  0.00    +0.000 C 
ATOM     18  C   UNL     1      -6.940  13.215  22.398  0.00  0.00    +0.000 C 
ATOM     19  C   UNL     1      -7.645  12.977  21.037  0.00  0.00    +0.000 C 
ATOM     20  C   UNL     1      -7.540  12.210  23.409  0.00  0.00    +0.000 C 
ATOM     21  C   UNL     1      -7.337  14.638  22.873  0.00  0.00    +0.000 C 
ATOM     22  C   UNL     1      -6.262  15.670  23.055  0.00  0.00    +0.000 C 
ATOM     23  O   UNL     1      -6.572  16.814  23.395  0.00  0.00    +0.000 OA
ENDBRANCH   1  14
BRANCH   4  24
ATOM     24  C   UNL     1       0.284   9.581  20.696  0.00  0.00    +0.000 C 
ATOM     25  N   UNL     1       0.221   8.416  21.412  0.00  0.00    +0.000 N 
ATOM     26  O   UNL     1       1.036   9.669  19.729  0.00  0.00    +0.000 OA
ATOM     27  H   UNL     1      -0.538   8.203  22.038  0.00  0.00    +0.000 HD
ATOM     28  H   UNL     1       0.742   7.634  21.027  0.00  0.00    +0.000 HD
ENDBRANCH   4  24
BRANCH   5  29
ATOM     29  N   UNL     1      -1.283  11.068  18.803  0.00  0.00    +0.000 N 
ATOM     30  H   UNL     1      -0.384  10.633  18.557  0.00  0.00    +0.000 HD
BRANCH  29  31
ATOM     31  C   UNL     1      -1.937  11.793  17.721  0.00  0.00    +0.000 C 
BRANCH  31  32
ATOM     32  C   UNL     1      -3.101  10.980  17.090  0.00  0.00    +0.000 C 
ATOM     33  C   UNL     1      -4.458  11.671  17.316  0.00  0.00    +0.000 C 
ATOM     34  C   UNL     1      -2.856  10.874  15.572  0.00  0.00    +0.000 C 
ATOM     35  C   UNL     1      -3.146   9.553  17.668  0.00  0.00    +0.000 C 
ENDBRANCH  31  32
ENDBRANCH  29  31
ENDBRANCH   5  29
TORSDOF 5
ENDMDL
MODEL 5
REMARK VINA RESULT:      -6.7      5.278     11.493
REMARK  Name = 
REMARK  11 active torsions:
REMARK  status: ('A' for Active; 'I' for Inactive)
REMARK    1  A    between atoms: C_1  and  N_2
REMARK    2  A    between atoms: N_8  and  C_9
REMARK    3  A    between atoms: C_12  and  C_13
REMARK    4  A    between atoms: C_16  and  N_17
REMARK    5  A    between atoms: N_17  and  C_18
REMARK    6  A    between atoms: C_18  and  C_19
REMARK    7  A    between atoms: C_19  and  C_20
REMARK    8  A    between atoms: C_19  and  C_21
REMARK    9  A    between atoms: C_19  and  C_22
REMARK   10  A    between atoms: C_27  and  C_28
REMARK   11  A    between atoms: C_27  and  C_29
REMARK                            x       y       z     vdW  Elec       q    Type
REMARK                         _______ _______ _______ _____ _____    ______ ____
ROOT
ATOM      1  C   UNL     1       2.626   7.469  18.658  0.00  0.00    +0.000 A 
ATOM      2  C   UNL     1       2.512   8.149  17.440  0.00  0.00    +0.000 A 
ATOM      3  C   UNL     1       1.679   9.277  17.321  0.00  0.00    +0.000 A 
ATOM      4  C   UNL     1       0.929   9.735  18.414  0.00  0.00    +0.000 A 
ATOM      5  C   UNL     1       1.031   9.081  19.665  0.00  0.00    +0.000 A 
ATOM      6  C   UNL     1       1.883   7.958  19.747  0.00  0.00    +0.000 A 
ENDROOT
BRANCH   1  14
ATOM      7  C   UNL     1       8.103   7.821  17.456  0.00  0.00    +0.000 C 
ATOM      8  N   UNL     1       7.194   6.906  18.139  0.00  0.00    +0.000 NA
ATOM      9  C   UNL     1       7.448   5.522  17.684  0.00  0.00    +0.000 C 
ATOM     10  C   UNL     1       6.698   4.512  18.557  0.00  0.00    +0.000 C 
ATOM     11  C   UNL     1       5.285   4.943  18.749  0.00  0.00    +0.000 A 
ATOM     12  C   UNL     1       4.216   4.201  19.260  0.00  0.00    +0.000 A 
ATOM     13  C   UNL     1       3.109   5.027  19.280  0.00  0.00    +0.000 A 
ATOM     14  N   UNL     1       3.481   6.305  18.795  0.00  0.00    +0.000 N 
ATOM     15  C   UNL     1       4.841   6.221  18.465  0.00  0.00    +0.000 A 
ATOM     16  C   UNL     1       5.768   7.293  17.945  0.00  0.00    +0.000 C 
ATOM     17  C   UNL     1       1.736   4.554  19.644  0.00  0.00    +0.000 C 
ATOM     18  C   UNL     1       1.640   3.065  20.131  0.00  0.00    +0.000 C 
ATOM     19  C   UNL     1       1.143   3.072  21.600  0.00  0.00    +0.000 C 
ATOM     20  C   UNL     1       0.562   2.350  19.284  0.00  0.00    +0.000 C 
ATOM     21  C   UNL     1       2.919   2.188  20.087  0.00  0.00    +0.000 C 
ATOM     22  C   UNL     1       4.218   2.816  19.672  0.00  0.00    +0.000 C 
ATOM     23  O   UNL     1       5.246   2.137  19.671  0.00  0.00    +0.000 OA
ENDBRANCH   1  14
BRANCH   4  24
ATOM     24  C   UNL     1       0.070  10.959  18.278  0.00  0.00    +0.000 C 
ATOM     25  N   UNL     1      -1.148  10.821  17.667  0.00  0.00    +0.000 N 
ATOM     26  O   UNL     1       0.418  12.053  18.714  0.00  0.00    +0.000 OA
ATOM     27  H   UNL     1      -1.584   9.925  17.521  0.00  0.00    +0.000 HD
ATOM     28  H   UNL     1      -1.753  11.635  17.701  0.00  0.00    +0.000 HD
ENDBRANCH   4  24
BRANCH   5  29
ATOM     29  N   UNL     1       0.207   9.464  20.726  0.00  0.00    +0.000 N 
ATOM     30  H   UNL     1      -0.786   9.395  20.466  0.00  0.00    +0.000 HD
BRANCH  29  31
ATOM     31  C   UNL     1       0.528  10.525  21.672  0.00  0.00    +0.000 C 
BRANCH  31  32
ATOM     32  C   UNL     1      -0.719  11.372  22.047  0.00  0.00    +0.000 C 
ATOM     33  C   UNL     1      -1.810  11.280  20.965  0.00  0.00    +0.000 C 
ATOM     34  C   UNL     1      -1.298  10.830  23.369  0.00  0.00    +0.000 C 
ATOM     35  C   UNL     1      -0.332  12.847  22.265  0.00  0.00    +0.000 C 
ENDBRANCH  31  32
ENDBRANCH  29  31
ENDBRANCH   5  29
TORSDOF 5
ENDMDL
MODEL 6
REMARK VINA RESULT:      -6.6      2.785      4.987
REMARK  Name = 
REMARK  11 active torsions:
REMARK  status: ('A' for Active; 'I' for Inactive)
REMARK    1  A    between atoms: C_1  and  N_2
REMARK    2  A    between atoms: N_8  and  C_9
REMARK    3  A    between atoms: C_12  and  C_13
REMARK    4  A    between atoms: C_16  and  N_17
REMARK    5  A    between atoms: N_17  and  C_18
REMARK    6  A    between atoms: C_18  and  C_19
REMARK    7  A    between atoms: C_19  and  C_20
REMARK    8  A    between atoms: C_19  and  C_21
REMARK    9  A    between atoms: C_19  and  C_22
REMARK   10  A    between atoms: C_27  and  C_28
REMARK   11  A    between atoms: C_27  and  C_29
REMARK                            x       y       z     vdW  Elec       q    Type
REMARK                         _______ _______ _______ _____ _____    ______ ____
ROOT
ATOM      1  C   UNL     1      -1.858  12.863  20.328  0.00  0.00    +0.000 A 
ATOM      2  C   UNL     1      -1.374  14.165  20.495  0.00  0.00    +0.000 A 
ATOM      3  C   UNL     1       0.008  14.412  20.595  0.00  0.00    +0.000 A 
ATOM      4  C   UNL     1       0.931  13.358  20.548  0.00  0.00    +0.000 A 
ATOM      5  C   UNL     1       0.478  12.029  20.366  0.00  0.00    +0.000 A 
ATOM      6  C   UNL     1      -0.915  11.823  20.262  0.00  0.00    +0.000 A 
ENDROOT
BRANCH   1  14
ATOM      7  C   UNL     1      -4.000  10.744  15.586  0.00  0.00    +0.000 C 
ATOM      8  N   UNL     1      -4.407  10.937  16.975  0.00  0.00    +0.000 NA
ATOM      9  C   UNL     1      -5.763  11.525  17.018  0.00  0.00    +0.000 C 
ATOM     10  C   UNL     1      -6.324  11.504  18.443  0.00  0.00    +0.000 C 
ATOM     11  C   UNL     1      -5.305  12.008  19.407  0.00  0.00    +0.000 A 
ATOM     12  C   UNL     1      -5.486  12.379  20.743  0.00  0.00    +0.000 A 
ATOM     13  C   UNL     1      -4.253  12.749  21.242  0.00  0.00    +0.000 A 
ATOM     14  N   UNL     1      -3.280  12.595  20.224  0.00  0.00    +0.000 N 
ATOM     15  C   UNL     1      -3.966  12.139  19.090  0.00  0.00    +0.000 A 
ATOM     16  C   UNL     1      -3.426  11.765  17.730  0.00  0.00    +0.000 C 
ATOM     17  C   UNL     1      -4.060  13.332  22.608  0.00  0.00    +0.000 C 
ATOM     18  C   UNL     1      -5.344  13.389  23.508  0.00  0.00    +0.000 C 
ATOM     19  C   UNL     1      -5.103  12.488  24.747  0.00  0.00    +0.000 C 
ATOM     20  C   UNL     1      -5.512  14.839  24.018  0.00  0.00    +0.000 C 
ATOM     21  C   UNL     1      -6.700  12.958  22.890  0.00  0.00    +0.000 C 
ATOM     22  C   UNL     1      -6.723  12.415  21.490  0.00  0.00    +0.000 C 
ATOM     23  O   UNL     1      -7.790  12.035  21.004  0.00  0.00    +0.000 OA
ENDBRANCH   1  14
BRANCH   4  24
ATOM     24  C   UNL     1       2.404  13.641  20.625  0.00  0.00    +0.000 C 
ATOM     25  N   UNL     1       2.995  14.250  19.550  0.00  0.00    +0.000 N 
ATOM     26  O   UNL     1       3.071  13.365  21.618  0.00  0.00    +0.000 OA
ATOM     27  H   UNL     1       2.466  14.718  18.832  0.00  0.00    +0.000 HD
ATOM     28  H   UNL     1       3.959  14.539  19.683  0.00  0.00    +0.000 HD
ENDBRANCH   4  24
BRANCH   5  29
ATOM     29  N   UNL     1       1.381  10.965  20.428  0.00  0.00    +0.000 N 
ATOM     30  H   UNL     1       2.338  11.281  20.224  0.00  0.00    +0.000 HD
BRANCH  29  31
ATOM     31  C   UNL     1       1.074   9.603  20.007  0.00  0.00    +0.000 C 
BRANCH  31  32
ATOM     32  C   UNL     1       0.940   8.633  21.212  0.00  0.00    +0.000 C 
ATOM     33  C   UNL     1       1.609   9.206  22.474  0.00  0.00    +0.000 C 
ATOM     34  C   UNL     1      -0.558   8.426  21.508  0.00  0.00    +0.000 C 
ATOM     35  C   UNL     1       1.556   7.261  20.880  0.00  0.00    +0.000 C 
ENDBRANCH  31  32
ENDBRANCH  29  31
ENDBRANCH   5  29
TORSDOF 5
ENDMDL
MODEL 7
REMARK VINA RESULT:      -6.6      3.608      5.664
REMARK  Name = 
REMARK  11 active torsions:
REMARK  status: ('A' for Active; 'I' for Inactive)
REMARK    1  A    between atoms: C_1  and  N_2
REMARK    2  A    between atoms: N_8  and  C_9
REMARK    3  A    between atoms: C_12  and  C_13
REMARK    4  A    between atoms: C_16  and  N_17
REMARK    5  A    between atoms: N_17  and  C_18
REMARK    6  A    between atoms: C_18  and  C_19
REMARK    7  A    between atoms: C_19  and  C_20
REMARK    8  A    between atoms: C_19  and  C_21
REMARK    9  A    between atoms: C_19  and  C_22
REMARK   10  A    between atoms: C_27  and  C_28
REMARK   11  A    between atoms: C_27  and  C_29
REMARK                            x       y       z     vdW  Elec       q    Type
REMARK                         _______ _______ _______ _____ _____    ______ ____
ROOT
ATOM      1  C   UNL     1      -1.637  12.946  20.352  0.00  0.00    +0.000 A 
ATOM      2  C   UNL     1      -0.743  12.032  20.921  0.00  0.00    +0.000 A 
ATOM      3  C   UNL     1       0.581  12.407  21.216  0.00  0.00    +0.000 A 
ATOM      4  C   UNL     1       1.041  13.700  20.930  0.00  0.00    +0.000 A 
ATOM      5  C   UNL     1       0.162  14.656  20.367  0.00  0.00    +0.000 A 
ATOM      6  C   UNL     1      -1.161  14.243  20.093  0.00  0.00    +0.000 A 
ENDROOT
BRANCH   1  14
ATOM      7  C   UNL     1      -2.860  10.459  15.465  0.00  0.00    +0.000 C 
ATOM      8  N   UNL     1      -3.494  10.688  16.760  0.00  0.00    +0.000 NA
ATOM      9  C   UNL     1      -4.873  11.179  16.558  0.00  0.00    +0.000 C 
ATOM     10  C   UNL     1      -5.651  11.186  17.877  0.00  0.00    +0.000 C 
ATOM     11  C   UNL     1      -4.833  11.805  18.957  0.00  0.00    +0.000 A 
ATOM     12  C   UNL     1      -5.247  12.225  20.224  0.00  0.00    +0.000 A 
ATOM     13  C   UNL     1      -4.134  12.704  20.888  0.00  0.00    +0.000 A 
ATOM     14  N   UNL     1      -3.004  12.573  20.043  0.00  0.00    +0.000 N 
ATOM     15  C   UNL     1      -3.471  12.017  18.845  0.00  0.00    +0.000 A 
ATOM     16  C   UNL     1      -2.699  11.618  17.609  0.00  0.00    +0.000 C 
ATOM     17  C   UNL     1      -4.197  13.363  22.231  0.00  0.00    +0.000 C 
ATOM     18  C   UNL     1      -5.610  13.371  22.915  0.00  0.00    +0.000 C 
ATOM     19  C   UNL     1      -5.512  12.549  24.227  0.00  0.00    +0.000 C 
ATOM     20  C   UNL     1      -5.947  14.828  23.309  0.00  0.00    +0.000 C 
ATOM     21  C   UNL     1      -6.821  12.816  22.120  0.00  0.00    +0.000 C 
ATOM     22  C   UNL     1      -6.586  12.207  20.767  0.00  0.00    +0.000 C 
ATOM     23  O   UNL     1      -7.536  11.730  20.144  0.00  0.00    +0.000 OA
ENDBRANCH   1  14
BRANCH   4  24
ATOM     24  C   UNL     1       2.448  14.093  21.279  0.00  0.00    +0.000 C 
ATOM     25  N   UNL     1       3.423  13.882  20.342  0.00  0.00    +0.000 N 
ATOM     26  O   UNL     1       2.732  14.610  22.357  0.00  0.00    +0.000 OA
ATOM     27  H   UNL     1       3.216  13.704  19.373  0.00  0.00    +0.000 HD
ATOM     28  H   UNL     1       4.335  14.270  20.560  0.00  0.00    +0.000 HD
ENDBRANCH   4  24
BRANCH   5  29
ATOM     29  N   UNL     1       0.642  15.909  19.979  0.00  0.00    +0.000 N 
ATOM     30  H   UNL     1       0.298  16.646  20.608  0.00  0.00    +0.000 HD
BRANCH  29  31
ATOM     31  C   UNL     1       0.841  16.319  18.595  0.00  0.00    +0.000 C 
BRANCH  31  32
ATOM     32  C   UNL     1       0.347  17.769  18.336  0.00  0.00    +0.000 C 
ATOM     33  C   UNL     1      -1.178  17.817  18.128  0.00  0.00    +0.000 C 
ATOM     34  C   UNL     1       0.697  18.631  19.565  0.00  0.00    +0.000 C 
ATOM     35  C   UNL     1       1.054  18.376  17.110  0.00  0.00    +0.000 C 
ENDBRANCH  31  32
ENDBRANCH  29  31
ENDBRANCH   5  29
TORSDOF 5
ENDMDL
MODEL 8
REMARK VINA RESULT:      -6.6      2.000      2.576
REMARK  Name = 
REMARK  11 active torsions:
REMARK  status: ('A' for Active; 'I' for Inactive)
REMARK    1  A    between atoms: C_1  and  N_2
REMARK    2  A    between atoms: N_8  and  C_9
REMARK    3  A    between atoms: C_12  and  C_13
REMARK    4  A    between atoms: C_16  and  N_17
REMARK    5  A    between atoms: N_17  and  C_18
REMARK    6  A    between atoms: C_18  and  C_19
REMARK    7  A    between atoms: C_19  and  C_20
REMARK    8  A    between atoms: C_19  and  C_21
REMARK    9  A    between atoms: C_19  and  C_22
REMARK   10  A    between atoms: C_27  and  C_28
REMARK   11  A    between atoms: C_27  and  C_29
REMARK                            x       y       z     vdW  Elec       q    Type
REMARK                         _______ _______ _______ _____ _____    ______ ____
ROOT
ATOM      1  C   UNL     1      -1.864  12.542  22.700  0.00  0.00    +0.000 A 
ATOM      2  C   UNL     1      -1.755  11.303  23.340  0.00  0.00    +0.000 A 
ATOM      3  C   UNL     1      -0.853  10.328  22.875  0.00  0.00    +0.000 A 
ATOM      4  C   UNL     1      -0.055  10.569  21.747  0.00  0.00    +0.000 A 
ATOM      5  C   UNL     1      -0.128  11.816  21.082  0.00  0.00    +0.000 A 
ATOM      6  C   UNL     1      -1.039  12.771  21.585  0.00  0.00    +0.000 A 
ENDROOT
BRANCH   1  14
ATOM      7  C   UNL     1      -7.347  12.122  21.551  0.00  0.00    +0.000 C 
ATOM      8  N   UNL     1      -6.476  12.880  22.443  0.00  0.00    +0.000 NA
ATOM      9  C   UNL     1      -6.840  14.312  22.394  0.00  0.00    +0.000 C 
ATOM     10  C   UNL     1      -6.126  15.097  23.499  0.00  0.00    +0.000 C 
ATOM     11  C   UNL     1      -4.681  14.738  23.538  0.00  0.00    +0.000 A 
ATOM     12  C   UNL     1      -3.645  15.389  24.213  0.00  0.00    +0.000 A 
ATOM     13  C   UNL     1      -2.485  14.675  23.983  0.00  0.00    +0.000 A 
ATOM     14  N   UNL     1      -2.789  13.555  23.170  0.00  0.00    +0.000 N 
ATOM     15  C   UNL     1      -4.163  13.625  22.902  0.00  0.00    +0.000 A 
ATOM     16  C   UNL     1      -5.036  12.670  22.123  0.00  0.00    +0.000 C 
ATOM     17  C   UNL     1      -1.134  15.132  24.437  0.00  0.00    +0.000 C 
ATOM     18  C   UNL     1      -1.119  16.433  25.316  0.00  0.00    +0.000 C 
ATOM     19  C   UNL     1      -0.566  16.061  26.716  0.00  0.00    +0.000 C 
ATOM     20  C   UNL     1      -0.126  17.433  24.679  0.00  0.00    +0.000 C 
ATOM     21  C   UNL     1      -2.455  17.189  25.541  0.00  0.00    +0.000 C 
ATOM     22  C   UNL     1      -3.724  16.603  24.993  0.00  0.00    +0.000 C 
ATOM     23  O   UNL     1      -4.795  17.177  25.199  0.00  0.00    +0.000 OA
ENDBRANCH   1  14
BRANCH   4  24
ATOM     24  C   UNL     1       0.925   9.530  21.282  0.00  0.00    +0.000 C 
ATOM     25  N   UNL     1       1.691   8.904  22.228  0.00  0.00    +0.000 N 
ATOM     26  O   UNL     1       1.037   9.222  20.098  0.00  0.00    +0.000 OA
ATOM     27  H   UNL     1       1.471   8.931  23.210  0.00  0.00    +0.000 HD
ATOM     28  H   UNL     1       2.250   8.125  21.897  0.00  0.00    +0.000 HD
ENDBRANCH   4  24
BRANCH   5  29
ATOM     29  N   UNL     1       0.582  12.023  19.897  0.00  0.00    +0.000 N 
ATOM     30  H   UNL     1       0.538  11.194  19.291  0.00  0.00    +0.000 HD
BRANCH  29  31
ATOM     31  C   UNL     1       1.816  12.793  19.804  0.00  0.00    +0.000 C 
BRANCH  31  32
ATOM     32  C   UNL     1       1.574  14.224  19.251  0.00  0.00    +0.000 C 
ATOM     33  C   UNL     1       0.209  14.333  18.546  0.00  0.00    +0.000 C 
ATOM     34  C   UNL     1       1.590  15.214  20.433  0.00  0.00    +0.000 C 
ATOM     35  C   UNL     1       2.693  14.629  18.274  0.00  0.00    +0.000 C 
ENDBRANCH  31  32
ENDBRANCH  29  31
ENDBRANCH   5  29
TORSDOF 5
ENDMDL
MODEL 9
REMARK VINA RESULT:      -6.5      3.612      5.464
REMARK  Name = 
REMARK  11 active torsions:
REMARK  status: ('A' for Active; 'I' for Inactive)
REMARK    1  A    between atoms: C_1  and  N_2
REMARK    2  A    between atoms: N_8  and  C_9
REMARK    3  A    between atoms: C_12  and  C_13
REMARK    4  A    between atoms: C_16  and  N_17
REMARK    5  A    between atoms: N_17  and  C_18
REMARK    6  A    between atoms: C_18  and  C_19
REMARK    7  A    between atoms: C_19  and  C_20
REMARK    8  A    between atoms: C_19  and  C_21
REMARK    9  A    between atoms: C_19  and  C_22
REMARK   10  A    between atoms: C_27  and  C_28
REMARK   11  A    between atoms: C_27  and  C_29
REMARK                            x       y       z     vdW  Elec       q    Type
REMARK                         _______ _______ _______ _____ _____    ______ ____
ROOT
ATOM      1  C   UNL     1      -1.240  12.907  20.207  0.00  0.00    +0.000 A 
ATOM      2  C   UNL     1      -0.315  11.942  20.623  0.00  0.00    +0.000 A 
ATOM      3  C   UNL     1       1.049  12.261  20.753  0.00  0.00    +0.000 A 
ATOM      4  C   UNL     1       1.518  13.548  20.453  0.00  0.00    +0.000 A 
ATOM      5  C   UNL     1       0.609  14.554  20.043  0.00  0.00    +0.000 A 
ATOM      6  C   UNL     1      -0.753  14.196  19.932  0.00  0.00    +0.000 A 
ENDROOT
BRANCH   1  14
ATOM      7  C   UNL     1      -3.171  10.589  15.468  0.00  0.00    +0.000 C 
ATOM      8  N   UNL     1      -3.626  10.808  16.838  0.00  0.00    +0.000 NA
ATOM      9  C   UNL     1      -4.999  11.354  16.823  0.00  0.00    +0.000 C 
ATOM     10  C   UNL     1      -5.602  11.356  18.231  0.00  0.00    +0.000 C 
ATOM     11  C   UNL     1      -4.629  11.918  19.210  0.00  0.00    +0.000 A 
ATOM     12  C   UNL     1      -4.862  12.321  20.528  0.00  0.00    +0.000 A 
ATOM     13  C   UNL     1      -3.656  12.743  21.053  0.00  0.00    +0.000 A 
ATOM     14  N   UNL     1      -2.649  12.591  20.068  0.00  0.00    +0.000 N 
ATOM     15  C   UNL     1      -3.286  12.083  18.929  0.00  0.00    +0.000 A 
ATOM     16  C   UNL     1      -2.693  11.688  17.597  0.00  0.00    +0.000 C 
ATOM     17  C   UNL     1      -3.522  13.370  22.406  0.00  0.00    +0.000 C 
ATOM     18  C   UNL     1      -4.835  13.412  23.266  0.00  0.00    +0.000 C 
ATOM     19  C   UNL     1      -4.604  12.554  24.537  0.00  0.00    +0.000 C 
ATOM     20  C   UNL     1      -5.062  14.870  23.728  0.00  0.00    +0.000 C 
ATOM     21  C   UNL     1      -6.158  12.921  22.621  0.00  0.00    +0.000 C 
ATOM     22  C   UNL     1      -6.121  12.339  21.237  0.00  0.00    +0.000 C 
ATOM     23  O   UNL     1      -7.161  11.912  20.731  0.00  0.00    +0.000 OA
ENDBRANCH   1  14
BRANCH   4  24
ATOM     24  C   UNL     1       2.971  13.881  20.627  0.00  0.00    +0.000 C 
ATOM     25  N   UNL     1       3.485  13.860  21.897  0.00  0.00    +0.000 N 
ATOM     26  O   UNL     1       3.700  14.144  19.674  0.00  0.00    +0.000 OA
ATOM     27  H   UNL     1       3.012  13.415  22.667  0.00  0.00    +0.000 HD
ATOM     28  H   UNL     1       4.492  13.967  21.966  0.00  0.00    +0.000 HD
ENDBRANCH   4  24
BRANCH   5  29
ATOM     29  N   UNL     1       1.082  15.804  19.638  0.00  0.00    +0.000 N 
ATOM     30  H   UNL     1       0.905  16.516  20.359  0.00  0.00    +0.000 HD
BRANCH  29  31
ATOM     31  C   UNL     1       1.045  16.290  18.265  0.00  0.00    +0.000 C 
BRANCH  31  32
ATOM     32  C   UNL     1       0.457  17.724  18.166  0.00  0.00    +0.000 C 
ATOM     33  C   UNL     1       0.989  18.630  19.292  0.00  0.00    +0.000 C 
ATOM     34  C   UNL     1       0.878  18.333  16.814  0.00  0.00    +0.000 C 
ATOM     35  C   UNL     1      -1.082  17.689  18.216  0.00  0.00    +0.000 C 
ENDBRANCH  31  32
ENDBRANCH  29  31
ENDBRANCH   5  29
TORSDOF 5
ENDMDL
