MODEL 1
REMARK VINA RESULT:      -7.0      0.000      0.000
REMARK  Name = 
REMARK  2 active torsions:
REMARK  status: ('A' for Active; 'I' for Inactive)
REMARK    1  A    between atoms: C_1  and  C_2
REMARK    2  A    between atoms: C_5  and  C_6
REMARK                            x       y       z     vdW  Elec       q    Type
REMARK                         _______ _______ _______ _____ _____    ______ ____
ROOT
ATOM      1  C   UNL     1       0.455   2.270  18.748  0.00  0.00    +0.000 C 
ATOM      2  C   UNL     1       1.794   2.921  18.575  0.00  0.00    +0.000 A 
ATOM      3  C   UNL     1       1.941   4.088  17.818  0.00  0.00    +0.000 A 
ATOM      4  C   UNL     1       3.199   4.680  17.661  0.00  0.00    +0.000 A 
ATOM      5  C   UNL     1       4.334   4.110  18.254  0.00  0.00    +0.000 A 
ATOM      6  C   UNL     1       4.179   2.939  19.010  0.00  0.00    +0.000 A 
ATOM      7  C   UNL     1       2.924   2.351  19.170  0.00  0.00    +0.000 A 
ENDROOT
BRANCH   5   8
ATOM      8  C   UNL     1       5.696   4.757  18.090  0.00  0.00    +0.000 C 
ATOM      9  C   UNL     1       5.593   6.120  17.398  0.00  0.00    +0.000 C 
ATOM     10  C   UNL     1       6.916   6.813  17.470  0.00  0.00    +0.000 C 
ATOM     11  C   UNL     1       7.789   6.520  18.440  0.00  0.00    +0.000 C 
ATOM     12  C   UNL     1       7.463   5.570  19.517  0.00  0.00    +0.000 C 
ATOM     13  O   UNL     1       8.191   5.469  20.497  0.00  0.00    +0.000 OA
ATOM     14  O   UNL     1       6.314   4.869  19.390  0.00  0.00    +0.000 OA
ENDBRANCH   5   8
TORSDOF 1
ENDMDL
MODEL 2
REMARK VINA RESULT:      -6.8      2.138      5.528
REMARK  Name = 
REMARK  2 active torsions:
REMARK  status: ('A' for Active; 'I' for Inactive)
REMARK    1  A    between atoms: C_1  and  C_2
REMARK    2  A    between atoms: C_5  and  C_6
REMARK                            x       y       z     vdW  Elec       q    Type
REMARK                         _______ _______ _______ _____ _____    ______ ____
ROOT
ATOM      1  C   UNL     1       7.616   7.174  17.256  0.00  0.00    +0.000 C 
ATOM      2  C   UNL     1       6.357   6.533  17.757  0.00  0.00    +0.000 A 
ATOM      3  C   UNL     1       6.386   5.574  18.776  0.00  0.00    +0.000 A 
ATOM      4  C   UNL     1       5.202   4.981  19.227  0.00  0.00    +0.000 A 
ATOM      5  C   UNL     1       3.968   5.332  18.663  0.00  0.00    +0.000 A 
ATOM      6  C   UNL     1       3.947   6.293  17.641  0.00  0.00    +0.000 A 
ATOM      7  C   UNL     1       5.127   6.886  17.193  0.00  0.00    +0.000 A 
ENDROOT
BRANCH   5   8
ATOM      8  C   UNL     1       2.685   4.694  19.158  0.00  0.00    +0.000 C 
ATOM      9  C   UNL     1       2.143   3.666  18.159  0.00  0.00    +0.000 C 
ATOM     10  C   UNL     1       1.021   2.906  18.791  0.00  0.00    +0.000 C 
ATOM     11  C   UNL     1       0.940   2.784  20.121  0.00  0.00    +0.000 C 
ATOM     12  C   UNL     1       1.982   3.320  21.014  0.00  0.00    +0.000 C 
ATOM     13  O   UNL     1       1.992   3.025  22.202  0.00  0.00    +0.000 OA
ATOM     14  O   UNL     1       2.934   4.095  20.449  0.00  0.00    +0.000 OA
ENDBRANCH   5   8
TORSDOF 1
ENDMDL
MODEL 3
REMARK VINA RESULT:      -6.8      2.158      5.390
REMARK  Name = 
REMARK  2 active torsions:
REMARK  status: ('A' for Active; 'I' for Inactive)
REMARK    1  A    between atoms: C_1  and  C_2
REMARK    2  A    between atoms: C_5  and  C_6
REMARK                            x       y       z     vdW  Elec       q    Type
REMARK                         _______ _______ _______ _____ _____    ______ ____
ROOT
ATOM      1  C   UNL     1       7.612   7.129  17.294  0.00  0.00    +0.000 C 
ATOM      2  C   UNL     1       6.330   6.515  17.770  0.00  0.00    +0.000 A 
ATOM      3  C   UNL     1       5.098   6.887  17.220  0.00  0.00    +0.000 A 
ATOM      4  C   UNL     1       3.910   6.309  17.681  0.00  0.00    +0.000 A 
ATOM      5  C   UNL     1       3.933   5.351  18.704  0.00  0.00    +0.000 A 
ATOM      6  C   UNL     1       5.171   4.983  19.250  0.00  0.00    +0.000 A 
ATOM      7  C   UNL     1       6.356   5.558  18.789  0.00  0.00    +0.000 A 
ENDROOT
BRANCH   5   8
ATOM      8  C   UNL     1       2.645   4.719  19.196  0.00  0.00    +0.000 C 
ATOM      9  C   UNL     1       2.072   3.735  18.171  0.00  0.00    +0.000 C 
ATOM     10  C   UNL     1       0.945   2.974  18.792  0.00  0.00    +0.000 C 
ATOM     11  C   UNL     1       0.880   2.809  20.118  0.00  0.00    +0.000 C 
ATOM     12  C   UNL     1       1.942   3.296  21.014  0.00  0.00    +0.000 C 
ATOM     13  O   UNL     1       1.963   2.962  22.191  0.00  0.00    +0.000 OA
ATOM     14  O   UNL     1       2.901   4.074  20.462  0.00  0.00    +0.000 OA
ENDBRANCH   5   8
TORSDOF 1
ENDMDL
MODEL 4
REMARK VINA RESULT:      -6.8      2.514      5.114
REMARK  Name = 
REMARK  2 active torsions:
REMARK  status: ('A' for Active; 'I' for Inactive)
REMARK    1  A    between atoms: C_1  and  C_2
REMARK    2  A    between atoms: C_5  and  C_6
REMARK                            x       y       z     vdW  Elec       q    Type
REMARK                         _______ _______ _______ _____ _____    ______ ____
ROOT
ATOM      1  C   UNL     1       6.706   5.256  14.690  0.00  0.00    +0.000 C 
ATOM      2  C   UNL     1       5.678   5.019  15.755  0.00  0.00    +0.000 A 
ATOM      3  C   UNL     1       5.037   6.084  16.395  0.00  0.00    +0.000 A 
ATOM      4  C   UNL     1       4.084   5.845  17.392  0.00  0.00    +0.000 A 
ATOM      5  C   UNL     1       3.761   4.535  17.770  0.00  0.00    +0.000 A 
ATOM      6  C   UNL     1       4.409   3.472  17.124  0.00  0.00    +0.000 A 
ATOM      7  C   UNL     1       5.356   3.710  16.128  0.00  0.00    +0.000 A 
ENDROOT
BRANCH   5   8
ATOM      8  C   UNL     1       2.722   4.278  18.844  0.00  0.00    +0.000 C 
ATOM      9  C   UNL     1       1.470   3.606  18.270  0.00  0.00    +0.000 C 
ATOM     10  C   UNL     1       0.585   3.166  19.392  0.00  0.00    +0.000 C 
ATOM     11  C   UNL     1       1.092   2.911  20.603  0.00  0.00    +0.000 C 
ATOM     12  C   UNL     1       2.540   2.974  20.868  0.00  0.00    +0.000 C 
ATOM     13  O   UNL     1       2.998   2.546  21.919  0.00  0.00    +0.000 OA
ATOM     14  O   UNL     1       3.321   3.474  19.884  0.00  0.00    +0.000 OA
ENDBRANCH   5   8
TORSDOF 1
ENDMDL
MODEL 5
REMARK VINA RESULT:      -6.7      3.885      4.828
REMARK  Name = 
REMARK  2 active torsions:
REMARK  status: ('A' for Active; 'I' for Inactive)
REMARK    1  A    between atoms: C_1  and  C_2
REMARK    2  A    between atoms: C_5  and  C_6
REMARK                            x       y       z     vdW  Elec       q    Type
REMARK                         _______ _______ _______ _____ _____    ______ ____
ROOT
ATOM      1  C   UNL     1       3.033   5.906  19.301  0.00  0.00    +0.000 C 
ATOM      2  C   UNL     1       3.839   5.460  18.119  0.00  0.00    +0.000 A 
ATOM      3  C   UNL     1       3.859   4.120  17.717  0.00  0.00    +0.000 A 
ATOM      4  C   UNL     1       4.623   3.720  16.616  0.00  0.00    +0.000 A 
ATOM      5  C   UNL     1       5.386   4.652  15.899  0.00  0.00    +0.000 A 
ATOM      6  C   UNL     1       5.362   5.993  16.309  0.00  0.00    +0.000 A 
ATOM      7  C   UNL     1       4.598   6.393  17.405  0.00  0.00    +0.000 A 
ENDROOT
BRANCH   5   8
ATOM      8  C   UNL     1       6.207   4.218  14.701  0.00  0.00    +0.000 C 
ATOM      9  C   UNL     1       5.315   3.763  13.541  0.00  0.00    +0.000 C 
ATOM     10  C   UNL     1       6.153   3.570  12.318  0.00  0.00    +0.000 C 
ATOM     11  C   UNL     1       7.309   4.226  12.171  0.00  0.00    +0.000 C 
ATOM     12  C   UNL     1       7.771   5.217  13.158  0.00  0.00    +0.000 C 
ATOM     13  O   UNL     1       8.722   5.947  12.908  0.00  0.00    +0.000 OA
ATOM     14  O   UNL     1       7.067   5.310  14.309  0.00  0.00    +0.000 OA
ENDBRANCH   5   8
TORSDOF 1
ENDMDL
MODEL 6
REMARK VINA RESULT:      -6.7      0.544      1.216
REMARK  Name = 
REMARK  2 active torsions:
REMARK  status: ('A' for Active; 'I' for Inactive)
REMARK    1  A    between atoms: C_1  and  C_2
REMARK    2  A    between atoms: C_5  and  C_6
REMARK                            x       y       z     vdW  Elec       q    Type
REMARK                         _______ _______ _______ _____ _____    ______ ____
ROOT
ATOM      1  C   UNL     1       0.660   2.232  18.803  0.00  0.00    +0.000 C 
ATOM      2  C   UNL     1       1.980   2.912  18.602  0.00  0.00    +0.000 A 
ATOM      3  C   UNL     1       2.866   3.108  19.667  0.00  0.00    +0.000 A 
ATOM      4  C   UNL     1       4.092   3.750  19.462  0.00  0.00    +0.000 A 
ATOM      5  C   UNL     1       4.451   4.214  18.189  0.00  0.00    +0.000 A 
ATOM      6  C   UNL     1       3.557   4.015  17.127  0.00  0.00    +0.000 A 
ATOM      7  C   UNL     1       2.336   3.371  17.330  0.00  0.00    +0.000 A 
ENDROOT
BRANCH   5   8
ATOM      8  C   UNL     1       5.783   4.903  17.967  0.00  0.00    +0.000 C 
ATOM      9  C   UNL     1       5.600   6.337  17.458  0.00  0.00    +0.000 C 
ATOM     10  C   UNL     1       6.918   7.042  17.479  0.00  0.00    +0.000 C 
ATOM     11  C   UNL     1       7.888   6.654  18.315  0.00  0.00    +0.000 C 
ATOM     12  C   UNL     1       7.681   5.576  19.297  0.00  0.00    +0.000 C 
ATOM     13  O   UNL     1       8.506   5.375  20.180  0.00  0.00    +0.000 OA
ATOM     14  O   UNL     1       6.531   4.873  19.203  0.00  0.00    +0.000 OA
ENDBRANCH   5   8
TORSDOF 1
ENDMDL
MODEL 7
REMARK VINA RESULT:      -6.7      1.918      2.475
REMARK  Name = 
REMARK  2 active torsions:
REMARK  status: ('A' for Active; 'I' for Inactive)
REMARK    1  A    between atoms: C_1  and  C_2
REMARK    2  A    between atoms: C_5  and  C_6
REMARK                            x       y       z     vdW  Elec       q    Type
REMARK                         _______ _______ _______ _____ _____    ______ ____
ROOT
ATOM      1  C   UNL     1       1.243   2.547  21.781  0.00  0.00    +0.000 C 
ATOM      2  C   UNL     1       2.117   2.993  20.647  0.00  0.00    +0.000 A 
ATOM      3  C   UNL     1       3.468   2.636  20.587  0.00  0.00    +0.000 A 
ATOM      4  C   UNL     1       4.270   3.067  19.525  0.00  0.00    +0.000 A 
ATOM      5  C   UNL     1       3.736   3.868  18.507  0.00  0.00    +0.000 A 
ATOM      6  C   UNL     1       2.381   4.223  18.574  0.00  0.00    +0.000 A 
ATOM      7  C   UNL     1       1.580   3.791  19.632  0.00  0.00    +0.000 A 
ENDROOT
BRANCH   5   8
ATOM      8  C   UNL     1       4.605   4.328  17.352  0.00  0.00    +0.000 C 
ATOM      9  C   UNL     1       4.330   5.790  16.986  0.00  0.00    +0.000 C 
ATOM     10  C   UNL     1       5.363   6.259  16.011  0.00  0.00    +0.000 C 
ATOM     11  C   UNL     1       6.568   5.679  15.960  0.00  0.00    +0.000 C 
ATOM     12  C   UNL     1       6.959   4.616  16.901  0.00  0.00    +0.000 C 
ATOM     13  O   UNL     1       8.123   4.242  16.967  0.00  0.00    +0.000 OA
ATOM     14  O   UNL     1       5.990   4.123  17.706  0.00  0.00    +0.000 OA
ENDBRANCH   5   8
TORSDOF 1
ENDMDL
MODEL 8
REMARK VINA RESULT:      -6.7      2.268      5.156
REMARK  Name = 
REMARK  2 active torsions:
REMARK  status: ('A' for Active; 'I' for Inactive)
REMARK    1  A    between atoms: C_1  and  C_2
REMARK    2  A    between atoms: C_5  and  C_6
REMARK                            x       y       z     vdW  Elec       q    Type
REMARK                         _______ _______ _______ _____ _____    ______ ____
ROOT
ATOM      1  C   UNL     1       7.001   5.084  15.020  0.00  0.00    +0.000 C 
ATOM      2  C   UNL     1       5.952   4.885  16.072  0.00  0.00    +0.000 A 
ATOM      3  C   UNL     1       5.068   3.802  16.021  0.00  0.00    +0.000 A 
ATOM      4  C   UNL     1       4.091   3.634  17.008  0.00  0.00    +0.000 A 
ATOM      5  C   UNL     1       3.976   4.552  18.061  0.00  0.00    +0.000 A 
ATOM      6  C   UNL     1       4.865   5.636  18.105  0.00  0.00    +0.000 A 
ATOM      7  C   UNL     1       5.841   5.801  17.122  0.00  0.00    +0.000 A 
ENDROOT
BRANCH   5   8
ATOM      8  C   UNL     1       2.922   4.365  19.134  0.00  0.00    +0.000 C 
ATOM      9  C   UNL     1       1.579   3.932  18.537  0.00  0.00    +0.000 C 
ATOM     10  C   UNL     1       0.650   3.538  19.640  0.00  0.00    +0.000 C 
ATOM     11  C   UNL     1       1.125   3.116  20.817  0.00  0.00    +0.000 C 
ATOM     12  C   UNL     1       2.569   2.946  21.054  0.00  0.00    +0.000 C 
ATOM     13  O   UNL     1       2.969   2.372  22.059  0.00  0.00    +0.000 OA
ATOM     14  O   UNL     1       3.406   3.403  20.096  0.00  0.00    +0.000 OA
ENDBRANCH   5   8
TORSDOF 1
ENDMDL
MODEL 9
REMARK VINA RESULT:      -6.6      3.913      4.786
REMARK  Name = 
REMARK  2 active torsions:
REMARK  status: ('A' for Active; 'I' for Inactive)
REMARK    1  A    between atoms: C_1  and  C_2
REMARK    2  A    between atoms: C_5  and  C_6
REMARK                            x       y       z     vdW  Elec       q    Type
REMARK                         _______ _______ _______ _____ _____    ______ ____
ROOT
ATOM      1  C   UNL     1       3.193   6.205  19.257  0.00  0.00    +0.000 C 
ATOM      2  C   UNL     1       4.007   5.748  18.085  0.00  0.00    +0.000 A 
ATOM      3  C   UNL     1       4.417   6.643  17.091  0.00  0.00    +0.000 A 
ATOM      4  C   UNL     1       5.171   6.198  16.000  0.00  0.00    +0.000 A 
ATOM      5  C   UNL     1       5.525   4.847  15.881  0.00  0.00    +0.000 A 
ATOM      6  C   UNL     1       5.110   3.955  16.881  0.00  0.00    +0.000 A 
ATOM      7  C   UNL     1       4.360   4.399  17.970  0.00  0.00    +0.000 A 
ENDROOT
BRANCH   5   8
ATOM      8  C   UNL     1       6.350   4.368  14.702  0.00  0.00    +0.000 C 
ATOM      9  C   UNL     1       5.462   3.873  13.556  0.00  0.00    +0.000 C 
ATOM     10  C   UNL     1       6.305   3.634  12.344  0.00  0.00    +0.000 C 
ATOM     11  C   UNL     1       7.463   4.282  12.178  0.00  0.00    +0.000 C 
ATOM     12  C   UNL     1       7.922   5.308  13.131  0.00  0.00    +0.000 C 
ATOM     13  O   UNL     1       8.876   6.025  12.859  0.00  0.00    +0.000 OA
ATOM     14  O   UNL     1       7.214   5.443  14.275  0.00  0.00    +0.000 OA
ENDBRANCH   5   8
TORSDOF 1
ENDMDL
