MODEL 1
REMARK VINA RESULT:      -7.6      0.000      0.000
REMARK  Name = 
REMARK  8 active torsions:
REMARK  status: ('A' for Active; 'I' for Inactive)
REMARK    1  A    between atoms: C_1  and  C_2
REMARK    2  A    between atoms: C_2  and  C_3
REMARK    3  A    between atoms: C_2  and  C_4
REMARK    4  A    between atoms: C_2  and  C_6
REMARK    5  A    between atoms: C_4  and  O_5
REMARK    6  A    between atoms: C_6  and  N_7
REMARK    7  A    between atoms: C_12  and  C_13
REMARK    8  A    between atoms: C_14  and  C_15
REMARK                            x       y       z     vdW  Elec       q    Type
REMARK                         _______ _______ _______ _____ _____    ______ ____
ROOT
ATOM      1  C   UNL     1       6.279   5.030  16.051  0.00  0.00    +0.000 A 
ATOM      2  C   UNL     1       5.044   4.366  16.010  0.00  0.00    +0.000 A 
ATOM      3  N   UNL     1       4.786   3.846  14.755  0.00  0.00    +0.000 NA
ATOM      4  C   UNL     1       5.819   4.203  14.036  0.00  0.00    +0.000 A 
ATOM      5  C   UNL     1       6.050   3.957  12.638  0.00  0.00    +0.000 A 
ATOM      6  N   UNL     1       7.126   4.387  12.030  0.00  0.00    +0.000 NA
ATOM      7  C   UNL     1       8.059   5.061  12.793  0.00  0.00    +0.000 A 
ATOM      8  C   UNL     1       7.924   5.307  14.109  0.00  0.00    +0.000 A 
ATOM      9  N   UNL     1       6.761   4.896  14.754  0.00  0.00    +0.000 N 
ENDROOT
BRANCH   1  15
ATOM     10  N   UNL     1       8.048   9.054  17.688  0.00  0.00    +0.000 N 
ATOM     11  C   UNL     1       7.789   7.711  17.944  0.00  0.00    +0.000 A 
ATOM     12  N   UNL     1       8.279   7.136  19.047  0.00  0.00    +0.000 NA
ATOM     13  C   UNL     1       8.148   5.807  19.159  0.00  0.00    +0.000 A 
ATOM     14  C   UNL     1       7.531   5.031  18.213  0.00  0.00    +0.000 A 
ATOM     15  C   UNL     1       6.986   5.706  17.146  0.00  0.00    +0.000 A 
ATOM     16  N   UNL     1       7.125   7.040  16.997  0.00  0.00    +0.000 NA
ATOM     17  H   UNL     1       8.206   9.126  16.688  0.00  0.00    +0.000 HD
BRANCH  10  18
ATOM     18  C   UNL     1       9.009   9.677  18.586  0.00  0.00    +0.000 C 
BRANCH  18  20
ATOM     19  C   UNL     1      10.501  11.453  17.652  0.00  0.00    +0.000 C 
ATOM     20  C   UNL     1       9.151  11.203  18.361  0.00  0.00    +0.000 C 
ATOM     21  C   UNL     1       9.174  11.951  19.706  0.00  0.00    +0.000 C 
BRANCH  20  22
ATOM     22  C   UNL     1       8.006  11.713  17.461  0.00  0.00    +0.000 C 
BRANCH  22  23
ATOM     23  O   UNL     1       8.196  13.068  17.066  0.00  0.00    +0.000 OA
ATOM     24  H   UNL     1       8.416  13.579  17.863  0.00  0.00    +0.000 HD
ENDBRANCH  22  23
ENDBRANCH  20  22
ENDBRANCH  18  20
ENDBRANCH  10  18
ENDBRANCH   1  15
BRANCH   2  25
ATOM     25  C   UNL     1       4.086   4.196  17.100  0.00  0.00    +0.000 A 
ATOM     26  C   UNL     1       3.368   5.279  17.632  0.00  0.00    +0.000 A 
ATOM     27  C   UNL     1       2.515   5.108  18.722  0.00  0.00    +0.000 A 
ATOM     28  C   UNL     1       2.332   3.838  19.252  0.00  0.00    +0.000 A 
ATOM     29  F   UNL     1       1.517   3.676  20.302  0.00  0.00    +0.000 F 
ATOM     30  C   UNL     1       2.978   2.738  18.704  0.00  0.00    +0.000 A 
ATOM     31  C   UNL     1       3.855   2.915  17.629  0.00  0.00    +0.000 A 
ENDBRANCH   2  25
TORSDOF 6
ENDMDL
MODEL 2
REMARK VINA RESULT:      -7.6      0.861      1.186
REMARK  Name = 
REMARK  8 active torsions:
REMARK  status: ('A' for Active; 'I' for Inactive)
REMARK    1  A    between atoms: C_1  and  C_2
REMARK    2  A    between atoms: C_2  and  C_3
REMARK    3  A    between atoms: C_2  and  C_4
REMARK    4  A    between atoms: C_2  and  C_6
REMARK    5  A    between atoms: C_4  and  O_5
REMARK    6  A    between atoms: C_6  and  N_7
REMARK    7  A    between atoms: C_12  and  C_13
REMARK    8  A    between atoms: C_14  and  C_15
REMARK                            x       y       z     vdW  Elec       q    Type
REMARK                         _______ _______ _______ _____ _____    ______ ____
ROOT
ATOM      1  C   UNL     1       6.283   4.996  16.058  0.00  0.00    +0.000 A 
ATOM      2  C   UNL     1       5.041   4.346  15.996  0.00  0.00    +0.000 A 
ATOM      3  N   UNL     1       4.784   3.856  14.730  0.00  0.00    +0.000 NA
ATOM      4  C   UNL     1       5.824   4.216  14.023  0.00  0.00    +0.000 A 
ATOM      5  C   UNL     1       6.059   3.997  12.622  0.00  0.00    +0.000 A 
ATOM      6  N   UNL     1       7.143   4.427  12.029  0.00  0.00    +0.000 NA
ATOM      7  C   UNL     1       8.080   5.075  12.809  0.00  0.00    +0.000 A 
ATOM      8  C   UNL     1       7.940   5.295  14.130  0.00  0.00    +0.000 A 
ATOM      9  N   UNL     1       6.770   4.884  14.761  0.00  0.00    +0.000 N 
ENDROOT
BRANCH   1  15
ATOM     10  N   UNL     1       8.110   8.959  17.775  0.00  0.00    +0.000 N 
ATOM     11  C   UNL     1       7.824   7.618  18.007  0.00  0.00    +0.000 A 
ATOM     12  N   UNL     1       8.292   7.016  19.105  0.00  0.00    +0.000 NA
ATOM     13  C   UNL     1       8.135   5.688  19.195  0.00  0.00    +0.000 A 
ATOM     14  C   UNL     1       7.513   4.939  18.231  0.00  0.00    +0.000 A 
ATOM     15  C   UNL     1       6.991   5.641  17.170  0.00  0.00    +0.000 A 
ATOM     16  N   UNL     1       7.156   6.974  17.044  0.00  0.00    +0.000 NA
ATOM     17  H   UNL     1       8.280   9.044  16.779  0.00  0.00    +0.000 HD
BRANCH  10  18
ATOM     18  C   UNL     1       9.074   9.550  18.692  0.00  0.00    +0.000 C 
BRANCH  18  20
ATOM     19  C   UNL     1       8.068  11.580  17.633  0.00  0.00    +0.000 C 
ATOM     20  C   UNL     1       9.255  11.075  18.486  0.00  0.00    +0.000 C 
ATOM     21  C   UNL     1      10.553  11.370  17.715  0.00  0.00    +0.000 C 
BRANCH  20  22
ATOM     22  C   UNL     1       9.240  11.798  19.848  0.00  0.00    +0.000 C 
BRANCH  22  23
ATOM     23  O   UNL     1       9.434  10.899  20.935  0.00  0.00    +0.000 OA
ATOM     24  H   UNL     1       9.699  11.424  21.709  0.00  0.00    +0.000 HD
ENDBRANCH  22  23
ENDBRANCH  20  22
ENDBRANCH  18  20
ENDBRANCH  10  18
ENDBRANCH   1  15
BRANCH   2  25
ATOM     25  C   UNL     1       4.075   4.164  17.078  0.00  0.00    +0.000 A 
ATOM     26  C   UNL     1       3.342   5.238  17.606  0.00  0.00    +0.000 A 
ATOM     27  C   UNL     1       2.481   5.055  18.689  0.00  0.00    +0.000 A 
ATOM     28  C   UNL     1       2.308   3.783  19.215  0.00  0.00    +0.000 A 
ATOM     29  F   UNL     1       1.485   3.610  20.258  0.00  0.00    +0.000 F 
ATOM     30  C   UNL     1       2.970   2.690  18.671  0.00  0.00    +0.000 A 
ATOM     31  C   UNL     1       3.854   2.879  17.604  0.00  0.00    +0.000 A 
ENDBRANCH   2  25
TORSDOF 6
ENDMDL
MODEL 3
REMARK VINA RESULT:      -7.5      0.688      1.388
REMARK  Name = 
REMARK  8 active torsions:
REMARK  status: ('A' for Active; 'I' for Inactive)
REMARK    1  A    between atoms: C_1  and  C_2
REMARK    2  A    between atoms: C_2  and  C_3
REMARK    3  A    between atoms: C_2  and  C_4
REMARK    4  A    between atoms: C_2  and  C_6
REMARK    5  A    between atoms: C_4  and  O_5
REMARK    6  A    between atoms: C_6  and  N_7
REMARK    7  A    between atoms: C_12  and  C_13
REMARK    8  A    between atoms: C_14  and  C_15
REMARK                            x       y       z     vdW  Elec       q    Type
REMARK                         _______ _______ _______ _____ _____    ______ ____
ROOT
ATOM      1  C   UNL     1       6.295   5.040  16.027  0.00  0.00    +0.000 A 
ATOM      2  C   UNL     1       5.059   4.378  15.970  0.00  0.00    +0.000 A 
ATOM      3  N   UNL     1       4.813   3.864  14.711  0.00  0.00    +0.000 NA
ATOM      4  C   UNL     1       5.855   4.221  14.004  0.00  0.00    +0.000 A 
ATOM      5  C   UNL     1       6.100   3.980  12.608  0.00  0.00    +0.000 A 
ATOM      6  N   UNL     1       7.184   4.409  12.013  0.00  0.00    +0.000 NA
ATOM      7  C   UNL     1       8.110   5.079  12.787  0.00  0.00    +0.000 A 
ATOM      8  C   UNL     1       7.961   5.321  14.103  0.00  0.00    +0.000 A 
ATOM      9  N   UNL     1       6.790   4.910  14.735  0.00  0.00    +0.000 N 
ENDROOT
BRANCH   1  15
ATOM     10  N   UNL     1       8.048   9.056  17.700  0.00  0.00    +0.000 N 
ATOM     11  C   UNL     1       7.787   7.712  17.947  0.00  0.00    +0.000 A 
ATOM     12  N   UNL     1       8.266   7.132  19.051  0.00  0.00    +0.000 NA
ATOM     13  C   UNL     1       8.134   5.802  19.155  0.00  0.00    +0.000 A 
ATOM     14  C   UNL     1       7.527   5.031  18.200  0.00  0.00    +0.000 A 
ATOM     15  C   UNL     1       6.991   5.711  17.131  0.00  0.00    +0.000 A 
ATOM     16  N   UNL     1       7.132   7.045  16.990  0.00  0.00    +0.000 NA
ATOM     17  H   UNL     1       8.216   9.133  16.702  0.00  0.00    +0.000 HD
BRANCH  10  18
ATOM     18  C   UNL     1       9.001   9.675  18.609  0.00  0.00    +0.000 C 
BRANCH  18  20
ATOM     19  C   UNL     1       9.214  11.914  19.701  0.00  0.00    +0.000 C 
ATOM     20  C   UNL     1       9.208  11.187  18.338  0.00  0.00    +0.000 C 
ATOM     21  C   UNL     1       8.047  11.753  17.502  0.00  0.00    +0.000 C 
BRANCH  20  22
ATOM     22  C   UNL     1      10.562  11.417  17.637  0.00  0.00    +0.000 C 
BRANCH  22  23
ATOM     23  O   UNL     1      11.458  12.181  18.437  0.00  0.00    +0.000 OA
ATOM     24  H   UNL     1      11.965  12.760  17.842  0.00  0.00    +0.000 HD
ENDBRANCH  22  23
ENDBRANCH  20  22
ENDBRANCH  18  20
ENDBRANCH  10  18
ENDBRANCH   1  15
BRANCH   2  25
ATOM     25  C   UNL     1       4.089   4.207  17.049  0.00  0.00    +0.000 A 
ATOM     26  C   UNL     1       3.778   2.942  17.573  0.00  0.00    +0.000 A 
ATOM     27  C   UNL     1       2.793   2.794  18.551  0.00  0.00    +0.000 A 
ATOM     28  C   UNL     1       2.153   3.919  19.050  0.00  0.00    +0.000 A 
ATOM     29  F   UNL     1       1.204   3.774  19.985  0.00  0.00    +0.000 F 
ATOM     30  C   UNL     1       2.487   5.188  18.598  0.00  0.00    +0.000 A 
ATOM     31  C   UNL     1       3.454   5.334  17.598  0.00  0.00    +0.000 A 
ENDBRANCH   2  25
TORSDOF 6
ENDMDL
MODEL 4
REMARK VINA RESULT:      -7.4      4.857      7.288
REMARK  Name = 
REMARK  8 active torsions:
REMARK  status: ('A' for Active; 'I' for Inactive)
REMARK    1  A    between atoms: C_1  and  C_2
REMARK    2  A    between atoms: C_2  and  C_3
REMARK    3  A    between atoms: C_2  and  C_4
REMARK    4  A    between atoms: C_2  and  C_6
REMARK    5  A    between atoms: C_4  and  O_5
REMARK    6  A    between atoms: C_6  and  N_7
REMARK    7  A    between atoms: C_12  and  C_13
REMARK    8  A    between atoms: C_14  and  C_15
REMARK                            x       y       z     vdW  Elec       q    Type
REMARK                         _______ _______ _______ _____ _____    ______ ____
ROOT
ATOM      1  C   UNL     1       3.575   5.081  18.959  0.00  0.00    +0.000 A 
ATOM      2  C   UNL     1       4.488   4.234  18.313  0.00  0.00    +0.000 A 
ATOM      3  N   UNL     1       4.575   3.005  18.939  0.00  0.00    +0.000 NA
ATOM      4  C   UNL     1       3.758   3.099  19.957  0.00  0.00    +0.000 A 
ATOM      5  C   UNL     1       3.491   2.114  20.970  0.00  0.00    +0.000 A 
ATOM      6  N   UNL     1       2.658   2.343  21.953  0.00  0.00    +0.000 NA
ATOM      7  C   UNL     1       2.011   3.562  21.965  0.00  0.00    +0.000 A 
ATOM      8  C   UNL     1       2.192   4.523  21.039  0.00  0.00    +0.000 A 
ATOM      9  N   UNL     1       3.111   4.308  20.017  0.00  0.00    +0.000 N 
ENDROOT
BRANCH   1  15
ATOM     10  N   UNL     1       0.881   8.704  20.230  0.00  0.00    +0.000 N 
ATOM     11  C   UNL     1       1.843   8.227  19.345  0.00  0.00    +0.000 A 
ATOM     12  N   UNL     1       2.184   8.954  18.276  0.00  0.00    +0.000 NA
ATOM     13  C   UNL     1       2.982   8.377  17.367  0.00  0.00    +0.000 A 
ATOM     14  C   UNL     1       3.464   7.102  17.494  0.00  0.00    +0.000 A 
ATOM     15  C   UNL     1       3.131   6.447  18.657  0.00  0.00    +0.000 A 
ATOM     16  N   UNL     1       2.310   6.996  19.576  0.00  0.00    +0.000 NA
ATOM     17  H   UNL     1       0.325   7.901  20.504  0.00  0.00    +0.000 HD
BRANCH  10  18
ATOM     18  C   UNL     1       0.188   9.908  19.796  0.00  0.00    +0.000 C 
BRANCH  18  20
ATOM     19  C   UNL     1      -1.297  11.726  20.658  0.00  0.00    +0.000 C 
ATOM     20  C   UNL     1       0.013  10.951  20.928  0.00  0.00    +0.000 C 
ATOM     21  C   UNL     1       1.173  11.962  20.921  0.00  0.00    +0.000 C 
BRANCH  20  22
ATOM     22  C   UNL     1      -0.096  10.238  22.292  0.00  0.00    +0.000 C 
BRANCH  22  23
ATOM     23  O   UNL     1       1.174   9.829  22.786  0.00  0.00    +0.000 OA
ATOM     24  H   UNL     1       1.029   9.375  23.634  0.00  0.00    +0.000 HD
ENDBRANCH  22  23
ENDBRANCH  20  22
ENDBRANCH  18  20
ENDBRANCH  10  18
ENDBRANCH   1  15
BRANCH   2  25
ATOM     25  C   UNL     1       5.292   4.528  17.129  0.00  0.00    +0.000 A 
ATOM     26  C   UNL     1       4.861   4.188  15.837  0.00  0.00    +0.000 A 
ATOM     27  C   UNL     1       5.678   4.409  14.727  0.00  0.00    +0.000 A 
ATOM     28  C   UNL     1       6.911   5.022  14.899  0.00  0.00    +0.000 A 
ATOM     29  F   UNL     1       7.696   5.229  13.834  0.00  0.00    +0.000 F 
ATOM     30  C   UNL     1       7.335   5.428  16.158  0.00  0.00    +0.000 A 
ATOM     31  C   UNL     1       6.528   5.181  17.273  0.00  0.00    +0.000 A 
ENDBRANCH   2  25
TORSDOF 6
ENDMDL
MODEL 5
REMARK VINA RESULT:      -7.3      0.860      1.184
REMARK  Name = 
REMARK  8 active torsions:
REMARK  status: ('A' for Active; 'I' for Inactive)
REMARK    1  A    between atoms: C_1  and  C_2
REMARK    2  A    between atoms: C_2  and  C_3
REMARK    3  A    between atoms: C_2  and  C_4
REMARK    4  A    between atoms: C_2  and  C_6
REMARK    5  A    between atoms: C_4  and  O_5
REMARK    6  A    between atoms: C_6  and  N_7
REMARK    7  A    between atoms: C_12  and  C_13
REMARK    8  A    between atoms: C_14  and  C_15
REMARK                            x       y       z     vdW  Elec       q    Type
REMARK                         _______ _______ _______ _____ _____    ______ ____
ROOT
ATOM      1  C   UNL     1       6.177   5.217  16.197  0.00  0.00    +0.000 A 
ATOM      2  C   UNL     1       4.884   4.671  16.211  0.00  0.00    +0.000 A 
ATOM      3  N   UNL     1       4.562   4.092  14.998  0.00  0.00    +0.000 NA
ATOM      4  C   UNL     1       5.615   4.296  14.249  0.00  0.00    +0.000 A 
ATOM      5  C   UNL     1       5.803   3.932  12.871  0.00  0.00    +0.000 A 
ATOM      6  N   UNL     1       6.908   4.213  12.227  0.00  0.00    +0.000 NA
ATOM      7  C   UNL     1       7.910   4.848  12.934  0.00  0.00    +0.000 A 
ATOM      8  C   UNL     1       7.815   5.198  14.230  0.00  0.00    +0.000 A 
ATOM      9  N   UNL     1       6.627   4.946  14.910  0.00  0.00    +0.000 N 
ENDROOT
BRANCH   1  15
ATOM     10  N   UNL     1       8.092   9.238  17.664  0.00  0.00    +0.000 N 
ATOM     11  C   UNL     1       7.833   7.903  17.955  0.00  0.00    +0.000 A 
ATOM     12  N   UNL     1       8.384   7.336  19.033  0.00  0.00    +0.000 NA
ATOM     13  C   UNL     1       8.244   6.010  19.172  0.00  0.00    +0.000 A 
ATOM     14  C   UNL     1       7.560   5.230  18.277  0.00  0.00    +0.000 A 
ATOM     15  C   UNL     1       6.958   5.898  17.236  0.00  0.00    +0.000 A 
ATOM     16  N   UNL     1       7.104   7.228  17.060  0.00  0.00    +0.000 NA
ATOM     17  H   UNL     1       8.189   9.296  16.656  0.00  0.00    +0.000 HD
BRANCH  10  18
ATOM     18  C   UNL     1       9.115   9.861  18.492  0.00  0.00    +0.000 C 
BRANCH  18  20
ATOM     19  C   UNL     1       9.201  12.073  19.654  0.00  0.00    +0.000 C 
ATOM     20  C   UNL     1       9.231  11.390  18.268  0.00  0.00    +0.000 C 
ATOM     21  C   UNL     1       8.035  11.913  17.454  0.00  0.00    +0.000 C 
BRANCH  20  22
ATOM     22  C   UNL     1      10.567  11.722  17.571  0.00  0.00    +0.000 C 
BRANCH  22  23
ATOM     23  O   UNL     1      11.681  11.567  18.444  0.00  0.00    +0.000 OA
ATOM     24  H   UNL     1      12.254  12.344  18.332  0.00  0.00    +0.000 HD
ENDBRANCH  22  23
ENDBRANCH  20  22
ENDBRANCH  18  20
ENDBRANCH  10  18
ENDBRANCH   1  15
BRANCH   2  25
ATOM     25  C   UNL     1       3.928   4.671  17.316  0.00  0.00    +0.000 A 
ATOM     26  C   UNL     1       3.387   5.860  17.829  0.00  0.00    +0.000 A 
ATOM     27  C   UNL     1       2.535   5.842  18.934  0.00  0.00    +0.000 A 
ATOM     28  C   UNL     1       2.174   4.627  19.497  0.00  0.00    +0.000 A 
ATOM     29  F   UNL     1       1.360   4.611  20.560  0.00  0.00    +0.000 F 
ATOM     30  C   UNL     1       2.642   3.430  18.969  0.00  0.00    +0.000 A 
ATOM     31  C   UNL     1       3.518   3.451  17.880  0.00  0.00    +0.000 A 
ENDBRANCH   2  25
TORSDOF 6
ENDMDL
MODEL 6
REMARK VINA RESULT:      -7.3      4.718      7.218
REMARK  Name = 
REMARK  8 active torsions:
REMARK  status: ('A' for Active; 'I' for Inactive)
REMARK    1  A    between atoms: C_1  and  C_2
REMARK    2  A    between atoms: C_2  and  C_3
REMARK    3  A    between atoms: C_2  and  C_4
REMARK    4  A    between atoms: C_2  and  C_6
REMARK    5  A    between atoms: C_4  and  O_5
REMARK    6  A    between atoms: C_6  and  N_7
REMARK    7  A    between atoms: C_12  and  C_13
REMARK    8  A    between atoms: C_14  and  C_15
REMARK                            x       y       z     vdW  Elec       q    Type
REMARK                         _______ _______ _______ _____ _____    ______ ____
ROOT
ATOM      1  C   UNL     1       3.423   5.344  18.505  0.00  0.00    +0.000 A 
ATOM      2  C   UNL     1       4.769   4.988  18.329  0.00  0.00    +0.000 A 
ATOM      3  N   UNL     1       4.926   3.619  18.229  0.00  0.00    +0.000 NA
ATOM      4  C   UNL     1       3.716   3.140  18.367  0.00  0.00    +0.000 A 
ATOM      5  C   UNL     1       3.307   1.762  18.383  0.00  0.00    +0.000 A 
ATOM      6  N   UNL     1       2.055   1.416  18.548  0.00  0.00    +0.000 NA
ATOM      7  C   UNL     1       1.127   2.430  18.671  0.00  0.00    +0.000 A 
ATOM      8  C   UNL     1       1.432   3.741  18.641  0.00  0.00    +0.000 A 
ATOM      9  N   UNL     1       2.765   4.119  18.515  0.00  0.00    +0.000 N 
ENDROOT
BRANCH   1  15
ATOM     10  N   UNL     1       0.617   8.098  21.062  0.00  0.00    +0.000 N 
ATOM     11  C   UNL     1       1.437   7.997  19.943  0.00  0.00    +0.000 A 
ATOM     12  N   UNL     1       1.473   8.991  19.050  0.00  0.00    +0.000 NA
ATOM     13  C   UNL     1       2.141   8.772  17.909  0.00  0.00    +0.000 A 
ATOM     14  C   UNL     1       2.787   7.596  17.633  0.00  0.00    +0.000 A 
ATOM     15  C   UNL     1       2.769   6.651  18.632  0.00  0.00    +0.000 A 
ATOM     16  N   UNL     1       2.084   6.838  19.779  0.00  0.00    +0.000 NA
ATOM     17  H   UNL     1       0.225   7.174  21.211  0.00  0.00    +0.000 HD
BRANCH  10  18
ATOM     18  C   UNL     1      -0.287   9.239  21.062  0.00  0.00    +0.000 C 
BRANCH  18  20
ATOM     19  C   UNL     1      -1.233  10.935  22.637  0.00  0.00    +0.000 C 
ATOM     20  C   UNL     1       0.082  10.308  22.121  0.00  0.00    +0.000 C 
ATOM     21  C   UNL     1       0.928  11.429  21.491  0.00  0.00    +0.000 C 
BRANCH  20  22
ATOM     22  C   UNL     1       0.824   9.648  23.301  0.00  0.00    +0.000 C 
BRANCH  22  23
ATOM     23  O   UNL     1       2.194   9.403  23.005  0.00  0.00    +0.000 OA
ATOM     24  H   UNL     1       2.645   9.199  23.842  0.00  0.00    +0.000 HD
ENDBRANCH  22  23
ENDBRANCH  20  22
ENDBRANCH  18  20
ENDBRANCH  10  18
ENDBRANCH   1  15
BRANCH   2  25
ATOM     25  C   UNL     1       5.924   5.880  18.252  0.00  0.00    +0.000 A 
ATOM     26  C   UNL     1       7.026   5.742  19.110  0.00  0.00    +0.000 A 
ATOM     27  C   UNL     1       8.084   6.651  19.070  0.00  0.00    +0.000 A 
ATOM     28  C   UNL     1       8.071   7.672  18.131  0.00  0.00    +0.000 A 
ATOM     29  F   UNL     1       9.084   8.547  18.097  0.00  0.00    +0.000 F 
ATOM     30  C   UNL     1       7.025   7.793  17.225  0.00  0.00    +0.000 A 
ATOM     31  C   UNL     1       5.951   6.899  17.285  0.00  0.00    +0.000 A 
ENDBRANCH   2  25
TORSDOF 6
ENDMDL
MODEL 7
REMARK VINA RESULT:      -7.3      4.083      7.252
REMARK  Name = 
REMARK  8 active torsions:
REMARK  status: ('A' for Active; 'I' for Inactive)
REMARK    1  A    between atoms: C_1  and  C_2
REMARK    2  A    between atoms: C_2  and  C_3
REMARK    3  A    between atoms: C_2  and  C_4
REMARK    4  A    between atoms: C_2  and  C_6
REMARK    5  A    between atoms: C_4  and  O_5
REMARK    6  A    between atoms: C_6  and  N_7
REMARK    7  A    between atoms: C_12  and  C_13
REMARK    8  A    between atoms: C_14  and  C_15
REMARK                            x       y       z     vdW  Elec       q    Type
REMARK                         _______ _______ _______ _____ _____    ______ ____
ROOT
ATOM      1  C   UNL     1       3.744   5.276  19.011  0.00  0.00    +0.000 A 
ATOM      2  C   UNL     1       2.697   6.014  19.582  0.00  0.00    +0.000 A 
ATOM      3  N   UNL     1       2.092   5.326  20.616  0.00  0.00    +0.000 NA
ATOM      4  C   UNL     1       2.730   4.184  20.666  0.00  0.00    +0.000 A 
ATOM      5  C   UNL     1       2.482   3.070  21.539  0.00  0.00    +0.000 A 
ATOM      6  N   UNL     1       3.188   1.970  21.473  0.00  0.00    +0.000 NA
ATOM      7  C   UNL     1       4.214   1.930  20.550  0.00  0.00    +0.000 A 
ATOM      8  C   UNL     1       4.521   2.941  19.716  0.00  0.00    +0.000 A 
ATOM      9  N   UNL     1       3.746   4.097  19.746  0.00  0.00    +0.000 N 
ENDROOT
BRANCH   1  15
ATOM     10  N   UNL     1       5.489   4.019  14.843  0.00  0.00    +0.000 N 
ATOM     11  C   UNL     1       5.470   4.977  15.852  0.00  0.00    +0.000 A 
ATOM     12  N   UNL     1       6.339   5.992  15.823  0.00  0.00    +0.000 NA
ATOM     13  C   UNL     1       6.395   6.786  16.902  0.00  0.00    +0.000 A 
ATOM     14  C   UNL     1       5.601   6.610  18.004  0.00  0.00    +0.000 A 
ATOM     15  C   UNL     1       4.680   5.592  17.925  0.00  0.00    +0.000 A 
ATOM     16  N   UNL     1       4.620   4.764  16.862  0.00  0.00    +0.000 NA
ATOM     17  H   UNL     1       5.318   3.127  15.296  0.00  0.00    +0.000 HD
BRANCH  10  18
ATOM     18  C   UNL     1       6.610   4.120  13.919  0.00  0.00    +0.000 C 
BRANCH  18  20
ATOM     19  C   UNL     1       6.939   4.717  11.514  0.00  0.00    +0.000 C 
ATOM     20  C   UNL     1       6.240   3.723  12.468  0.00  0.00    +0.000 C 
ATOM     21  C   UNL     1       4.721   3.837  12.243  0.00  0.00    +0.000 C 
BRANCH  20  22
ATOM     22  C   UNL     1       6.742   2.296  12.166  0.00  0.00    +0.000 C 
BRANCH  22  23
ATOM     23  O   UNL     1       5.761   1.512  11.496  0.00  0.00    +0.000 OA
ATOM     24  H   UNL     1       6.189   1.097  10.728  0.00  0.00    +0.000 HD
ENDBRANCH  22  23
ENDBRANCH  20  22
ENDBRANCH  18  20
ENDBRANCH  10  18
ENDBRANCH   1  15
BRANCH   2  25
ATOM     25  C   UNL     1       2.230   7.345  19.197  0.00  0.00    +0.000 A 
ATOM     26  C   UNL     1       2.368   7.829  17.887  0.00  0.00    +0.000 A 
ATOM     27  C   UNL     1       1.984   9.130  17.559  0.00  0.00    +0.000 A 
ATOM     28  C   UNL     1       1.409   9.937  18.531  0.00  0.00    +0.000 A 
ATOM     29  F   UNL     1       1.047  11.187  18.216  0.00  0.00    +0.000 F 
ATOM     30  C   UNL     1       1.201   9.462  19.819  0.00  0.00    +0.000 A 
ATOM     31  C   UNL     1       1.611   8.167  20.154  0.00  0.00    +0.000 A 
ENDBRANCH   2  25
TORSDOF 6
ENDMDL
MODEL 8
REMARK VINA RESULT:      -7.3      4.704      7.174
REMARK  Name = 
REMARK  8 active torsions:
REMARK  status: ('A' for Active; 'I' for Inactive)
REMARK    1  A    between atoms: C_1  and  C_2
REMARK    2  A    between atoms: C_2  and  C_3
REMARK    3  A    between atoms: C_2  and  C_4
REMARK    4  A    between atoms: C_2  and  C_6
REMARK    5  A    between atoms: C_4  and  O_5
REMARK    6  A    between atoms: C_6  and  N_7
REMARK    7  A    between atoms: C_12  and  C_13
REMARK    8  A    between atoms: C_14  and  C_15
REMARK                            x       y       z     vdW  Elec       q    Type
REMARK                         _______ _______ _______ _____ _____    ______ ____
ROOT
ATOM      1  C   UNL     1       3.557   5.136  18.951  0.00  0.00    +0.000 A 
ATOM      2  C   UNL     1       4.474   4.289  18.312  0.00  0.00    +0.000 A 
ATOM      3  N   UNL     1       4.563   3.063  18.943  0.00  0.00    +0.000 NA
ATOM      4  C   UNL     1       3.743   3.159  19.959  0.00  0.00    +0.000 A 
ATOM      5  C   UNL     1       3.476   2.177  20.975  0.00  0.00    +0.000 A 
ATOM      6  N   UNL     1       2.639   2.408  21.954  0.00  0.00    +0.000 NA
ATOM      7  C   UNL     1       1.989   3.626  21.959  0.00  0.00    +0.000 A 
ATOM      8  C   UNL     1       2.169   4.583  21.030  0.00  0.00    +0.000 A 
ATOM      9  N   UNL     1       3.092   4.366  20.011  0.00  0.00    +0.000 N 
ENDROOT
BRANCH   1  15
ATOM     10  N   UNL     1       0.819   8.742  20.176  0.00  0.00    +0.000 N 
ATOM     11  C   UNL     1       1.799   8.271  19.307  0.00  0.00    +0.000 A 
ATOM     12  N   UNL     1       2.154   9.001  18.245  0.00  0.00    +0.000 NA
ATOM     13  C   UNL     1       2.971   8.429  17.349  0.00  0.00    +0.000 A 
ATOM     14  C   UNL     1       3.458   7.156  17.484  0.00  0.00    +0.000 A 
ATOM     15  C   UNL     1       3.109   6.499  18.642  0.00  0.00    +0.000 A 
ATOM     16  N   UNL     1       2.270   7.043  19.546  0.00  0.00    +0.000 NA
ATOM     17  H   UNL     1       0.264   7.935  20.440  0.00  0.00    +0.000 HD
BRANCH  10  18
ATOM     18  C   UNL     1       0.126   9.941  19.730  0.00  0.00    +0.000 C 
BRANCH  18  20
ATOM     19  C   UNL     1       0.118  10.319  22.202  0.00  0.00    +0.000 C 
ATOM     20  C   UNL     1       0.016  11.026  20.831  0.00  0.00    +0.000 C 
ATOM     21  C   UNL     1      -1.348  11.735  20.762  0.00  0.00    +0.000 C 
BRANCH  20  22
ATOM     22  C   UNL     1       1.176  12.034  20.697  0.00  0.00    +0.000 C 
BRANCH  22  23
ATOM     23  O   UNL     1       1.867  11.896  19.461  0.00  0.00    +0.000 OA
ATOM     24  H   UNL     1       1.552  11.079  19.036  0.00  0.00    +0.000 HD
ENDBRANCH  22  23
ENDBRANCH  20  22
ENDBRANCH  18  20
ENDBRANCH  10  18
ENDBRANCH   1  15
BRANCH   2  25
ATOM     25  C   UNL     1       5.281   4.579  17.128  0.00  0.00    +0.000 A 
ATOM     26  C   UNL     1       4.858   4.225  15.837  0.00  0.00    +0.000 A 
ATOM     27  C   UNL     1       5.678   4.443  14.729  0.00  0.00    +0.000 A 
ATOM     28  C   UNL     1       6.905   5.069  14.901  0.00  0.00    +0.000 A 
ATOM     29  F   UNL     1       7.693   5.273  13.838  0.00  0.00    +0.000 F 
ATOM     30  C   UNL     1       7.320   5.489  16.158  0.00  0.00    +0.000 A 
ATOM     31  C   UNL     1       6.510   5.245  17.272  0.00  0.00    +0.000 A 
ENDBRANCH   2  25
TORSDOF 6
ENDMDL
MODEL 9
REMARK VINA RESULT:      -7.2      4.607      7.102
REMARK  Name = 
REMARK  8 active torsions:
REMARK  status: ('A' for Active; 'I' for Inactive)
REMARK    1  A    between atoms: C_1  and  C_2
REMARK    2  A    between atoms: C_2  and  C_3
REMARK    3  A    between atoms: C_2  and  C_4
REMARK    4  A    between atoms: C_2  and  C_6
REMARK    5  A    between atoms: C_4  and  O_5
REMARK    6  A    between atoms: C_6  and  N_7
REMARK    7  A    between atoms: C_12  and  C_13
REMARK    8  A    between atoms: C_14  and  C_15
REMARK                            x       y       z     vdW  Elec       q    Type
REMARK                         _______ _______ _______ _____ _____    ______ ____
ROOT
ATOM      1  C   UNL     1       3.477   5.338  18.469  0.00  0.00    +0.000 A 
ATOM      2  C   UNL     1       4.827   4.996  18.302  0.00  0.00    +0.000 A 
ATOM      3  N   UNL     1       4.998   3.629  18.195  0.00  0.00    +0.000 NA
ATOM      4  C   UNL     1       3.791   3.139  18.319  0.00  0.00    +0.000 A 
ATOM      5  C   UNL     1       3.394   1.757  18.323  0.00  0.00    +0.000 A 
ATOM      6  N   UNL     1       2.144   1.398  18.474  0.00  0.00    +0.000 NA
ATOM      7  C   UNL     1       1.206   2.403  18.595  0.00  0.00    +0.000 A 
ATOM      8  C   UNL     1       1.499   3.717  18.576  0.00  0.00    +0.000 A 
ATOM      9  N   UNL     1       2.830   4.108  18.464  0.00  0.00    +0.000 N 
ENDROOT
BRANCH   1  15
ATOM     10  N   UNL     1       0.696   8.084  21.062  0.00  0.00    +0.000 N 
ATOM     11  C   UNL     1       1.491   7.981  19.925  0.00  0.00    +0.000 A 
ATOM     12  N   UNL     1       1.495   8.968  19.023  0.00  0.00    +0.000 NA
ATOM     13  C   UNL     1       2.140   8.745  17.869  0.00  0.00    +0.000 A 
ATOM     14  C   UNL     1       2.794   7.575  17.589  0.00  0.00    +0.000 A 
ATOM     15  C   UNL     1       2.809   6.639  18.598  0.00  0.00    +0.000 A 
ATOM     16  N   UNL     1       2.148   6.829  19.758  0.00  0.00    +0.000 NA
ATOM     17  H   UNL     1       0.319   7.157  21.229  0.00  0.00    +0.000 HD
BRANCH  10  18
ATOM     18  C   UNL     1      -0.222   9.214  21.071  0.00  0.00    +0.000 C 
BRANCH  18  20
ATOM     19  C   UNL     1       1.349   9.754  22.940  0.00  0.00    +0.000 C 
ATOM     20  C   UNL     1       0.103  10.253  22.174  0.00  0.00    +0.000 C 
ATOM     21  C   UNL     1      -1.059  10.362  23.177  0.00  0.00    +0.000 C 
BRANCH  20  22
ATOM     22  C   UNL     1       0.417  11.621  21.535  0.00  0.00    +0.000 C 
BRANCH  22  23
ATOM     23  O   UNL     1       1.227  11.496  20.371  0.00  0.00    +0.000 OA
ATOM     24  H   UNL     1       1.095  10.602  20.014  0.00  0.00    +0.000 HD
ENDBRANCH  22  23
ENDBRANCH  20  22
ENDBRANCH  18  20
ENDBRANCH  10  18
ENDBRANCH   1  15
BRANCH   2  25
ATOM     25  C   UNL     1       5.974   5.899  18.241  0.00  0.00    +0.000 A 
ATOM     26  C   UNL     1       7.082   5.749  19.090  0.00  0.00    +0.000 A 
ATOM     27  C   UNL     1       8.133   6.667  19.067  0.00  0.00    +0.000 A 
ATOM     28  C   UNL     1       8.106   7.711  18.153  0.00  0.00    +0.000 A 
ATOM     29  F   UNL     1       9.113   8.594  18.135  0.00  0.00    +0.000 F 
ATOM     30  C   UNL     1       7.055   7.846  17.256  0.00  0.00    +0.000 A 
ATOM     31  C   UNL     1       5.989   6.942  17.299  0.00  0.00    +0.000 A 
ENDBRANCH   2  25
TORSDOF 6
ENDMDL
