MODEL 1
REMARK VINA RESULT:      -7.6      0.000      0.000
REMARK  Name = 
REMARK  4 active torsions:
REMARK  status: ('A' for Active; 'I' for Inactive)
REMARK    1  A    between atoms: C_1  and  C_2
REMARK    2  A    between atoms: C_2  and  C_3
REMARK    3  A    between atoms: C_5  and  C_6
REMARK    4  A    between atoms: C_11  and  C_13
REMARK                            x       y       z     vdW  Elec       q    Type
REMARK                         _______ _______ _______ _____ _____    ______ ____
ROOT
ATOM      1  C   UNL     1       7.066   4.614  16.948  0.00  0.00    +0.000 C 
ATOM      2  C   UNL     1       6.574   4.851  15.503  0.00  0.00    +0.000 C 
ATOM      3  C   UNL     1       5.230   5.591  15.442  0.00  0.00    +0.000 C 
ATOM      4  C   UNL     1       4.192   4.945  16.368  0.00  0.00    +0.000 C 
ATOM      5  N   UNL     1       4.722   4.784  17.725  0.00  0.00    +0.000 N 
ATOM      6  C   UNL     1       4.332   5.452  18.894  0.00  0.00    +0.000 C 
ATOM      7  O   UNL     1       4.772   5.163  20.000  0.00  0.00    +0.000 OA
ATOM      8  C   UNL     1       5.943   3.973  17.784  0.00  0.00    +0.000 C 
ENDROOT
BRANCH   6   9
ATOM      9  C   UNL     1       3.335   6.566  18.840  0.00  0.00    +0.000 A 
ATOM     10  C   UNL     1       3.337   7.439  17.738  0.00  0.00    +0.000 A 
ATOM     11  C   UNL     1       2.474   8.542  17.712  0.00  0.00    +0.000 A 
ATOM     12  C   UNL     1       1.626   8.785  18.794  0.00  0.00    +0.000 A 
ATOM     13 CL   UNL     1       0.636  10.190  18.823  0.00  0.00    +0.000 Cl
ATOM     14  C   UNL     1       1.566   7.883  19.848  0.00  0.00    +0.000 A 
ATOM     15  C   UNL     1       2.378   6.755  19.832  0.00  0.00    +0.000 A 
ENDBRANCH   6   9
BRANCH   1  18
ATOM     16  C   UNL     1       8.013   7.902  17.834  0.00  0.00    +0.000 A 
ATOM     17  N   UNL     1       7.566   7.078  16.923  0.00  0.00    +0.000 NA
ATOM     18  C   UNL     1       7.569   5.874  17.583  0.00  0.00    +0.000 A 
ATOM     19  N   UNL     1       8.063   5.922  18.827  0.00  0.00    +0.000 NA
ATOM     20  O   UNL     1       8.354   7.282  19.003  0.00  0.00    +0.000 OA
BRANCH  16  22
ATOM     21  C   UNL     1       9.015   9.895  18.911  0.00  0.00    +0.000 C 
ATOM     22  C   UNL     1       8.189   9.366  17.750  0.00  0.00    +0.000 C 
ENDBRANCH  16  22
ENDBRANCH   1  18
TORSDOF 3
ENDMDL
MODEL 2
REMARK VINA RESULT:      -7.5      2.129      3.353
REMARK  Name = 
REMARK  4 active torsions:
REMARK  status: ('A' for Active; 'I' for Inactive)
REMARK    1  A    between atoms: C_1  and  C_2
REMARK    2  A    between atoms: C_2  and  C_3
REMARK    3  A    between atoms: C_5  and  C_6
REMARK    4  A    between atoms: C_11  and  C_13
REMARK                            x       y       z     vdW  Elec       q    Type
REMARK                         _______ _______ _______ _____ _____    ______ ____
ROOT
ATOM      1  C   UNL     1       3.427   2.545  18.660  0.00  0.00    +0.000 C 
ATOM      2  C   UNL     1       2.717   2.629  17.291  0.00  0.00    +0.000 C 
ATOM      3  C   UNL     1       1.982   3.960  17.078  0.00  0.00    +0.000 C 
ATOM      4  C   UNL     1       1.090   4.304  18.278  0.00  0.00    +0.000 C 
ATOM      5  N   UNL     1       1.843   4.234  19.534  0.00  0.00    +0.000 N 
ATOM      6  C   UNL     1       2.211   5.285  20.386  0.00  0.00    +0.000 C 
ATOM      7  O   UNL     1       2.752   5.100  21.469  0.00  0.00    +0.000 OA
ATOM      8  C   UNL     1       2.443   2.919  19.784  0.00  0.00    +0.000 C 
ENDROOT
BRANCH   6   9
ATOM      9  C   UNL     1       1.947   6.706  20.003  0.00  0.00    +0.000 A 
ATOM     10  C   UNL     1       1.216   7.530  20.877  0.00  0.00    +0.000 A 
ATOM     11  C   UNL     1       0.879   8.836  20.497  0.00  0.00    +0.000 A 
ATOM     12  C   UNL     1       1.252   9.310  19.238  0.00  0.00    +0.000 A 
ATOM     13 CL   UNL     1       0.758  10.872  18.717  0.00  0.00    +0.000 Cl
ATOM     14  C   UNL     1       2.039   8.527  18.404  0.00  0.00    +0.000 A 
ATOM     15  C   UNL     1       2.426   7.259  18.819  0.00  0.00    +0.000 A 
ENDBRANCH   6   9
BRANCH   1  18
ATOM     16  C   UNL     1       6.163   4.706  18.078  0.00  0.00    +0.000 A 
ATOM     17  N   UNL     1       5.144   4.042  17.596  0.00  0.00    +0.000 NA
ATOM     18  C   UNL     1       4.658   3.397  18.706  0.00  0.00    +0.000 A 
ATOM     19  N   UNL     1       5.378   3.586  19.820  0.00  0.00    +0.000 NA
ATOM     20  O   UNL     1       6.383   4.471  19.406  0.00  0.00    +0.000 OA
BRANCH  16  22
ATOM     21  C   UNL     1       7.792   6.550  18.362  0.00  0.00    +0.000 C 
ATOM     22  C   UNL     1       7.068   5.643  17.381  0.00  0.00    +0.000 C 
ENDBRANCH  16  22
ENDBRANCH   1  18
TORSDOF 3
ENDMDL
MODEL 3
REMARK VINA RESULT:      -7.3      0.205      1.047
REMARK  Name = 
REMARK  4 active torsions:
REMARK  status: ('A' for Active; 'I' for Inactive)
REMARK    1  A    between atoms: C_1  and  C_2
REMARK    2  A    between atoms: C_2  and  C_3
REMARK    3  A    between atoms: C_5  and  C_6
REMARK    4  A    between atoms: C_11  and  C_13
REMARK                            x       y       z     vdW  Elec       q    Type
REMARK                         _______ _______ _______ _____ _____    ______ ____
ROOT
ATOM      1  C   UNL     1       6.988   4.663  16.976  0.00  0.00    +0.000 C 
ATOM      2  C   UNL     1       6.528   4.919  15.525  0.00  0.00    +0.000 C 
ATOM      3  C   UNL     1       5.219   5.717  15.443  0.00  0.00    +0.000 C 
ATOM      4  C   UNL     1       4.140   5.116  16.354  0.00  0.00    +0.000 C 
ATOM      5  N   UNL     1       4.642   4.933  17.719  0.00  0.00    +0.000 N 
ATOM      6  C   UNL     1       4.265   5.618  18.882  0.00  0.00    +0.000 C 
ATOM      7  O   UNL     1       4.676   5.310  19.994  0.00  0.00    +0.000 OA
ATOM      8  C   UNL     1       5.827   4.070  17.796  0.00  0.00    +0.000 C 
ENDROOT
BRANCH   6   9
ATOM      9  C   UNL     1       3.317   6.774  18.814  0.00  0.00    +0.000 A 
ATOM     10  C   UNL     1       2.401   6.975  19.861  0.00  0.00    +0.000 A 
ATOM     11  C   UNL     1       1.445   7.995  19.774  0.00  0.00    +0.000 A 
ATOM     12  C   UNL     1       1.390   8.798  18.633  0.00  0.00    +0.000 A 
ATOM     13 CL   UNL     1       0.158   9.986  18.467  0.00  0.00    +0.000 Cl
ATOM     14  C   UNL     1       2.341   8.653  17.632  0.00  0.00    +0.000 A 
ATOM     15  C   UNL     1       3.328   7.683  17.761  0.00  0.00    +0.000 A 
ENDBRANCH   6   9
BRANCH   1  18
ATOM     16  C   UNL     1       8.019   7.915  17.898  0.00  0.00    +0.000 A 
ATOM     17  N   UNL     1       7.521   7.119  16.988  0.00  0.00    +0.000 NA
ATOM     18  C   UNL     1       7.535   5.900  17.619  0.00  0.00    +0.000 A 
ATOM     19  N   UNL     1       8.083   5.911  18.841  0.00  0.00    +0.000 NA
ATOM     20  O   UNL     1       8.400   7.262  19.037  0.00  0.00    +0.000 OA
BRANCH  16  22
ATOM     21  C   UNL     1       9.079   9.870  18.988  0.00  0.00    +0.000 C 
ATOM     22  C   UNL     1       8.211   9.379  17.841  0.00  0.00    +0.000 C 
ENDBRANCH  16  22
ENDBRANCH   1  18
TORSDOF 3
ENDMDL
MODEL 4
REMARK VINA RESULT:      -7.3      2.033      3.145
REMARK  Name = 
REMARK  4 active torsions:
REMARK  status: ('A' for Active; 'I' for Inactive)
REMARK    1  A    between atoms: C_1  and  C_2
REMARK    2  A    between atoms: C_2  and  C_3
REMARK    3  A    between atoms: C_5  and  C_6
REMARK    4  A    between atoms: C_11  and  C_13
REMARK                            x       y       z     vdW  Elec       q    Type
REMARK                         _______ _______ _______ _____ _____    ______ ____
ROOT
ATOM      1  C   UNL     1       3.626   2.502  18.674  0.00  0.00    +0.000 C 
ATOM      2  C   UNL     1       2.800   2.482  17.369  0.00  0.00    +0.000 C 
ATOM      3  C   UNL     1       1.963   3.753  17.170  0.00  0.00    +0.000 C 
ATOM      4  C   UNL     1       1.154   4.094  18.427  0.00  0.00    +0.000 C 
ATOM      5  N   UNL     1       2.012   4.126  19.616  0.00  0.00    +0.000 N 
ATOM      6  C   UNL     1       2.381   5.234  20.391  0.00  0.00    +0.000 C 
ATOM      7  O   UNL     1       3.021   5.130  21.431  0.00  0.00    +0.000 OA
ATOM      8  C   UNL     1       2.716   2.862  19.863  0.00  0.00    +0.000 C 
ENDROOT
BRANCH   6   9
ATOM      9  C   UNL     1       1.992   6.618  19.978  0.00  0.00    +0.000 A 
ATOM     10  C   UNL     1       2.369   7.087  18.708  0.00  0.00    +0.000 A 
ATOM     11  C   UNL     1       2.095   8.410  18.337  0.00  0.00    +0.000 A 
ATOM     12  C   UNL     1       1.468   9.268  19.241  0.00  0.00    +0.000 A 
ATOM     13 CL   UNL     1       1.218  10.922  18.839  0.00  0.00    +0.000 Cl
ATOM     14  C   UNL     1       1.026   8.788  20.466  0.00  0.00    +0.000 A 
ATOM     15  C   UNL     1       1.241   7.455  20.797  0.00  0.00    +0.000 A 
ENDBRANCH   6   9
BRANCH   1  18
ATOM     16  C   UNL     1       6.194   4.750  17.757  0.00  0.00    +0.000 A 
ATOM     17  N   UNL     1       5.211   3.971  17.389  0.00  0.00    +0.000 NA
ATOM     18  C   UNL     1       4.798   3.430  18.581  0.00  0.00    +0.000 A 
ATOM     19  N   UNL     1       5.532   3.793  19.642  0.00  0.00    +0.000 NA
ATOM     20  O   UNL     1       6.464   4.686  19.095  0.00  0.00    +0.000 OA
BRANCH  16  22
ATOM     21  C   UNL     1       7.447   6.886  17.706  0.00  0.00    +0.000 C 
ATOM     22  C   UNL     1       7.017   5.654  16.927  0.00  0.00    +0.000 C 
ENDBRANCH  16  22
ENDBRANCH   1  18
TORSDOF 3
ENDMDL
MODEL 5
REMARK VINA RESULT:      -7.3      2.003      3.215
REMARK  Name = 
REMARK  4 active torsions:
REMARK  status: ('A' for Active; 'I' for Inactive)
REMARK    1  A    between atoms: C_1  and  C_2
REMARK    2  A    between atoms: C_2  and  C_3
REMARK    3  A    between atoms: C_5  and  C_6
REMARK    4  A    between atoms: C_11  and  C_13
REMARK                            x       y       z     vdW  Elec       q    Type
REMARK                         _______ _______ _______ _____ _____    ______ ____
ROOT
ATOM      1  C   UNL     1       3.872   2.697  18.031  0.00  0.00    +0.000 C 
ATOM      2  C   UNL     1       2.473   2.351  17.475  0.00  0.00    +0.000 C 
ATOM      3  C   UNL     1       1.467   3.501  17.626  0.00  0.00    +0.000 C 
ATOM      4  C   UNL     1       1.462   4.056  19.057  0.00  0.00    +0.000 C 
ATOM      5  N   UNL     1       2.819   4.389  19.499  0.00  0.00    +0.000 N 
ATOM      6  C   UNL     1       3.365   5.656  19.748  0.00  0.00    +0.000 C 
ATOM      7  O   UNL     1       4.485   5.814  20.218  0.00  0.00    +0.000 OA
ATOM      8  C   UNL     1       3.743   3.250  19.462  0.00  0.00    +0.000 C 
ENDROOT
BRANCH   6   9
ATOM      9  C   UNL     1       2.583   6.896  19.450  0.00  0.00    +0.000 A 
ATOM     10  C   UNL     1       2.608   7.430  18.150  0.00  0.00    +0.000 A 
ATOM     11  C   UNL     1       1.957   8.639  17.873  0.00  0.00    +0.000 A 
ATOM     12  C   UNL     1       1.302   9.325  18.897  0.00  0.00    +0.000 A 
ATOM     13 CL   UNL     1       0.588  10.860  18.596  0.00  0.00    +0.000 Cl
ATOM     14  C   UNL     1       1.210   8.764  20.164  0.00  0.00    +0.000 A 
ATOM     15  C   UNL     1       1.800   7.530  20.410  0.00  0.00    +0.000 A 
ENDBRANCH   6   9
BRANCH   1  18
ATOM     16  C   UNL     1       6.063   5.008  16.500  0.00  0.00    +0.000 A 
ATOM     17  N   UNL     1       5.691   4.372  17.580  0.00  0.00    +0.000 NA
ATOM     18  C   UNL     1       4.610   3.649  17.141  0.00  0.00    +0.000 A 
ATOM     19  N   UNL     1       4.270   3.873  15.865  0.00  0.00    +0.000 NA
ATOM     20  O   UNL     1       5.248   4.777  15.428  0.00  0.00    +0.000 OA
BRANCH  16  22
ATOM     21  C   UNL     1       7.351   6.890  17.469  0.00  0.00    +0.000 C 
ATOM     22  C   UNL     1       7.216   5.914  16.312  0.00  0.00    +0.000 C 
ENDBRANCH  16  22
ENDBRANCH   1  18
TORSDOF 3
ENDMDL
MODEL 6
REMARK VINA RESULT:      -7.3      2.916      3.833
REMARK  Name = 
REMARK  4 active torsions:
REMARK  status: ('A' for Active; 'I' for Inactive)
REMARK    1  A    between atoms: C_1  and  C_2
REMARK    2  A    between atoms: C_2  and  C_3
REMARK    3  A    between atoms: C_5  and  C_6
REMARK    4  A    between atoms: C_11  and  C_13
REMARK                            x       y       z     vdW  Elec       q    Type
REMARK                         _______ _______ _______ _____ _____    ______ ____
ROOT
ATOM      1  C   UNL     1       3.911   2.716  17.946  0.00  0.00    +0.000 C 
ATOM      2  C   UNL     1       2.464   2.320  17.577  0.00  0.00    +0.000 C 
ATOM      3  C   UNL     1       1.455   3.454  17.809  0.00  0.00    +0.000 C 
ATOM      4  C   UNL     1       1.609   4.061  19.209  0.00  0.00    +0.000 C 
ATOM      5  N   UNL     1       3.001   4.440  19.472  0.00  0.00    +0.000 N 
ATOM      6  C   UNL     1       3.540   5.727  19.607  0.00  0.00    +0.000 C 
ATOM      7  O   UNL     1       4.705   5.925  19.931  0.00  0.00    +0.000 OA
ATOM      8  C   UNL     1       3.942   3.320  19.362  0.00  0.00    +0.000 C 
ENDROOT
BRANCH   6   9
ATOM      9  C   UNL     1       2.696   6.937  19.364  0.00  0.00    +0.000 A 
ATOM     10  C   UNL     1       2.660   7.504  18.078  0.00  0.00    +0.000 A 
ATOM     11  C   UNL     1       1.949   8.690  17.851  0.00  0.00    +0.000 A 
ATOM     12  C   UNL     1       1.296   9.320  18.910  0.00  0.00    +0.000 A 
ATOM     13 CL   UNL     1       0.507  10.829  18.669  0.00  0.00    +0.000 Cl
ATOM     14  C   UNL     1       1.265   8.725  20.164  0.00  0.00    +0.000 A 
ATOM     15  C   UNL     1       1.916   7.512  20.362  0.00  0.00    +0.000 A 
ENDBRANCH   6   9
BRANCH   1  18
ATOM     16  C   UNL     1       5.741   4.344  15.399  0.00  0.00    +0.000 A 
ATOM     17  N   UNL     1       5.584   3.293  16.161  0.00  0.00    +0.000 NA
ATOM     18  C   UNL     1       4.511   3.649  16.940  0.00  0.00    +0.000 A 
ATOM     19  N   UNL     1       4.059   4.893  16.732  0.00  0.00    +0.000 NA
ATOM     20  O   UNL     1       4.875   5.360  15.692  0.00  0.00    +0.000 OA
BRANCH  16  22
ATOM     21  C   UNL     1       6.310   3.787  13.053  0.00  0.00    +0.000 C 
ATOM     22  C   UNL     1       6.709   4.554  14.303  0.00  0.00    +0.000 C 
ENDBRANCH  16  22
ENDBRANCH   1  18
TORSDOF 3
ENDMDL
MODEL 7
REMARK VINA RESULT:      -7.2      1.097      1.352
REMARK  Name = 
REMARK  4 active torsions:
REMARK  status: ('A' for Active; 'I' for Inactive)
REMARK    1  A    between atoms: C_1  and  C_2
REMARK    2  A    between atoms: C_2  and  C_3
REMARK    3  A    between atoms: C_5  and  C_6
REMARK    4  A    between atoms: C_11  and  C_13
REMARK                            x       y       z     vdW  Elec       q    Type
REMARK                         _______ _______ _______ _____ _____    ______ ____
ROOT
ATOM      1  C   UNL     1       7.067   4.736  16.292  0.00  0.00    +0.000 C 
ATOM      2  C   UNL     1       6.198   5.208  15.106  0.00  0.00    +0.000 C 
ATOM      3  C   UNL     1       4.781   5.621  15.528  0.00  0.00    +0.000 C 
ATOM      4  C   UNL     1       4.125   4.550  16.409  0.00  0.00    +0.000 C 
ATOM      5  N   UNL     1       4.996   4.180  17.529  0.00  0.00    +0.000 N 
ATOM      6  C   UNL     1       4.809   4.433  18.894  0.00  0.00    +0.000 C 
ATOM      7  O   UNL     1       5.553   3.984  19.758  0.00  0.00    +0.000 OA
ATOM      8  C   UNL     1       6.307   3.673  17.107  0.00  0.00    +0.000 C 
ENDROOT
BRANCH   6   9
ATOM      9  C   UNL     1       3.665   5.273  19.366  0.00  0.00    +0.000 A 
ATOM     10  C   UNL     1       3.507   6.572  18.850  0.00  0.00    +0.000 A 
ATOM     11  C   UNL     1       2.498   7.408  19.345  0.00  0.00    +0.000 A 
ATOM     12  C   UNL     1       1.663   6.956  20.368  0.00  0.00    +0.000 A 
ATOM     13 CL   UNL     1       0.488   8.005  21.056  0.00  0.00    +0.000 Cl
ATOM     14  C   UNL     1       1.766   5.649  20.826  0.00  0.00    +0.000 A 
ATOM     15  C   UNL     1       2.726   4.806  20.279  0.00  0.00    +0.000 A 
ENDBRANCH   6   9
BRANCH   1  18
ATOM     16  C   UNL     1       7.904   7.840  17.761  0.00  0.00    +0.000 A 
ATOM     17  N   UNL     1       7.538   7.172  16.697  0.00  0.00    +0.000 NA
ATOM     18  C   UNL     1       7.504   5.879  17.157  0.00  0.00    +0.000 A 
ATOM     19  N   UNL     1       7.900   5.728  18.427  0.00  0.00    +0.000 NA
ATOM     20  O   UNL     1       8.160   7.042  18.840  0.00  0.00    +0.000 OA
BRANCH  16  22
ATOM     21  C   UNL     1       9.064   9.627  19.024  0.00  0.00    +0.000 C 
ATOM     22  C   UNL     1       8.068   9.299  17.924  0.00  0.00    +0.000 C 
ENDBRANCH  16  22
ENDBRANCH   1  18
TORSDOF 3
ENDMDL
MODEL 8
REMARK VINA RESULT:      -7.2      3.045      4.705
REMARK  Name = 
REMARK  4 active torsions:
REMARK  status: ('A' for Active; 'I' for Inactive)
REMARK    1  A    between atoms: C_1  and  C_2
REMARK    2  A    between atoms: C_2  and  C_3
REMARK    3  A    between atoms: C_5  and  C_6
REMARK    4  A    between atoms: C_11  and  C_13
REMARK                            x       y       z     vdW  Elec       q    Type
REMARK                         _______ _______ _______ _____ _____    ______ ____
ROOT
ATOM      1  C   UNL     1       7.549   5.993  16.931  0.00  0.00    +0.000 C 
ATOM      2  C   UNL     1       8.060   5.164  18.129  0.00  0.00    +0.000 C 
ATOM      3  C   UNL     1       6.924   4.553  18.963  0.00  0.00    +0.000 C 
ATOM      4  C   UNL     1       5.868   5.605  19.324  0.00  0.00    +0.000 C 
ATOM      5  N   UNL     1       5.410   6.326  18.132  0.00  0.00    +0.000 N 
ATOM      6  C   UNL     1       4.152   6.276  17.517  0.00  0.00    +0.000 C 
ATOM      7  O   UNL     1       3.844   7.005  16.581  0.00  0.00    +0.000 OA
ATOM      8  C   UNL     1       6.491   7.006  17.409  0.00  0.00    +0.000 C 
ENDROOT
BRANCH   6   9
ATOM      9  C   UNL     1       3.108   5.317  17.991  0.00  0.00    +0.000 A 
ATOM     10  C   UNL     1       2.356   5.629  19.138  0.00  0.00    +0.000 A 
ATOM     11  C   UNL     1       1.438   4.704  19.651  0.00  0.00    +0.000 A 
ATOM     12  C   UNL     1       1.287   3.461  19.034  0.00  0.00    +0.000 A 
ATOM     13 CL   UNL     1       0.241   2.277  19.712  0.00  0.00    +0.000 Cl
ATOM     14  C   UNL     1       1.970   3.179  17.859  0.00  0.00    +0.000 A 
ATOM     15  C   UNL     1       2.827   4.131  17.319  0.00  0.00    +0.000 A 
ENDBRANCH   6   9
BRANCH   1  18
ATOM     16  C   UNL     1       6.707   4.364  13.910  0.00  0.00    +0.000 A 
ATOM     17  N   UNL     1       7.292   5.367  14.510  0.00  0.00    +0.000 NA
ATOM     18  C   UNL     1       7.017   5.125  15.833  0.00  0.00    +0.000 A 
ATOM     19  N   UNL     1       6.234   4.061  16.053  0.00  0.00    +0.000 NA
ATOM     20  O   UNL     1       6.030   3.541  14.767  0.00  0.00    +0.000 OA
BRANCH  16  22
ATOM     21  C   UNL     1       5.454   3.223  12.103  0.00  0.00    +0.000 C 
ATOM     22  C   UNL     1       6.689   4.030  12.471  0.00  0.00    +0.000 C 
ENDBRANCH  16  22
ENDBRANCH   1  18
TORSDOF 3
ENDMDL
MODEL 9
REMARK VINA RESULT:      -7.1      2.833      4.457
REMARK  Name = 
REMARK  4 active torsions:
REMARK  status: ('A' for Active; 'I' for Inactive)
REMARK    1  A    between atoms: C_1  and  C_2
REMARK    2  A    between atoms: C_2  and  C_3
REMARK    3  A    between atoms: C_5  and  C_6
REMARK    4  A    between atoms: C_11  and  C_13
REMARK                            x       y       z     vdW  Elec       q    Type
REMARK                         _______ _______ _______ _____ _____    ______ ____
ROOT
ATOM      1  C   UNL     1       2.905   2.324  19.164  0.00  0.00    +0.000 C 
ATOM      2  C   UNL     1       1.383   2.080  19.250  0.00  0.00    +0.000 C 
ATOM      3  C   UNL     1       0.575   3.377  19.394  0.00  0.00    +0.000 C 
ATOM      4  C   UNL     1       1.138   4.266  20.510  0.00  0.00    +0.000 C 
ATOM      5  N   UNL     1       2.579   4.477  20.341  0.00  0.00    +0.000 N 
ATOM      6  C   UNL     1       3.250   5.661  20.004  0.00  0.00    +0.000 C 
ATOM      7  O   UNL     1       4.472   5.749  19.993  0.00  0.00    +0.000 OA
ATOM      8  C   UNL     1       3.355   3.232  20.324  0.00  0.00    +0.000 C 
ENDROOT
BRANCH   6   9
ATOM      9  C   UNL     1       2.485   6.896  19.645  0.00  0.00    +0.000 A 
ATOM     10  C   UNL     1       2.480   7.338  18.310  0.00  0.00    +0.000 A 
ATOM     11  C   UNL     1       1.847   8.540  17.970  0.00  0.00    +0.000 A 
ATOM     12  C   UNL     1       1.241   9.311  18.963  0.00  0.00    +0.000 A 
ATOM     13 CL   UNL     1       0.551  10.837  18.577  0.00  0.00    +0.000 Cl
ATOM     14  C   UNL     1       1.177   8.841  20.268  0.00  0.00    +0.000 A 
ATOM     15  C   UNL     1       1.748   7.613  20.582  0.00  0.00    +0.000 A 
ENDBRANCH   6   9
BRANCH   1  18
ATOM     16  C   UNL     1       4.519   3.703  16.338  0.00  0.00    +0.000 A 
ATOM     17  N   UNL     1       4.572   3.375  17.603  0.00  0.00    +0.000 NA
ATOM     18  C   UNL     1       3.309   2.891  17.838  0.00  0.00    +0.000 A 
ATOM     19  N   UNL     1       2.475   2.977  16.793  0.00  0.00    +0.000 NA
ATOM     20  O   UNL     1       3.285   3.512  15.781  0.00  0.00    +0.000 OA
BRANCH  16  22
ATOM     21  C   UNL     1       5.525   5.751  15.376  0.00  0.00    +0.000 C 
ATOM     22  C   UNL     1       5.593   4.236  15.476  0.00  0.00    +0.000 C 
ENDBRANCH  16  22
ENDBRANCH   1  18
TORSDOF 3
ENDMDL
