MODEL 1
REMARK VINA RESULT:      -8.4      0.000      0.000
REMARK  Name = 
REMARK  9 active torsions:
REMARK  status: ('A' for Active; 'I' for Inactive)
REMARK    1  A    between atoms: C_2  and  C_3
REMARK    2  A    between atoms: N_5  and  C_6
REMARK    3  A    between atoms: C_9  and  O_10
REMARK    4  A    between atoms: O_10  and  C_11
REMARK    5  A    between atoms: C_12  and  N_13
REMARK    6  A    between atoms: C_16  and  C_17
REMARK    7  A    between atoms: C_19  and  S_20
REMARK    8  A    between atoms: S_20  and  C_21
REMARK    9  A    between atoms: C_23  and  C_24
REMARK                            x       y       z     vdW  Elec       q    Type
REMARK                         _______ _______ _______ _____ _____    ______ ____
ROOT
ATOM      1  N   UNL     1       0.511  10.799  17.969  0.00  0.00    +0.000 N 
ATOM      2  C   UNL     1       1.042   9.721  18.728  0.00  0.00    +0.000 A 
ATOM      3  C   UNL     1       1.728   8.704  18.067  0.00  0.00    +0.000 A 
ATOM      4  C   UNL     1       2.258   7.633  18.796  0.00  0.00    +0.000 A 
ATOM      5  C   UNL     1       1.990   7.580  20.163  0.00  0.00    +0.000 A 
ATOM      6  C   UNL     1       1.292   8.617  20.746  0.00  0.00    +0.000 A 
ATOM      7  N   UNL     1       0.826   9.673  20.059  0.00  0.00    +0.000 NA
ATOM      8  H   UNL     1       1.118  10.982  17.176  0.00  0.00    +0.000 HD
ENDROOT
BRANCH   1  13
ATOM      9  C   UNL     1      -1.479  13.433  19.735  0.00  0.00    +0.000 A 
ATOM     10  C   UNL     1      -0.550  14.462  19.814  0.00  0.00    +0.000 A 
ATOM     11  C   UNL     1       0.741  14.287  19.311  0.00  0.00    +0.000 A 
ATOM     12  C   UNL     1       1.137  13.093  18.695  0.00  0.00    +0.000 A 
ATOM     13  C   UNL     1       0.192  12.064  18.546  0.00  0.00    +0.000 A 
ATOM     14  C   UNL     1      -1.088  12.235  19.133  0.00  0.00    +0.000 A 
BRANCH   9  17
ATOM     15  C   UNL     1      -3.231  12.968  21.434  0.00  0.00    +0.000 C 
ATOM     16  O   UNL     1      -2.549  12.376  22.263  0.00  0.00    +0.000 OA
ATOM     17  N   UNL     1      -2.796  13.521  20.243  0.00  0.00    +0.000 N 
ATOM     18  H   UNL     1      -3.437  14.103  19.728  0.00  0.00    +0.000 HD
BRANCH  15  20
ATOM     19  C   UNL     1      -5.570  12.683  20.791  0.00  0.00    +0.000 C 
ATOM     20  C   UNL     1      -4.687  13.178  21.671  0.00  0.00    +0.000 C 
ENDBRANCH  15  20
ENDBRANCH   9  17
BRANCH  12  21
ATOM     21  O   UNL     1       2.450  13.137  18.313  0.00  0.00    +0.000 OA
ATOM     22  C   UNL     1       3.228  14.284  18.602  0.00  0.00    +0.000 C 
ENDBRANCH  12  21
ENDBRANCH   1  13
BRANCH   4  23
ATOM     23  C   UNL     1       3.126   6.639  18.158  0.00  0.00    +0.000 A 
ATOM     24  N   UNL     1       4.343   6.945  17.589  0.00  0.00    +0.000 N 
ATOM     25  C   UNL     1       4.910   5.793  17.140  0.00  0.00    +0.000 A 
ATOM     26  N   UNL     1       4.148   4.755  17.360  0.00  0.00    +0.000 NA
ATOM     27  C   UNL     1       3.027   5.254  17.997  0.00  0.00    +0.000 A 
ATOM     28  H   UNL     1       4.763   7.857  17.502  0.00  0.00    +0.000 HD
BRANCH  27  29
ATOM     29  C   UNL     1       1.918   4.337  18.413  0.00  0.00    +0.000 C 
ATOM     30  C   UNL     1       1.988   2.910  17.872  0.00  0.00    +0.000 C 
ATOM     31  C   UNL     1       0.944   2.174  18.706  0.00  0.00    +0.000 C 
ATOM     32  C   UNL     1       0.944   2.865  20.070  0.00  0.00    +0.000 C 
ATOM     33  C   UNL     1       1.842   4.089  19.921  0.00  0.00    +0.000 C 
ENDBRANCH  27  29
BRANCH  25  34
ATOM     34  S   UNL     1       6.459   5.850  16.391  0.00  0.00    +0.000 S 
ATOM     35  C   UNL     1       7.366   4.656  17.396  0.00  0.00    +0.000 C 
ENDBRANCH  25  34
ENDBRANCH   4  23
TORSDOF 7
ENDMDL
MODEL 2
REMARK VINA RESULT:      -8.3      1.670      4.010
REMARK  Name = 
REMARK  9 active torsions:
REMARK  status: ('A' for Active; 'I' for Inactive)
REMARK    1  A    between atoms: C_2  and  C_3
REMARK    2  A    between atoms: N_5  and  C_6
REMARK    3  A    between atoms: C_9  and  O_10
REMARK    4  A    between atoms: O_10  and  C_11
REMARK    5  A    between atoms: C_12  and  N_13
REMARK    6  A    between atoms: C_16  and  C_17
REMARK    7  A    between atoms: C_19  and  S_20
REMARK    8  A    between atoms: S_20  and  C_21
REMARK    9  A    between atoms: C_23  and  C_24
REMARK                            x       y       z     vdW  Elec       q    Type
REMARK                         _______ _______ _______ _____ _____    ______ ____
ROOT
ATOM      1  N   UNL     1       1.208  11.092  17.859  0.00  0.00    +0.000 N 
ATOM      2  C   UNL     1       1.490   9.920  18.610  0.00  0.00    +0.000 A 
ATOM      3  C   UNL     1       2.118   8.848  17.977  0.00  0.00    +0.000 A 
ATOM      4  C   UNL     1       2.404   7.684  18.700  0.00  0.00    +0.000 A 
ATOM      5  C   UNL     1       1.957   7.608  20.017  0.00  0.00    +0.000 A 
ATOM      6  C   UNL     1       1.331   8.704  20.573  0.00  0.00    +0.000 A 
ATOM      7  N   UNL     1       1.099   9.844  19.899  0.00  0.00    +0.000 NA
ATOM      8  H   UNL     1       1.931  11.225  17.158  0.00  0.00    +0.000 HD
ENDROOT
BRANCH   1  13
ATOM      9  C   UNL     1       1.955  14.515  19.181  0.00  0.00    +0.000 A 
ATOM     10  C   UNL     1       0.687  14.939  19.556  0.00  0.00    +0.000 A 
ATOM     11  C   UNL     1      -0.421  14.115  19.353  0.00  0.00    +0.000 A 
ATOM     12  C   UNL     1      -0.298  12.836  18.793  0.00  0.00    +0.000 A 
ATOM     13  C   UNL     1       0.984  12.362  18.468  0.00  0.00    +0.000 A 
ATOM     14  C   UNL     1       2.085  13.246  18.611  0.00  0.00    +0.000 A 
BRANCH   9  17
ATOM     15  C   UNL     1       3.687  16.084  18.338  0.00  0.00    +0.000 C 
ATOM     16  O   UNL     1       3.245  16.278  17.212  0.00  0.00    +0.000 OA
ATOM     17  N   UNL     1       3.122  15.298  19.328  0.00  0.00    +0.000 N 
ATOM     18  H   UNL     1       3.519  15.343  20.252  0.00  0.00    +0.000 HD
BRANCH  15  20
ATOM     19  C   UNL     1       5.110  17.054  20.070  0.00  0.00    +0.000 C 
ATOM     20  C   UNL     1       4.948  16.745  18.775  0.00  0.00    +0.000 C 
ENDBRANCH  15  20
ENDBRANCH   9  17
BRANCH  12  21
ATOM     21  O   UNL     1      -1.515  12.228  18.658  0.00  0.00    +0.000 OA
ATOM     22  C   UNL     1      -2.496  12.386  19.666  0.00  0.00    +0.000 C 
ENDBRANCH  12  21
ENDBRANCH   1  13
BRANCH   4  23
ATOM     23  C   UNL     1       3.211   6.609  18.113  0.00  0.00    +0.000 A 
ATOM     24  N   UNL     1       4.431   6.817  17.507  0.00  0.00    +0.000 N 
ATOM     25  C   UNL     1       4.932   5.612  17.124  0.00  0.00    +0.000 A 
ATOM     26  N   UNL     1       4.125   4.629  17.423  0.00  0.00    +0.000 NA
ATOM     27  C   UNL     1       3.041   5.223  18.043  0.00  0.00    +0.000 A 
ATOM     28  H   UNL     1       4.893   7.699  17.355  0.00  0.00    +0.000 HD
BRANCH  27  29
ATOM     29  C   UNL     1       1.897   4.391  18.534  0.00  0.00    +0.000 C 
ATOM     30  C   UNL     1       1.803   2.976  17.965  0.00  0.00    +0.000 C 
ATOM     31  C   UNL     1       0.772   2.310  18.871  0.00  0.00    +0.000 C 
ATOM     32  C   UNL     1       0.940   2.966  20.242  0.00  0.00    +0.000 C 
ATOM     33  C   UNL     1       1.923   4.115  20.039  0.00  0.00    +0.000 C 
ENDBRANCH  27  29
BRANCH  25  34
ATOM     34  S   UNL     1       6.468   5.544  16.349  0.00  0.00    +0.000 S 
ATOM     35  C   UNL     1       7.417   4.600  17.560  0.00  0.00    +0.000 C 
ENDBRANCH  25  34
ENDBRANCH   4  23
TORSDOF 7
ENDMDL
MODEL 3
REMARK VINA RESULT:      -8.3      2.184      3.902
REMARK  Name = 
REMARK  9 active torsions:
REMARK  status: ('A' for Active; 'I' for Inactive)
REMARK    1  A    between atoms: C_2  and  C_3
REMARK    2  A    between atoms: N_5  and  C_6
REMARK    3  A    between atoms: C_9  and  O_10
REMARK    4  A    between atoms: O_10  and  C_11
REMARK    5  A    between atoms: C_12  and  N_13
REMARK    6  A    between atoms: C_16  and  C_17
REMARK    7  A    between atoms: C_19  and  S_20
REMARK    8  A    between atoms: S_20  and  C_21
REMARK    9  A    between atoms: C_23  and  C_24
REMARK                            x       y       z     vdW  Elec       q    Type
REMARK                         _______ _______ _______ _____ _____    ______ ____
ROOT
ATOM      1  N   UNL     1       1.257  10.049  17.785  0.00  0.00    +0.000 N 
ATOM      2  C   UNL     1       1.700   8.899  18.491  0.00  0.00    +0.000 A 
ATOM      3  C   UNL     1       2.389   7.905  17.798  0.00  0.00    +0.000 A 
ATOM      4  C   UNL     1       2.833   6.763  18.476  0.00  0.00    +0.000 A 
ATOM      5  C   UNL     1       2.479   6.623  19.816  0.00  0.00    +0.000 A 
ATOM      6  C   UNL     1       1.784   7.642  20.433  0.00  0.00    +0.000 A 
ATOM      7  N   UNL     1       1.399   8.763  19.800  0.00  0.00    +0.000 NA
ATOM      8  H   UNL     1       1.918  10.264  17.045  0.00  0.00    +0.000 HD
ENDROOT
BRANCH   1  13
ATOM      9  C   UNL     1       1.786  13.442  19.278  0.00  0.00    +0.000 A 
ATOM     10  C   UNL     1       0.484  13.793  19.612  0.00  0.00    +0.000 A 
ATOM     11  C   UNL     1      -0.575  12.929  19.325  0.00  0.00    +0.000 A 
ATOM     12  C   UNL     1      -0.368  11.682  18.720  0.00  0.00    +0.000 A 
ATOM     13  C   UNL     1       0.948  11.280  18.435  0.00  0.00    +0.000 A 
ATOM     14  C   UNL     1       2.000  12.205  18.664  0.00  0.00    +0.000 A 
BRANCH   9  17
ATOM     15  C   UNL     1       3.658  14.291  20.673  0.00  0.00    +0.000 C 
ATOM     16  O   UNL     1       3.517  13.567  21.652  0.00  0.00    +0.000 OA
ATOM     17  N   UNL     1       2.908  14.269  19.510  0.00  0.00    +0.000 N 
ATOM     18  H   UNL     1       3.225  14.824  18.731  0.00  0.00    +0.000 HD
BRANCH  15  20
ATOM     19  C   UNL     1       5.749  15.170  19.767  0.00  0.00    +0.000 C 
ATOM     20  C   UNL     1       4.742  15.312  20.641  0.00  0.00    +0.000 C 
ENDBRANCH  15  20
ENDBRANCH   9  17
BRANCH  12  21
ATOM     21  O   UNL     1      -1.548  11.026  18.505  0.00  0.00    +0.000 OA
ATOM     22  C   UNL     1      -2.256  11.231  17.297  0.00  0.00    +0.000 C 
ENDBRANCH  12  21
ENDBRANCH   1  13
BRANCH   4  23
ATOM     23  C   UNL     1       3.703   5.783  17.818  0.00  0.00    +0.000 A 
ATOM     24  N   UNL     1       4.773   6.130  17.021  0.00  0.00    +0.000 N 
ATOM     25  C   UNL     1       5.395   4.990  16.617  0.00  0.00    +0.000 A 
ATOM     26  N   UNL     1       4.805   3.920  17.080  0.00  0.00    +0.000 NA
ATOM     27  C   UNL     1       3.745   4.387  17.835  0.00  0.00    +0.000 A 
ATOM     28  H   UNL     1       5.063   7.059  16.761  0.00  0.00    +0.000 HD
BRANCH  27  29
ATOM     29  C   UNL     1       2.830   3.428  18.534  0.00  0.00    +0.000 C 
ATOM     30  C   UNL     1       2.884   3.441  20.061  0.00  0.00    +0.000 C 
ATOM     31  C   UNL     1       1.655   2.627  20.454  0.00  0.00    +0.000 C 
ATOM     32  C   UNL     1       0.620   2.885  19.359  0.00  0.00    +0.000 C 
ATOM     33  C   UNL     1       1.343   3.681  18.277  0.00  0.00    +0.000 C 
ENDBRANCH  27  29
BRANCH  25  34
ATOM     34  S   UNL     1       6.792   5.099  15.616  0.00  0.00    +0.000 S 
ATOM     35  C   UNL     1       6.260   4.134  14.186  0.00  0.00    +0.000 C 
ENDBRANCH  25  34
ENDBRANCH   4  23
TORSDOF 7
ENDMDL
MODEL 4
REMARK VINA RESULT:      -8.2      2.616      4.417
REMARK  Name = 
REMARK  9 active torsions:
REMARK  status: ('A' for Active; 'I' for Inactive)
REMARK    1  A    between atoms: C_2  and  C_3
REMARK    2  A    between atoms: N_5  and  C_6
REMARK    3  A    between atoms: C_9  and  O_10
REMARK    4  A    between atoms: O_10  and  C_11
REMARK    5  A    between atoms: C_12  and  N_13
REMARK    6  A    between atoms: C_16  and  C_17
REMARK    7  A    between atoms: C_19  and  S_20
REMARK    8  A    between atoms: S_20  and  C_21
REMARK    9  A    between atoms: C_23  and  C_24
REMARK                            x       y       z     vdW  Elec       q    Type
REMARK                         _______ _______ _______ _____ _____    ______ ____
ROOT
ATOM      1  N   UNL     1       0.329   9.986  20.768  0.00  0.00    +0.000 N 
ATOM      2  C   UNL     1       1.109   9.338  19.774  0.00  0.00    +0.000 A 
ATOM      3  C   UNL     1       1.658   8.088  20.055  0.00  0.00    +0.000 A 
ATOM      4  C   UNL     1       2.431   7.433  19.088  0.00  0.00    +0.000 A 
ATOM      5  C   UNL     1       2.703   8.113  17.903  0.00  0.00    +0.000 A 
ATOM      6  C   UNL     1       2.137   9.354  17.700  0.00  0.00    +0.000 A 
ATOM      7  N   UNL     1       1.351   9.965  18.603  0.00  0.00    +0.000 NA
ATOM      8  H   UNL     1      -0.167   9.287  21.314  0.00  0.00    +0.000 HD
ENDROOT
BRANCH   1  13
ATOM      9  C   UNL     1      -2.222  11.925  18.830  0.00  0.00    +0.000 A 
ATOM     10  C   UNL     1      -2.565  12.909  19.749  0.00  0.00    +0.000 A 
ATOM     11  C   UNL     1      -1.979  12.924  21.016  0.00  0.00    +0.000 A 
ATOM     12  C   UNL     1      -1.020  11.977  21.399  0.00  0.00    +0.000 A 
ATOM     13  C   UNL     1      -0.611  11.014  20.461  0.00  0.00    +0.000 A 
ATOM     14  C   UNL     1      -1.275  10.970  19.207  0.00  0.00    +0.000 A 
BRANCH   9  17
ATOM     15  C   UNL     1      -3.903  11.075  17.211  0.00  0.00    +0.000 C 
ATOM     16  O   UNL     1      -4.613  10.437  17.981  0.00  0.00    +0.000 OA
ATOM     17  N   UNL     1      -2.787  11.824  17.538  0.00  0.00    +0.000 N 
ATOM     18  H   UNL     1      -2.385  12.411  16.826  0.00  0.00    +0.000 HD
BRANCH  15  20
ATOM     19  C   UNL     1      -3.460  10.427  14.898  0.00  0.00    +0.000 C 
ATOM     20  C   UNL     1      -4.223  11.119  15.757  0.00  0.00    +0.000 C 
ENDBRANCH  15  20
ENDBRANCH   9  17
BRANCH  12  21
ATOM     21  O   UNL     1      -0.614  12.167  22.691  0.00  0.00    +0.000 OA
ATOM     22  C   UNL     1      -1.123  13.259  23.434  0.00  0.00    +0.000 C 
ENDBRANCH  12  21
ENDBRANCH   1  13
BRANCH   4  23
ATOM     23  C   UNL     1       2.879   6.052  19.287  0.00  0.00    +0.000 A 
ATOM     24  N   UNL     1       2.026   5.009  19.577  0.00  0.00    +0.000 N 
ATOM     25  C   UNL     1       2.754   3.863  19.642  0.00  0.00    +0.000 A 
ATOM     26  N   UNL     1       4.025   4.077  19.429  0.00  0.00    +0.000 NA
ATOM     27  C   UNL     1       4.132   5.437  19.202  0.00  0.00    +0.000 A 
ATOM     28  H   UNL     1       1.031   5.060  19.726  0.00  0.00    +0.000 HD
BRANCH  27  29
ATOM     29  C   UNL     1       5.464   6.057  18.914  0.00  0.00    +0.000 C 
ATOM     30  C   UNL     1       6.687   5.267  19.378  0.00  0.00    +0.000 C 
ATOM     31  C   UNL     1       7.841   5.974  18.674  0.00  0.00    +0.000 C 
ATOM     32  C   UNL     1       7.266   6.491  17.356  0.00  0.00    +0.000 C 
ATOM     33  C   UNL     1       5.763   6.236  17.425  0.00  0.00    +0.000 C 
ENDBRANCH  27  29
BRANCH  25  34
ATOM     34  S   UNL     1       1.957   2.373  19.973  0.00  0.00    +0.000 S 
ATOM     35  C   UNL     1       1.484   2.616  21.698  0.00  0.00    +0.000 C 
ENDBRANCH  25  34
ENDBRANCH   4  23
TORSDOF 7
ENDMDL
MODEL 5
REMARK VINA RESULT:      -8.2      1.908      3.799
REMARK  Name = 
REMARK  9 active torsions:
REMARK  status: ('A' for Active; 'I' for Inactive)
REMARK    1  A    between atoms: C_2  and  C_3
REMARK    2  A    between atoms: N_5  and  C_6
REMARK    3  A    between atoms: C_9  and  O_10
REMARK    4  A    between atoms: O_10  and  C_11
REMARK    5  A    between atoms: C_12  and  N_13
REMARK    6  A    between atoms: C_16  and  C_17
REMARK    7  A    between atoms: C_19  and  S_20
REMARK    8  A    between atoms: S_20  and  C_21
REMARK    9  A    between atoms: C_23  and  C_24
REMARK                            x       y       z     vdW  Elec       q    Type
REMARK                         _______ _______ _______ _____ _____    ______ ____
ROOT
ATOM      1  N   UNL     1       1.321  11.017  17.944  0.00  0.00    +0.000 N 
ATOM      2  C   UNL     1       1.550   9.831  18.692  0.00  0.00    +0.000 A 
ATOM      3  C   UNL     1       2.169   8.749  18.069  0.00  0.00    +0.000 A 
ATOM      4  C   UNL     1       2.403   7.571  18.789  0.00  0.00    +0.000 A 
ATOM      5  C   UNL     1       1.912   7.496  20.091  0.00  0.00    +0.000 A 
ATOM      6  C   UNL     1       1.297   8.602  20.637  0.00  0.00    +0.000 A 
ATOM      7  N   UNL     1       1.116   9.754  19.968  0.00  0.00    +0.000 NA
ATOM      8  H   UNL     1       2.070  11.137  17.268  0.00  0.00    +0.000 HD
ENDROOT
BRANCH   1  13
ATOM      9  C   UNL     1       2.131  14.266  19.619  0.00  0.00    +0.000 A 
ATOM     10  C   UNL     1       0.873  14.847  19.699  0.00  0.00    +0.000 A 
ATOM     11  C   UNL     1      -0.243  14.186  19.181  0.00  0.00    +0.000 A 
ATOM     12  C   UNL     1      -0.143  12.920  18.590  0.00  0.00    +0.000 A 
ATOM     13  C   UNL     1       1.111  12.287  18.559  0.00  0.00    +0.000 A 
ATOM     14  C   UNL     1       2.242  13.009  19.021  0.00  0.00    +0.000 A 
BRANCH   9  17
ATOM     15  C   UNL     1       3.687  14.967  21.425  0.00  0.00    +0.000 C 
ATOM     16  O   UNL     1       3.103  14.483  22.387  0.00  0.00    +0.000 OA
ATOM     17  N   UNL     1       3.312  14.880  20.095  0.00  0.00    +0.000 N 
ATOM     18  H   UNL     1       3.963  15.204  19.397  0.00  0.00    +0.000 HD
BRANCH  15  20
ATOM     19  C   UNL     1       5.925  15.623  20.698  0.00  0.00    +0.000 C 
ATOM     20  C   UNL     1       4.955  15.725  21.618  0.00  0.00    +0.000 C 
ENDBRANCH  15  20
ENDBRANCH   9  17
BRANCH  12  21
ATOM     21  O   UNL     1      -1.353  12.486  18.125  0.00  0.00    +0.000 OA
ATOM     22  C   UNL     1      -2.324  12.003  19.034  0.00  0.00    +0.000 C 
ENDBRANCH  12  21
ENDBRANCH   1  13
BRANCH   4  23
ATOM     23  C   UNL     1       3.200   6.481  18.218  0.00  0.00    +0.000 A 
ATOM     24  N   UNL     1       4.412   6.672  17.591  0.00  0.00    +0.000 N 
ATOM     25  C   UNL     1       4.906   5.458  17.230  0.00  0.00    +0.000 A 
ATOM     26  N   UNL     1       4.101   4.484  17.563  0.00  0.00    +0.000 NA
ATOM     27  C   UNL     1       3.027   5.094  18.183  0.00  0.00    +0.000 A 
ATOM     28  H   UNL     1       4.873   7.550  17.411  0.00  0.00    +0.000 HD
BRANCH  27  29
ATOM     29  C   UNL     1       1.888   4.276  18.710  0.00  0.00    +0.000 C 
ATOM     30  C   UNL     1       1.681   2.913  18.053  0.00  0.00    +0.000 C 
ATOM     31  C   UNL     1       0.697   2.224  18.993  0.00  0.00    +0.000 C 
ATOM     32  C   UNL     1       1.007   2.769  20.387  0.00  0.00    +0.000 C 
ATOM     33  C   UNL     1       2.023   3.889  20.183  0.00  0.00    +0.000 C 
ENDBRANCH  27  29
BRANCH  25  34
ATOM     34  S   UNL     1       6.431   5.368  16.436  0.00  0.00    +0.000 S 
ATOM     35  C   UNL     1       5.912   5.018  14.743  0.00  0.00    +0.000 C 
ENDBRANCH  25  34
ENDBRANCH   4  23
TORSDOF 7
ENDMDL
MODEL 6
REMARK VINA RESULT:      -8.1      1.137      1.325
REMARK  Name = 
REMARK  9 active torsions:
REMARK  status: ('A' for Active; 'I' for Inactive)
REMARK    1  A    between atoms: C_2  and  C_3
REMARK    2  A    between atoms: N_5  and  C_6
REMARK    3  A    between atoms: C_9  and  O_10
REMARK    4  A    between atoms: O_10  and  C_11
REMARK    5  A    between atoms: C_12  and  N_13
REMARK    6  A    between atoms: C_16  and  C_17
REMARK    7  A    between atoms: C_19  and  S_20
REMARK    8  A    between atoms: S_20  and  C_21
REMARK    9  A    between atoms: C_23  and  C_24
REMARK                            x       y       z     vdW  Elec       q    Type
REMARK                         _______ _______ _______ _____ _____    ______ ____
ROOT
ATOM      1  N   UNL     1       1.070  10.435  18.049  0.00  0.00    +0.000 N 
ATOM      2  C   UNL     1       1.524   9.248  18.682  0.00  0.00    +0.000 A 
ATOM      3  C   UNL     1       2.184   8.286  17.919  0.00  0.00    +0.000 A 
ATOM      4  C   UNL     1       2.640   7.109  18.525  0.00  0.00    +0.000 A 
ATOM      5  C   UNL     1       2.324   6.902  19.866  0.00  0.00    +0.000 A 
ATOM      6  C   UNL     1       1.656   7.893  20.554  0.00  0.00    +0.000 A 
ATOM      7  N   UNL     1       1.262   9.048  19.991  0.00  0.00    +0.000 NA
ATOM      8  H   UNL     1       1.711  10.683  17.301  0.00  0.00    +0.000 HD
ENDROOT
BRANCH   1  13
ATOM      9  C   UNL     1      -0.681  12.785  20.379  0.00  0.00    +0.000 A 
ATOM     10  C   UNL     1       0.164  13.886  20.333  0.00  0.00    +0.000 A 
ATOM     11  C   UNL     1       1.325  13.853  19.557  0.00  0.00    +0.000 A 
ATOM     12  C   UNL     1       1.666  12.733  18.787  0.00  0.00    +0.000 A 
ATOM     13  C   UNL     1       0.790  11.634  18.769  0.00  0.00    +0.000 A 
ATOM     14  C   UNL     1      -0.342  11.660  19.624  0.00  0.00    +0.000 A 
BRANCH   9  17
ATOM     15  C   UNL     1      -1.918  12.358  22.491  0.00  0.00    +0.000 C 
ATOM     16  O   UNL     1      -0.972  12.082  23.221  0.00  0.00    +0.000 OA
ATOM     17  N   UNL     1      -1.858  12.729  21.159  0.00  0.00    +0.000 N 
ATOM     18  H   UNL     1      -2.702  13.066  20.723  0.00  0.00    +0.000 HD
BRANCH  15  20
ATOM     19  C   UNL     1      -4.243  13.105  22.441  0.00  0.00    +0.000 C 
ATOM     20  C   UNL     1      -3.309  12.339  23.024  0.00  0.00    +0.000 C 
ENDBRANCH  15  20
ENDBRANCH   9  17
BRANCH  12  21
ATOM     21  O   UNL     1       2.857  12.913  18.140  0.00  0.00    +0.000 OA
ATOM     22  C   UNL     1       3.555  14.135  18.280  0.00  0.00    +0.000 C 
ENDBRANCH  12  21
ENDBRANCH   1  13
BRANCH   4  23
ATOM     23  C   UNL     1       3.482   6.158  17.792  0.00  0.00    +0.000 A 
ATOM     24  N   UNL     1       4.482   6.539  16.924  0.00  0.00    +0.000 N 
ATOM     25  C   UNL     1       5.099   5.420  16.461  0.00  0.00    +0.000 A 
ATOM     26  N   UNL     1       4.570   4.330  16.951  0.00  0.00    +0.000 NA
ATOM     27  C   UNL     1       3.557   4.762  17.788  0.00  0.00    +0.000 A 
ATOM     28  H   UNL     1       4.730   7.478  16.656  0.00  0.00    +0.000 HD
BRANCH  27  29
ATOM     29  C   UNL     1       2.719   3.774  18.539  0.00  0.00    +0.000 C 
ATOM     30  C   UNL     1       1.232   3.755  18.192  0.00  0.00    +0.000 C 
ATOM     31  C   UNL     1       0.740   2.474  18.860  0.00  0.00    +0.000 C 
ATOM     32  C   UNL     1       1.921   1.505  18.815  0.00  0.00    +0.000 C 
ATOM     33  C   UNL     1       3.108   2.314  18.301  0.00  0.00    +0.000 C 
ENDBRANCH  27  29
BRANCH  25  34
ATOM     34  S   UNL     1       6.416   5.574  15.362  0.00  0.00    +0.000 S 
ATOM     35  C   UNL     1       6.288   4.017  14.458  0.00  0.00    +0.000 C 
ENDBRANCH  25  34
ENDBRANCH   4  23
TORSDOF 7
ENDMDL
MODEL 7
REMARK VINA RESULT:      -8.1      1.720      3.734
REMARK  Name = 
REMARK  9 active torsions:
REMARK  status: ('A' for Active; 'I' for Inactive)
REMARK    1  A    between atoms: C_2  and  C_3
REMARK    2  A    between atoms: N_5  and  C_6
REMARK    3  A    between atoms: C_9  and  O_10
REMARK    4  A    between atoms: O_10  and  C_11
REMARK    5  A    between atoms: C_12  and  N_13
REMARK    6  A    between atoms: C_16  and  C_17
REMARK    7  A    between atoms: C_19  and  S_20
REMARK    8  A    between atoms: S_20  and  C_21
REMARK    9  A    between atoms: C_23  and  C_24
REMARK                            x       y       z     vdW  Elec       q    Type
REMARK                         _______ _______ _______ _____ _____    ______ ____
ROOT
ATOM      1  N   UNL     1       0.625  11.009  18.052  0.00  0.00    +0.000 N 
ATOM      2  C   UNL     1       1.097   9.886  18.783  0.00  0.00    +0.000 A 
ATOM      3  C   UNL     1       1.750   8.862  18.099  0.00  0.00    +0.000 A 
ATOM      4  C   UNL     1       2.222   7.747  18.801  0.00  0.00    +0.000 A 
ATOM      5  C   UNL     1       1.931   7.662  20.161  0.00  0.00    +0.000 A 
ATOM      6  C   UNL     1       1.268   8.708  20.768  0.00  0.00    +0.000 A 
ATOM      7  N   UNL     1       0.858   9.805  20.108  0.00  0.00    +0.000 NA
ATOM      8  H   UNL     1       1.252  11.191  17.274  0.00  0.00    +0.000 HD
ENDROOT
BRANCH   1  13
ATOM      9  C   UNL     1       1.128  14.566  19.109  0.00  0.00    +0.000 A 
ATOM     10  C   UNL     1      -0.085  14.834  19.731  0.00  0.00    +0.000 A 
ATOM     11  C   UNL     1      -1.082  13.857  19.784  0.00  0.00    +0.000 A 
ATOM     12  C   UNL     1      -0.893  12.580  19.240  0.00  0.00    +0.000 A 
ATOM     13  C   UNL     1       0.351  12.267  18.665  0.00  0.00    +0.000 A 
ATOM     14  C   UNL     1       1.320  13.298  18.555  0.00  0.00    +0.000 A 
BRANCH   9  17
ATOM     15  C   UNL     1       3.104  15.797  19.976  0.00  0.00    +0.000 C 
ATOM     16  O   UNL     1       3.210  15.254  21.069  0.00  0.00    +0.000 OA
ATOM     17  N   UNL     1       2.176  15.507  18.991  0.00  0.00    +0.000 N 
ATOM     18  H   UNL     1       2.296  15.934  18.087  0.00  0.00    +0.000 HD
BRANCH  15  20
ATOM     19  C   UNL     1       5.013  16.605  18.685  0.00  0.00    +0.000 C 
ATOM     20  C   UNL     1       4.050  16.877  19.577  0.00  0.00    +0.000 C 
ENDBRANCH  15  20
ENDBRANCH   9  17
BRANCH  12  21
ATOM     21  O   UNL     1      -2.012  11.806  19.377  0.00  0.00    +0.000 OA
ATOM     22  C   UNL     1      -2.868  11.606  18.269  0.00  0.00    +0.000 C 
ENDBRANCH  12  21
ENDBRANCH   1  13
BRANCH   4  23
ATOM     23  C   UNL     1       3.058   6.737  18.143  0.00  0.00    +0.000 A 
ATOM     24  N   UNL     1       4.263   7.022  17.538  0.00  0.00    +0.000 N 
ATOM     25  C   UNL     1       4.800   5.861  17.079  0.00  0.00    +0.000 A 
ATOM     26  N   UNL     1       4.030   4.834  17.326  0.00  0.00    +0.000 NA
ATOM     27  C   UNL     1       2.934   5.353  17.992  0.00  0.00    +0.000 A 
ATOM     28  H   UNL     1       4.692   7.928  17.435  0.00  0.00    +0.000 HD
BRANCH  27  29
ATOM     29  C   UNL     1       1.825   4.454  18.444  0.00  0.00    +0.000 C 
ATOM     30  C   UNL     1       1.875   3.016  17.931  0.00  0.00    +0.000 C 
ATOM     31  C   UNL     1       0.838   2.306  18.796  0.00  0.00    +0.000 C 
ATOM     32  C   UNL     1       0.867   3.023  20.146  0.00  0.00    +0.000 C 
ATOM     33  C   UNL     1       1.772   4.236  19.958  0.00  0.00    +0.000 C 
ENDBRANCH  27  29
BRANCH  25  34
ATOM     34  S   UNL     1       6.328   5.892  16.286  0.00  0.00    +0.000 S 
ATOM     35  C   UNL     1       6.394   4.218  15.613  0.00  0.00    +0.000 C 
ENDBRANCH  25  34
ENDBRANCH   4  23
TORSDOF 7
ENDMDL
MODEL 8
REMARK VINA RESULT:      -8.1      0.838      1.092
REMARK  Name = 
REMARK  9 active torsions:
REMARK  status: ('A' for Active; 'I' for Inactive)
REMARK    1  A    between atoms: C_2  and  C_3
REMARK    2  A    between atoms: N_5  and  C_6
REMARK    3  A    between atoms: C_9  and  O_10
REMARK    4  A    between atoms: O_10  and  C_11
REMARK    5  A    between atoms: C_12  and  N_13
REMARK    6  A    between atoms: C_16  and  C_17
REMARK    7  A    between atoms: C_19  and  S_20
REMARK    8  A    between atoms: S_20  and  C_21
REMARK    9  A    between atoms: C_23  and  C_24
REMARK                            x       y       z     vdW  Elec       q    Type
REMARK                         _______ _______ _______ _____ _____    ______ ____
ROOT
ATOM      1  N   UNL     1       0.849  10.243  17.846  0.00  0.00    +0.000 N 
ATOM      2  C   UNL     1       1.352   9.190  18.656  0.00  0.00    +0.000 A 
ATOM      3  C   UNL     1       2.131   8.198  18.065  0.00  0.00    +0.000 A 
ATOM      4  C   UNL     1       2.635   7.151  18.845  0.00  0.00    +0.000 A 
ATOM      5  C   UNL     1       2.251   7.093  20.184  0.00  0.00    +0.000 A 
ATOM      6  C   UNL     1       1.467   8.105  20.697  0.00  0.00    +0.000 A 
ATOM      7  N   UNL     1       1.022   9.140  19.964  0.00  0.00    +0.000 NA
ATOM      8  H   UNL     1       1.515  10.447  17.107  0.00  0.00    +0.000 HD
ENDROOT
BRANCH   1  13
ATOM      9  C   UNL     1      -1.402  12.822  19.365  0.00  0.00    +0.000 A 
ATOM     10  C   UNL     1      -0.513  13.872  19.560  0.00  0.00    +0.000 A 
ATOM     11  C   UNL     1       0.833  13.728  19.217  0.00  0.00    +0.000 A 
ATOM     12  C   UNL     1       1.329  12.547  18.650  0.00  0.00    +0.000 A 
ATOM     13  C   UNL     1       0.433  11.497  18.384  0.00  0.00    +0.000 A 
ATOM     14  C   UNL     1      -0.913  11.637  18.811  0.00  0.00    +0.000 A 
BRANCH   9  17
ATOM     15  C   UNL     1      -3.291  12.613  20.964  0.00  0.00    +0.000 C 
ATOM     16  O   UNL     1      -2.660  12.354  21.982  0.00  0.00    +0.000 OA
ATOM     17  N   UNL     1      -2.772  12.877  19.709  0.00  0.00    +0.000 N 
ATOM     18  H   UNL     1      -3.400  13.215  18.998  0.00  0.00    +0.000 HD
BRANCH  15  20
ATOM     19  C   UNL     1      -5.377  13.204  22.089  0.00  0.00    +0.000 C 
ATOM     20  C   UNL     1      -4.778  12.695  21.003  0.00  0.00    +0.000 C 
ENDBRANCH  15  20
ENDBRANCH   9  17
BRANCH  12  21
ATOM     21  O   UNL     1       2.677  12.623  18.431  0.00  0.00    +0.000 OA
ATOM     22  C   UNL     1       3.317  13.885  18.419  0.00  0.00    +0.000 C 
ENDBRANCH  12  21
ENDBRANCH   1  13
BRANCH   4  23
ATOM     23  C   UNL     1       3.593   6.188  18.292  0.00  0.00    +0.000 A 
ATOM     24  N   UNL     1       4.694   6.552  17.547  0.00  0.00    +0.000 N 
ATOM     25  C   UNL     1       5.395   5.429  17.240  0.00  0.00    +0.000 A 
ATOM     26  N   UNL     1       4.830   4.352  17.717  0.00  0.00    +0.000 NA
ATOM     27  C   UNL     1       3.701   4.797  18.381  0.00  0.00    +0.000 A 
ATOM     28  H   UNL     1       4.954   7.482  17.260  0.00  0.00    +0.000 HD
BRANCH  27  29
ATOM     29  C   UNL     1       2.792   3.826  19.068  0.00  0.00    +0.000 C 
ATOM     30  C   UNL     1       2.624   4.014  20.575  0.00  0.00    +0.000 C 
ATOM     31  C   UNL     1       1.435   3.116  20.903  0.00  0.00    +0.000 C 
ATOM     32  C   UNL     1       0.548   3.134  19.658  0.00  0.00    +0.000 C 
ATOM     33  C   UNL     1       1.340   3.881  18.589  0.00  0.00    +0.000 C 
ENDBRANCH  27  29
BRANCH  25  34
ATOM     34  S   UNL     1       6.847   5.564  16.323  0.00  0.00    +0.000 S 
ATOM     35  C   UNL     1       6.450   4.520  14.905  0.00  0.00    +0.000 C 
ENDBRANCH  25  34
ENDBRANCH   4  23
TORSDOF 7
ENDMDL
MODEL 9
REMARK VINA RESULT:      -7.9      2.104      3.626
REMARK  Name = 
REMARK  9 active torsions:
REMARK  status: ('A' for Active; 'I' for Inactive)
REMARK    1  A    between atoms: C_2  and  C_3
REMARK    2  A    between atoms: N_5  and  C_6
REMARK    3  A    between atoms: C_9  and  O_10
REMARK    4  A    between atoms: O_10  and  C_11
REMARK    5  A    between atoms: C_12  and  N_13
REMARK    6  A    between atoms: C_16  and  C_17
REMARK    7  A    between atoms: C_19  and  S_20
REMARK    8  A    between atoms: S_20  and  C_21
REMARK    9  A    between atoms: C_23  and  C_24
REMARK                            x       y       z     vdW  Elec       q    Type
REMARK                         _______ _______ _______ _____ _____    ______ ____
ROOT
ATOM      1  N   UNL     1       1.052  10.132  17.975  0.00  0.00    +0.000 N 
ATOM      2  C   UNL     1       1.465   9.045  18.792  0.00  0.00    +0.000 A 
ATOM      3  C   UNL     1       2.277   8.057  18.239  0.00  0.00    +0.000 A 
ATOM      4  C   UNL     1       2.695   6.977  19.027  0.00  0.00    +0.000 A 
ATOM      5  C   UNL     1       2.194   6.886  20.324  0.00  0.00    +0.000 A 
ATOM      6  C   UNL     1       1.383   7.895  20.798  0.00  0.00    +0.000 A 
ATOM      7  N   UNL     1       1.021   8.960  20.063  0.00  0.00    +0.000 NA
ATOM      8  H   UNL     1       1.784  10.345  17.304  0.00  0.00    +0.000 HD
ENDROOT
BRANCH   1  13
ATOM      9  C   UNL     1       1.241  13.607  19.356  0.00  0.00    +0.000 A 
ATOM     10  C   UNL     1      -0.106  13.915  19.491  0.00  0.00    +0.000 A 
ATOM     11  C   UNL     1      -1.082  12.994  19.106  0.00  0.00    +0.000 A 
ATOM     12  C   UNL     1      -0.747  11.732  18.598  0.00  0.00    +0.000 A 
ATOM     13  C   UNL     1       0.610  11.376  18.515  0.00  0.00    +0.000 A 
ATOM     14  C   UNL     1       1.584  12.356  18.839  0.00  0.00    +0.000 A 
BRANCH   9  17
ATOM     15  C   UNL     1       2.693  14.793  20.986  0.00  0.00    +0.000 C 
ATOM     16  O   UNL     1       2.262  14.305  22.024  0.00  0.00    +0.000 OA
ATOM     17  N   UNL     1       2.288  14.493  19.697  0.00  0.00    +0.000 N 
ATOM     18  H   UNL     1       2.827  14.867  18.932  0.00  0.00    +0.000 HD
BRANCH  15  20
ATOM     19  C   UNL     1       5.046  15.420  20.795  0.00  0.00    +0.000 C 
ATOM     20  C   UNL     1       3.783  15.808  21.028  0.00  0.00    +0.000 C 
ENDBRANCH  15  20
ENDBRANCH   9  17
BRANCH  12  21
ATOM     21  O   UNL     1      -1.861  11.016  18.257  0.00  0.00    +0.000 OA
ATOM     22  C   UNL     1      -2.567  11.335  17.073  0.00  0.00    +0.000 C 
ENDBRANCH  12  21
ENDBRANCH   1  13
BRANCH   4  23
ATOM     23  C   UNL     1       3.682   6.014  18.529  0.00  0.00    +0.000 A 
ATOM     24  N   UNL     1       4.845   6.380  17.886  0.00  0.00    +0.000 N 
ATOM     25  C   UNL     1       5.555   5.255  17.608  0.00  0.00    +0.000 A 
ATOM     26  N   UNL     1       4.938   4.175  18.009  0.00  0.00    +0.000 NA
ATOM     27  C   UNL     1       3.765   4.620  18.590  0.00  0.00    +0.000 A 
ATOM     28  H   UNL     1       5.140   7.313  17.645  0.00  0.00    +0.000 HD
BRANCH  27  29
ATOM     29  C   UNL     1       2.789   3.646  19.175  0.00  0.00    +0.000 C 
ATOM     30  C   UNL     1       2.533   3.772  20.676  0.00  0.00    +0.000 C 
ATOM     31  C   UNL     1       1.303   2.894  20.889  0.00  0.00    +0.000 C 
ATOM     32  C   UNL     1       0.496   2.993  19.594  0.00  0.00    +0.000 C 
ATOM     33  C   UNL     1       1.372   3.764  18.611  0.00  0.00    +0.000 C 
ENDBRANCH  27  29
BRANCH  25  34
ATOM     34  S   UNL     1       7.078   5.391  16.817  0.00  0.00    +0.000 S 
ATOM     35  C   UNL     1       7.594   7.035  17.353  0.00  0.00    +0.000 C 
ENDBRANCH  25  34
ENDBRANCH   4  23
TORSDOF 7
ENDMDL
