MODEL 1
REMARK VINA RESULT:      -6.5      0.000      0.000
REMARK  Name = 
REMARK  17 active torsions:
REMARK  status: ('A' for Active; 'I' for Inactive)
REMARK    1  A    between atoms: C_1  and  C_2
REMARK    2  A    between atoms: C_2  and  C_3
REMARK    3  A    between atoms: C_3  and  C_4
REMARK    4  A    between atoms: C_4  and  C_5
REMARK    5  A    between atoms: C_5  and  C_6
REMARK    6  A    between atoms: C_6  and  C_7
REMARK    7  A    between atoms: C_7  and  C_8
REMARK    8  A    between atoms: C_8  and  C_9
REMARK    9  A    between atoms: C_9  and  C_10
REMARK   10  A    between atoms: C_10  and  C_11
REMARK   11  A    between atoms: C_11  and  C_12
REMARK   12  A    between atoms: C_12  and  C_13
REMARK   13  A    between atoms: C_13  and  C_14
REMARK   14  A    between atoms: C_14  and  C_15
REMARK   15  A    between atoms: C_15  and  C_16
REMARK   16  A    between atoms: C_16  and  N_17
REMARK   17  A    between atoms: C_18  and  C_20
REMARK                            x       y       z     vdW  Elec       q    Type
REMARK                         _______ _______ _______ _____ _____    ______ ____
ROOT
ATOM      1  C   UNL     1       7.540   5.561  18.843  0.00  0.00    +0.000 C 
ENDROOT
BRANCH   1   2
ATOM      2  C   UNL     1       7.478   4.874  17.479  0.00  0.00    +0.000 C 
BRANCH   2   3
ATOM      3  N   UNL     1       6.279   4.054  17.311  0.00  0.00    +0.000 N 
ATOM      4  C   UNL     1       5.174   4.599  16.697  0.00  0.00    +0.000 C 
ATOM      5  O   UNL     1       5.175   5.761  16.306  0.00  0.00    +0.000 OA
ATOM      6  H   UNL     1       6.260   3.103  17.655  0.00  0.00    +0.000 HD
BRANCH   4   7
ATOM      7  C   UNL     1       3.976   3.720  16.516  0.00  0.00    +0.000 C 
ATOM      8  C   UNL     1       3.115   3.563  17.542  0.00  0.00    +0.000 C 
ATOM      9  O   UNL     1       2.010   2.689  17.503  0.00  0.00    +0.000 OA
ATOM     10  C   UNL     1       1.343   2.875  18.713  0.00  0.00    +0.000 C 
ATOM     11  O   UNL     1       0.287   2.347  18.997  0.00  0.00    +0.000 OA
ATOM     12  N   UNL     1       2.041   3.753  19.495  0.00  0.00    +0.000 N 
ATOM     13  C   UNL     1       1.650   4.588  20.601  0.00  0.00    +0.000 C 
ATOM     14  C   UNL     1       2.082   5.987  20.144  0.00  0.00    +0.000 C 
ATOM     15  C   UNL     1       2.977   5.761  18.914  0.00  0.00    +0.000 C 
ATOM     16  C   UNL     1       3.193   4.254  18.850  0.00  0.00    +0.000 C 
ENDBRANCH   4   7
ENDBRANCH   2   3
ENDBRANCH   1   2
BRANCH   1  17
ATOM     17  C   UNL     1       8.261   6.909  18.760  0.00  0.00    +0.000 C 
BRANCH  17  18
ATOM     18  C   UNL     1       7.650   7.778  17.667  0.00  0.00    +0.000 C 
BRANCH  18  19
ATOM     19  C   UNL     1       8.256   9.175  17.679  0.00  0.00    +0.000 C 
BRANCH  19  20
ATOM     20  C   UNL     1       8.910   9.453  19.023  0.00  0.00    +0.000 C 
BRANCH  20  21
ATOM     21  C   UNL     1       9.380  10.895  19.088  0.00  0.00    +0.000 C 
BRANCH  21  22
ATOM     22  C   UNL     1      10.145  11.251  17.826  0.00  0.00    +0.000 C 
BRANCH  22  23
ATOM     23  C   UNL     1      11.112  12.386  18.108  0.00  0.00    +0.000 C 
BRANCH  23  24
ATOM     24  C   UNL     1      10.516  13.701  17.640  0.00  0.00    +0.000 C 
BRANCH  24  25
ATOM     25  C   UNL     1       9.981  14.479  18.828  0.00  0.00    +0.000 C 
BRANCH  25  26
ATOM     26  C   UNL     1      10.306  15.955  18.672  0.00  0.00    +0.000 C 
BRANCH  26  27
ATOM     27  C   UNL     1      10.170  16.661  20.011  0.00  0.00    +0.000 C 
BRANCH  27  28
ATOM     28  C   UNL     1       9.459  15.762  21.009  0.00  0.00    +0.000 C 
BRANCH  28  30
ATOM     29  C   UNL     1      11.285  16.728  22.409  0.00  0.00    +0.000 C 
ATOM     30  C   UNL     1      10.302  15.583  22.264  0.00  0.00    +0.000 C 
ENDBRANCH  28  30
ENDBRANCH  27  28
ENDBRANCH  26  27
ENDBRANCH  25  26
ENDBRANCH  24  25
ENDBRANCH  23  24
ENDBRANCH  22  23
ENDBRANCH  21  22
ENDBRANCH  20  21
ENDBRANCH  19  20
ENDBRANCH  18  19
ENDBRANCH  17  18
ENDBRANCH   1  17
TORSDOF 16
ENDMDL
MODEL 2
REMARK VINA RESULT:      -6.5      6.972     10.544
REMARK  Name = 
REMARK  17 active torsions:
REMARK  status: ('A' for Active; 'I' for Inactive)
REMARK    1  A    between atoms: C_1  and  C_2
REMARK    2  A    between atoms: C_2  and  C_3
REMARK    3  A    between atoms: C_3  and  C_4
REMARK    4  A    between atoms: C_4  and  C_5
REMARK    5  A    between atoms: C_5  and  C_6
REMARK    6  A    between atoms: C_6  and  C_7
REMARK    7  A    between atoms: C_7  and  C_8
REMARK    8  A    between atoms: C_8  and  C_9
REMARK    9  A    between atoms: C_9  and  C_10
REMARK   10  A    between atoms: C_10  and  C_11
REMARK   11  A    between atoms: C_11  and  C_12
REMARK   12  A    between atoms: C_12  and  C_13
REMARK   13  A    between atoms: C_13  and  C_14
REMARK   14  A    between atoms: C_14  and  C_15
REMARK   15  A    between atoms: C_15  and  C_16
REMARK   16  A    between atoms: C_16  and  N_17
REMARK   17  A    between atoms: C_18  and  C_20
REMARK                            x       y       z     vdW  Elec       q    Type
REMARK                         _______ _______ _______ _____ _____    ______ ____
ROOT
ATOM      1  C   UNL     1       1.606   8.920  17.844  0.00  0.00    +0.000 C 
ENDROOT
BRANCH   1   2
ATOM      2  C   UNL     1       1.481   9.612  19.202  0.00  0.00    +0.000 C 
BRANCH   2   3
ATOM      3  N   UNL     1       0.102   9.969  19.533  0.00  0.00    +0.000 N 
ATOM      4  C   UNL     1      -0.335  11.251  19.290  0.00  0.00    +0.000 C 
ATOM      5  O   UNL     1       0.415  12.099  18.819  0.00  0.00    +0.000 OA
ATOM      6  H   UNL     1      -0.515   9.284  19.947  0.00  0.00    +0.000 HD
BRANCH   4   7
ATOM      7  C   UNL     1      -1.761  11.571  19.614  0.00  0.00    +0.000 C 
ATOM      8  C   UNL     1      -2.668  11.611  18.616  0.00  0.00    +0.000 C 
ATOM      9  O   UNL     1      -4.013  11.990  18.803  0.00  0.00    +0.000 OA
ATOM     10  C   UNL     1      -4.623  11.830  17.560  0.00  0.00    +0.000 C 
ATOM     11  O   UNL     1      -5.811  11.980  17.360  0.00  0.00    +0.000 OA
ATOM     12  N   UNL     1      -3.691  11.454  16.633  0.00  0.00    +0.000 N 
ATOM     13  C   UNL     1      -3.803  10.786  15.362  0.00  0.00    +0.000 C 
ATOM     14  C   UNL     1      -2.868   9.580  15.526  0.00  0.00    +0.000 C 
ATOM     15  C   UNL     1      -2.059   9.856  16.806  0.00  0.00    +0.000 C 
ATOM     16  C   UNL     1      -2.406  11.288  17.194  0.00  0.00    +0.000 C 
ENDBRANCH   4   7
ENDBRANCH   2   3
ENDBRANCH   1   2
BRANCH   1  17
ATOM     17  C   UNL     1       2.492   7.675  17.928  0.00  0.00    +0.000 C 
BRANCH  17  18
ATOM     18  C   UNL     1       3.758   7.860  17.099  0.00  0.00    +0.000 C 
BRANCH  18  19
ATOM     19  C   UNL     1       4.853   6.906  17.556  0.00  0.00    +0.000 C 
BRANCH  19  20
ATOM     20  C   UNL     1       5.545   6.285  16.353  0.00  0.00    +0.000 C 
BRANCH  20  21
ATOM     21  C   UNL     1       4.910   4.948  16.015  0.00  0.00    +0.000 C 
BRANCH  21  22
ATOM     22  C   UNL     1       4.745   4.118  17.275  0.00  0.00    +0.000 C 
BRANCH  22  23
ATOM     23  C   UNL     1       3.275   4.017  17.641  0.00  0.00    +0.000 C 
BRANCH  23  24
ATOM     24  C   UNL     1       2.765   2.617  17.352  0.00  0.00    +0.000 C 
BRANCH  24  25
ATOM     25  C   UNL     1       2.962   1.733  18.569  0.00  0.00    +0.000 C 
BRANCH  25  26
ATOM     26  C   UNL     1       1.921   2.061  19.625  0.00  0.00    +0.000 C 
BRANCH  26  27
ATOM     27  C   UNL     1       2.602   2.344  20.955  0.00  0.00    +0.000 C 
BRANCH  27  28
ATOM     28  C   UNL     1       1.976   3.561  21.616  0.00  0.00    +0.000 C 
BRANCH  28  30
ATOM     29  C   UNL     1       1.671   5.838  20.640  0.00  0.00    +0.000 C 
ATOM     30  C   UNL     1       1.213   4.393  20.595  0.00  0.00    +0.000 C 
ENDBRANCH  28  30
ENDBRANCH  27  28
ENDBRANCH  26  27
ENDBRANCH  25  26
ENDBRANCH  24  25
ENDBRANCH  23  24
ENDBRANCH  22  23
ENDBRANCH  21  22
ENDBRANCH  20  21
ENDBRANCH  19  20
ENDBRANCH  18  19
ENDBRANCH  17  18
ENDBRANCH   1  17
TORSDOF 16
ENDMDL
MODEL 3
REMARK VINA RESULT:      -6.4      6.476     10.080
REMARK  Name = 
REMARK  17 active torsions:
REMARK  status: ('A' for Active; 'I' for Inactive)
REMARK    1  A    between atoms: C_1  and  C_2
REMARK    2  A    between atoms: C_2  and  C_3
REMARK    3  A    between atoms: C_3  and  C_4
REMARK    4  A    between atoms: C_4  and  C_5
REMARK    5  A    between atoms: C_5  and  C_6
REMARK    6  A    between atoms: C_6  and  C_7
REMARK    7  A    between atoms: C_7  and  C_8
REMARK    8  A    between atoms: C_8  and  C_9
REMARK    9  A    between atoms: C_9  and  C_10
REMARK   10  A    between atoms: C_10  and  C_11
REMARK   11  A    between atoms: C_11  and  C_12
REMARK   12  A    between atoms: C_12  and  C_13
REMARK   13  A    between atoms: C_13  and  C_14
REMARK   14  A    between atoms: C_14  and  C_15
REMARK   15  A    between atoms: C_15  and  C_16
REMARK   16  A    between atoms: C_16  and  N_17
REMARK   17  A    between atoms: C_18  and  C_20
REMARK                            x       y       z     vdW  Elec       q    Type
REMARK                         _______ _______ _______ _____ _____    ______ ____
ROOT
ATOM      1  C   UNL     1       1.792   7.952  18.375  0.00  0.00    +0.000 C 
ENDROOT
BRANCH   1   2
ATOM      2  C   UNL     1       2.012   9.210  17.534  0.00  0.00    +0.000 C 
BRANCH   2   3
ATOM      3  N   UNL     1       1.868  10.442  18.308  0.00  0.00    +0.000 N 
ATOM      4  C   UNL     1       0.617  10.999  18.454  0.00  0.00    +0.000 C 
ATOM      5  O   UNL     1      -0.368  10.490  17.934  0.00  0.00    +0.000 OA
ATOM      6  H   UNL     1       2.679  10.884  18.718  0.00  0.00    +0.000 HD
BRANCH   4   7
ATOM      7  C   UNL     1       0.505  12.244  19.278  0.00  0.00    +0.000 C 
ATOM      8  C   UNL     1      -0.080  12.178  20.491  0.00  0.00    +0.000 C 
ATOM      9  O   UNL     1      -0.315  13.306  21.303  0.00  0.00    +0.000 OA
ATOM     10  C   UNL     1      -0.861  12.809  22.486  0.00  0.00    +0.000 C 
ATOM     11  O   UNL     1      -1.110  13.489  23.460  0.00  0.00    +0.000 OA
ATOM     12  N   UNL     1      -1.032  11.456  22.382  0.00  0.00    +0.000 N 
ATOM     13  C   UNL     1      -1.158  10.417  23.371  0.00  0.00    +0.000 C 
ATOM     14  C   UNL     1      -0.043   9.437  22.982  0.00  0.00    +0.000 C 
ATOM     15  C   UNL     1       0.427   9.881  21.585  0.00  0.00    +0.000 C 
ATOM     16  C   UNL     1      -0.572  10.945  21.149  0.00  0.00    +0.000 C 
ENDBRANCH   4   7
ENDBRANCH   2   3
ENDBRANCH   1   2
BRANCH   1  17
ATOM     17  C   UNL     1       2.936   6.951  18.197  0.00  0.00    +0.000 C 
BRANCH  17  18
ATOM     18  C   UNL     1       4.127   7.612  17.513  0.00  0.00    +0.000 C 
BRANCH  18  19
ATOM     19  C   UNL     1       4.766   6.672  16.501  0.00  0.00    +0.000 C 
BRANCH  19  20
ATOM     20  C   UNL     1       6.264   6.572  16.748  0.00  0.00    +0.000 C 
BRANCH  20  21
ATOM     21  C   UNL     1       6.571   5.374  17.629  0.00  0.00    +0.000 C 
BRANCH  21  22
ATOM     22  C   UNL     1       5.510   4.305  17.442  0.00  0.00    +0.000 C 
BRANCH  22  23
ATOM     23  C   UNL     1       4.961   3.877  18.790  0.00  0.00    +0.000 C 
BRANCH  23  24
ATOM     24  C   UNL     1       3.909   2.799  18.602  0.00  0.00    +0.000 C 
BRANCH  24  25
ATOM     25  C   UNL     1       3.013   3.149  17.428  0.00  0.00    +0.000 C 
BRANCH  25  26
ATOM     26  C   UNL     1       1.650   3.595  17.929  0.00  0.00    +0.000 C 
BRANCH  26  27
ATOM     27  C   UNL     1       0.983   2.465  18.697  0.00  0.00    +0.000 C 
BRANCH  27  28
ATOM     28  C   UNL     1       0.940   2.793  20.180  0.00  0.00    +0.000 C 
BRANCH  28  30
ATOM     29  C   UNL     1       2.161   4.725  21.181  0.00  0.00    +0.000 C 
ATOM     30  C   UNL     1       0.935   4.299  20.396  0.00  0.00    +0.000 C 
ENDBRANCH  28  30
ENDBRANCH  27  28
ENDBRANCH  26  27
ENDBRANCH  25  26
ENDBRANCH  24  25
ENDBRANCH  23  24
ENDBRANCH  22  23
ENDBRANCH  21  22
ENDBRANCH  20  21
ENDBRANCH  19  20
ENDBRANCH  18  19
ENDBRANCH  17  18
ENDBRANCH   1  17
TORSDOF 16
ENDMDL
MODEL 4
REMARK VINA RESULT:      -6.4      6.299     10.163
REMARK  Name = 
REMARK  17 active torsions:
REMARK  status: ('A' for Active; 'I' for Inactive)
REMARK    1  A    between atoms: C_1  and  C_2
REMARK    2  A    between atoms: C_2  and  C_3
REMARK    3  A    between atoms: C_3  and  C_4
REMARK    4  A    between atoms: C_4  and  C_5
REMARK    5  A    between atoms: C_5  and  C_6
REMARK    6  A    between atoms: C_6  and  C_7
REMARK    7  A    between atoms: C_7  and  C_8
REMARK    8  A    between atoms: C_8  and  C_9
REMARK    9  A    between atoms: C_9  and  C_10
REMARK   10  A    between atoms: C_10  and  C_11
REMARK   11  A    between atoms: C_11  and  C_12
REMARK   12  A    between atoms: C_12  and  C_13
REMARK   13  A    between atoms: C_13  and  C_14
REMARK   14  A    between atoms: C_14  and  C_15
REMARK   15  A    between atoms: C_15  and  C_16
REMARK   16  A    between atoms: C_16  and  N_17
REMARK   17  A    between atoms: C_18  and  C_20
REMARK                            x       y       z     vdW  Elec       q    Type
REMARK                         _______ _______ _______ _____ _____    ______ ____
ROOT
ATOM      1  C   UNL     1       1.376   7.997  20.728  0.00  0.00    +0.000 C 
ENDROOT
BRANCH   1   2
ATOM      2  C   UNL     1       1.047   9.202  19.847  0.00  0.00    +0.000 C 
BRANCH   2   3
ATOM      3  N   UNL     1      -0.312   9.701  20.053  0.00  0.00    +0.000 N 
ATOM      4  C   UNL     1      -0.593  11.018  19.763  0.00  0.00    +0.000 C 
ATOM      5  O   UNL     1       0.277  11.777  19.353  0.00  0.00    +0.000 OA
ATOM      6  H   UNL     1      -1.030   9.090  20.418  0.00  0.00    +0.000 HD
BRANCH   4   7
ATOM      7  C   UNL     1      -2.001  11.485  19.959  0.00  0.00    +0.000 C 
ATOM      8  C   UNL     1      -2.804  11.621  18.884  0.00  0.00    +0.000 C 
ATOM      9  O   UNL     1      -4.114  12.138  18.951  0.00  0.00    +0.000 OA
ATOM     10  C   UNL     1      -4.621  12.044  17.656  0.00  0.00    +0.000 C 
ATOM     11  O   UNL     1      -5.764  12.317  17.350  0.00  0.00    +0.000 OA
ATOM     12  N   UNL     1      -3.652  11.572  16.815  0.00  0.00    +0.000 N 
ATOM     13  C   UNL     1      -3.717  10.919  15.532  0.00  0.00    +0.000 C 
ATOM     14  C   UNL     1      -2.932   9.622  15.769  0.00  0.00    +0.000 C 
ATOM     15  C   UNL     1      -2.219   9.811  17.119  0.00  0.00    +0.000 C 
ATOM     16  C   UNL     1      -2.449  11.271  17.488  0.00  0.00    +0.000 C 
ENDBRANCH   4   7
ENDBRANCH   2   3
ENDBRANCH   1   2
BRANCH   1  17
ATOM     17  C   UNL     1       2.145   6.926  19.950  0.00  0.00    +0.000 C 
BRANCH  17  18
ATOM     18  C   UNL     1       2.212   5.628  20.747  0.00  0.00    +0.000 C 
BRANCH  18  19
ATOM     19  C   UNL     1       1.074   4.693  20.361  0.00  0.00    +0.000 C 
BRANCH  19  20
ATOM     20  C   UNL     1       1.181   4.311  18.892  0.00  0.00    +0.000 C 
BRANCH  20  21
ATOM     21  C   UNL     1       1.085   2.804  18.734  0.00  0.00    +0.000 C 
BRANCH  21  22
ATOM     22  C   UNL     1       2.153   2.124  19.572  0.00  0.00    +0.000 C 
BRANCH  22  23
ATOM     23  C   UNL     1       3.389   1.871  18.728  0.00  0.00    +0.000 C 
BRANCH  23  24
ATOM     24  C   UNL     1       4.389   2.996  18.924  0.00  0.00    +0.000 C 
BRANCH  24  25
ATOM     25  C   UNL     1       4.611   3.726  17.612  0.00  0.00    +0.000 C 
BRANCH  25  26
ATOM     26  C   UNL     1       4.404   5.218  17.806  0.00  0.00    +0.000 C 
BRANCH  26  27
ATOM     27  C   UNL     1       4.864   5.971  16.567  0.00  0.00    +0.000 C 
BRANCH  27  28
ATOM     28  C   UNL     1       5.944   6.975  16.934  0.00  0.00    +0.000 C 
BRANCH  28  30
ATOM     29  C   UNL     1       7.861   6.601  18.488  0.00  0.00    +0.000 C 
ATOM     30  C   UNL     1       7.283   6.276  17.124  0.00  0.00    +0.000 C 
ENDBRANCH  28  30
ENDBRANCH  27  28
ENDBRANCH  26  27
ENDBRANCH  25  26
ENDBRANCH  24  25
ENDBRANCH  23  24
ENDBRANCH  22  23
ENDBRANCH  21  22
ENDBRANCH  20  21
ENDBRANCH  19  20
ENDBRANCH  18  19
ENDBRANCH  17  18
ENDBRANCH   1  17
TORSDOF 16
ENDMDL
MODEL 5
REMARK VINA RESULT:      -6.3      5.916      9.241
REMARK  Name = 
REMARK  17 active torsions:
REMARK  status: ('A' for Active; 'I' for Inactive)
REMARK    1  A    between atoms: C_1  and  C_2
REMARK    2  A    between atoms: C_2  and  C_3
REMARK    3  A    between atoms: C_3  and  C_4
REMARK    4  A    between atoms: C_4  and  C_5
REMARK    5  A    between atoms: C_5  and  C_6
REMARK    6  A    between atoms: C_6  and  C_7
REMARK    7  A    between atoms: C_7  and  C_8
REMARK    8  A    between atoms: C_8  and  C_9
REMARK    9  A    between atoms: C_9  and  C_10
REMARK   10  A    between atoms: C_10  and  C_11
REMARK   11  A    between atoms: C_11  and  C_12
REMARK   12  A    between atoms: C_12  and  C_13
REMARK   13  A    between atoms: C_13  and  C_14
REMARK   14  A    between atoms: C_14  and  C_15
REMARK   15  A    between atoms: C_15  and  C_16
REMARK   16  A    between atoms: C_16  and  N_17
REMARK   17  A    between atoms: C_18  and  C_20
REMARK                            x       y       z     vdW  Elec       q    Type
REMARK                         _______ _______ _______ _____ _____    ______ ____
ROOT
ATOM      1  C   UNL     1       2.746   6.569  19.351  0.00  0.00    +0.000 C 
ENDROOT
BRANCH   1   2
ATOM      2  C   UNL     1       2.230   7.532  18.282  0.00  0.00    +0.000 C 
BRANCH   2   3
ATOM      3  N   UNL     1       2.306   8.933  18.695  0.00  0.00    +0.000 N 
ATOM      4  C   UNL     1       1.264   9.779  18.389  0.00  0.00    +0.000 C 
ATOM      5  O   UNL     1       0.287   9.382  17.765  0.00  0.00    +0.000 OA
ATOM      6  H   UNL     1       3.120   9.275  19.187  0.00  0.00    +0.000 HD
BRANCH   4   7
ATOM      7  C   UNL     1       1.363  11.198  18.855  0.00  0.00    +0.000 C 
ATOM      8  C   UNL     1       0.670  11.582  19.946  0.00  0.00    +0.000 C 
ATOM      9  O   UNL     1       0.626  12.912  20.411  0.00  0.00    +0.000 OA
ATOM     10  C   UNL     1      -0.125  12.873  21.585  0.00  0.00    +0.000 C 
ATOM     11  O   UNL     1      -0.301  13.829  22.313  0.00  0.00    +0.000 OA
ATOM     12  N   UNL     1      -0.591  11.605  21.793  0.00  0.00    +0.000 N 
ATOM     13  C   UNL     1      -1.041  10.920  22.978  0.00  0.00    +0.000 C 
ATOM     14  C   UNL     1      -0.148   9.672  23.012  0.00  0.00    +0.000 C 
ATOM     15  C   UNL     1       0.537   9.617  21.636  0.00  0.00    +0.000 C 
ATOM     16  C   UNL     1      -0.149  10.697  20.807  0.00  0.00    +0.000 C 
ENDBRANCH   4   7
ENDBRANCH   2   3
ENDBRANCH   1   2
BRANCH   1  17
ATOM     17  C   UNL     1       1.788   6.488  20.543  0.00  0.00    +0.000 C 
BRANCH  17  18
ATOM     18  C   UNL     1       1.288   5.061  20.734  0.00  0.00    +0.000 C 
BRANCH  18  19
ATOM     19  C   UNL     1       2.115   4.080  19.914  0.00  0.00    +0.000 C 
BRANCH  19  20
ATOM     20  C   UNL     1       1.259   3.449  18.827  0.00  0.00    +0.000 C 
BRANCH  20  21
ATOM     21  C   UNL     1       1.732   3.904  17.458  0.00  0.00    +0.000 C 
BRANCH  21  22
ATOM     22  C   UNL     1       2.735   2.912  16.898  0.00  0.00    +0.000 C 
BRANCH  22  23
ATOM     23  C   UNL     1       3.958   2.850  17.794  0.00  0.00    +0.000 C 
BRANCH  23  24
ATOM     24  C   UNL     1       4.899   3.995  17.465  0.00  0.00    +0.000 C 
BRANCH  24  25
ATOM     25  C   UNL     1       5.030   4.142  15.961  0.00  0.00    +0.000 C 
BRANCH  25  26
ATOM     26  C   UNL     1       5.819   5.397  15.628  0.00  0.00    +0.000 C 
BRANCH  26  27
ATOM     27  C   UNL     1       5.141   6.614  16.236  0.00  0.00    +0.000 C 
BRANCH  27  28
ATOM     28  C   UNL     1       6.082   7.308  17.208  0.00  0.00    +0.000 C 
BRANCH  28  30
ATOM     29  C   UNL     1       7.707   6.153  18.708  0.00  0.00    +0.000 C 
ATOM     30  C   UNL     1       7.413   6.573  17.282  0.00  0.00    +0.000 C 
ENDBRANCH  28  30
ENDBRANCH  27  28
ENDBRANCH  26  27
ENDBRANCH  25  26
ENDBRANCH  24  25
ENDBRANCH  23  24
ENDBRANCH  22  23
ENDBRANCH  21  22
ENDBRANCH  20  21
ENDBRANCH  19  20
ENDBRANCH  18  19
ENDBRANCH  17  18
ENDBRANCH   1  17
TORSDOF 16
ENDMDL
MODEL 6
REMARK VINA RESULT:      -6.3      1.943      3.225
REMARK  Name = 
REMARK  17 active torsions:
REMARK  status: ('A' for Active; 'I' for Inactive)
REMARK    1  A    between atoms: C_1  and  C_2
REMARK    2  A    between atoms: C_2  and  C_3
REMARK    3  A    between atoms: C_3  and  C_4
REMARK    4  A    between atoms: C_4  and  C_5
REMARK    5  A    between atoms: C_5  and  C_6
REMARK    6  A    between atoms: C_6  and  C_7
REMARK    7  A    between atoms: C_7  and  C_8
REMARK    8  A    between atoms: C_8  and  C_9
REMARK    9  A    between atoms: C_9  and  C_10
REMARK   10  A    between atoms: C_10  and  C_11
REMARK   11  A    between atoms: C_11  and  C_12
REMARK   12  A    between atoms: C_12  and  C_13
REMARK   13  A    between atoms: C_13  and  C_14
REMARK   14  A    between atoms: C_14  and  C_15
REMARK   15  A    between atoms: C_15  and  C_16
REMARK   16  A    between atoms: C_16  and  N_17
REMARK   17  A    between atoms: C_18  and  C_20
REMARK                            x       y       z     vdW  Elec       q    Type
REMARK                         _______ _______ _______ _____ _____    ______ ____
ROOT
ATOM      1  C   UNL     1       8.699   8.726  18.635  0.00  0.00    +0.000 C 
ENDROOT
BRANCH   1   2
ATOM      2  C   UNL     1       7.881   7.954  17.598  0.00  0.00    +0.000 C 
BRANCH   2   3
ATOM      3  N   UNL     1       7.375   6.681  18.109  0.00  0.00    +0.000 N 
ATOM      4  C   UNL     1       7.111   5.661  17.223  0.00  0.00    +0.000 C 
ATOM      5  O   UNL     1       7.278   5.808  16.018  0.00  0.00    +0.000 OA
ATOM      6  H   UNL     1       7.208   6.559  19.099  0.00  0.00    +0.000 HD
BRANCH   4   7
ATOM      7  C   UNL     1       6.622   4.363  17.786  0.00  0.00    +0.000 C 
ATOM      8  C   UNL     1       5.506   4.353  18.543  0.00  0.00    +0.000 C 
ATOM      9  O   UNL     1       5.015   3.201  19.191  0.00  0.00    +0.000 OA
ATOM     10  C   UNL     1       3.823   3.593  19.797  0.00  0.00    +0.000 C 
ATOM     11  O   UNL     1       3.072   2.834  20.377  0.00  0.00    +0.000 OA
ATOM     12  N   UNL     1       3.626   4.932  19.607  0.00  0.00    +0.000 N 
ATOM     13  C   UNL     1       2.443   5.753  19.645  0.00  0.00    +0.000 C 
ATOM     14  C   UNL     1       2.455   6.435  18.270  0.00  0.00    +0.000 C 
ATOM     15  C   UNL     1       3.850   6.157  17.684  0.00  0.00    +0.000 C 
ATOM     16  C   UNL     1       4.640   5.523  18.823  0.00  0.00    +0.000 C 
ENDBRANCH   4   7
ENDBRANCH   2   3
ENDBRANCH   1   2
BRANCH   1  17
ATOM     17  C   UNL     1       8.870  10.194  18.234  0.00  0.00    +0.000 C 
BRANCH  17  18
ATOM     18  C   UNL     1       9.762  10.922  19.233  0.00  0.00    +0.000 C 
BRANCH  18  19
ATOM     19  C   UNL     1       9.828  12.410  18.920  0.00  0.00    +0.000 C 
BRANCH  19  20
ATOM     20  C   UNL     1      10.633  12.647  17.652  0.00  0.00    +0.000 C 
BRANCH  20  21
ATOM     21  C   UNL     1      10.715  14.133  17.353  0.00  0.00    +0.000 C 
BRANCH  21  22
ATOM     22  C   UNL     1       9.621  14.875  18.099  0.00  0.00    +0.000 C 
BRANCH  22  23
ATOM     23  C   UNL     1      10.202  16.090  18.797  0.00  0.00    +0.000 C 
BRANCH  23  24
ATOM     24  C   UNL     1      11.296  15.661  19.758  0.00  0.00    +0.000 C 
BRANCH  24  25
ATOM     25  C   UNL     1      10.817  15.812  21.190  0.00  0.00    +0.000 C 
BRANCH  25  26
ATOM     26  C   UNL     1      10.301  14.482  21.709  0.00  0.00    +0.000 C 
BRANCH  26  27
ATOM     27  C   UNL     1       8.939  14.670  22.359  0.00  0.00    +0.000 C 
BRANCH  27  28
ATOM     28  C   UNL     1       8.016  13.522  21.986  0.00  0.00    +0.000 C 
BRANCH  28  30
ATOM     29  C   UNL     1       8.133  11.869  23.851  0.00  0.00    +0.000 C 
ATOM     30  C   UNL     1       8.599  12.194  22.446  0.00  0.00    +0.000 C 
ENDBRANCH  28  30
ENDBRANCH  27  28
ENDBRANCH  26  27
ENDBRANCH  25  26
ENDBRANCH  24  25
ENDBRANCH  23  24
ENDBRANCH  22  23
ENDBRANCH  21  22
ENDBRANCH  20  21
ENDBRANCH  19  20
ENDBRANCH  18  19
ENDBRANCH  17  18
ENDBRANCH   1  17
TORSDOF 16
ENDMDL
MODEL 7
REMARK VINA RESULT:      -6.3      6.341      9.897
REMARK  Name = 
REMARK  17 active torsions:
REMARK  status: ('A' for Active; 'I' for Inactive)
REMARK    1  A    between atoms: C_1  and  C_2
REMARK    2  A    between atoms: C_2  and  C_3
REMARK    3  A    between atoms: C_3  and  C_4
REMARK    4  A    between atoms: C_4  and  C_5
REMARK    5  A    between atoms: C_5  and  C_6
REMARK    6  A    between atoms: C_6  and  C_7
REMARK    7  A    between atoms: C_7  and  C_8
REMARK    8  A    between atoms: C_8  and  C_9
REMARK    9  A    between atoms: C_9  and  C_10
REMARK   10  A    between atoms: C_10  and  C_11
REMARK   11  A    between atoms: C_11  and  C_12
REMARK   12  A    between atoms: C_12  and  C_13
REMARK   13  A    between atoms: C_13  and  C_14
REMARK   14  A    between atoms: C_14  and  C_15
REMARK   15  A    between atoms: C_15  and  C_16
REMARK   16  A    between atoms: C_16  and  N_17
REMARK   17  A    between atoms: C_18  and  C_20
REMARK                            x       y       z     vdW  Elec       q    Type
REMARK                         _______ _______ _______ _____ _____    ______ ____
ROOT
ATOM      1  C   UNL     1       1.520   7.481  20.352  0.00  0.00    +0.000 C 
ENDROOT
BRANCH   1   2
ATOM      2  C   UNL     1       1.640   8.468  21.513  0.00  0.00    +0.000 C 
BRANCH   2   3
ATOM      3  N   UNL     1       0.382   9.156  21.804  0.00  0.00    +0.000 N 
ATOM      4  C   UNL     1       0.352  10.532  21.786  0.00  0.00    +0.000 C 
ATOM      5  O   UNL     1       1.361  11.186  21.547  0.00  0.00    +0.000 OA
ATOM      6  H   UNL     1      -0.448   8.626  22.030  0.00  0.00    +0.000 HD
BRANCH   4   7
ATOM      7  C   UNL     1      -0.959  11.201  22.060  0.00  0.00    +0.000 C 
ATOM      8  C   UNL     1      -1.706  11.632  21.023  0.00  0.00    +0.000 C 
ATOM      9  O   UNL     1      -2.909  12.351  21.178  0.00  0.00    +0.000 OA
ATOM     10  C   UNL     1      -3.400  12.540  19.887  0.00  0.00    +0.000 C 
ATOM     11  O   UNL     1      -4.473  13.049  19.634  0.00  0.00    +0.000 OA
ATOM     12  N   UNL     1      -2.511  12.040  18.977  0.00  0.00    +0.000 N 
ATOM     13  C   UNL     1      -2.661  11.607  17.611  0.00  0.00    +0.000 C 
ATOM     14  C   UNL     1      -2.115  10.174  17.643  0.00  0.00    +0.000 C 
ATOM     15  C   UNL     1      -1.406  10.033  19.002  0.00  0.00    +0.000 C 
ATOM     16  C   UNL     1      -1.389  11.439  19.589  0.00  0.00    +0.000 C 
ENDBRANCH   4   7
ENDBRANCH   2   3
ENDBRANCH   1   2
BRANCH   1  17
ATOM     17  C   UNL     1       2.253   6.170  20.652  0.00  0.00    +0.000 C 
BRANCH  17  18
ATOM     18  C   UNL     1       1.298   4.986  20.553  0.00  0.00    +0.000 C 
BRANCH  18  19
ATOM     19  C   UNL     1       1.826   3.794  21.339  0.00  0.00    +0.000 C 
BRANCH  19  20
ATOM     20  C   UNL     1       1.539   2.502  20.591  0.00  0.00    +0.000 C 
BRANCH  20  21
ATOM     21  C   UNL     1       2.478   2.363  19.406  0.00  0.00    +0.000 C 
BRANCH  21  22
ATOM     22  C   UNL     1       3.917   2.521  19.863  0.00  0.00    +0.000 C 
BRANCH  22  23
ATOM     23  C   UNL     1       4.656   3.463  18.930  0.00  0.00    +0.000 C 
BRANCH  23  24
ATOM     24  C   UNL     1       4.205   3.232  17.499  0.00  0.00    +0.000 C 
BRANCH  24  25
ATOM     25  C   UNL     1       4.387   4.502  16.687  0.00  0.00    +0.000 C 
BRANCH  25  26
ATOM     26  C   UNL     1       3.788   5.684  17.429  0.00  0.00    +0.000 C 
BRANCH  26  27
ATOM     27  C   UNL     1       4.846   6.755  17.642  0.00  0.00    +0.000 C 
BRANCH  27  28
ATOM     28  C   UNL     1       6.033   6.509  16.725  0.00  0.00    +0.000 C 
BRANCH  28  30
ATOM     29  C   UNL     1       7.541   5.952  18.633  0.00  0.00    +0.000 C 
ATOM     30  C   UNL     1       7.336   6.853  17.432  0.00  0.00    +0.000 C 
ENDBRANCH  28  30
ENDBRANCH  27  28
ENDBRANCH  26  27
ENDBRANCH  25  26
ENDBRANCH  24  25
ENDBRANCH  23  24
ENDBRANCH  22  23
ENDBRANCH  21  22
ENDBRANCH  20  21
ENDBRANCH  19  20
ENDBRANCH  18  19
ENDBRANCH  17  18
ENDBRANCH   1  17
TORSDOF 16
ENDMDL
MODEL 8
REMARK VINA RESULT:      -6.2      6.581     10.848
REMARK  Name = 
REMARK  17 active torsions:
REMARK  status: ('A' for Active; 'I' for Inactive)
REMARK    1  A    between atoms: C_1  and  C_2
REMARK    2  A    between atoms: C_2  and  C_3
REMARK    3  A    between atoms: C_3  and  C_4
REMARK    4  A    between atoms: C_4  and  C_5
REMARK    5  A    between atoms: C_5  and  C_6
REMARK    6  A    between atoms: C_6  and  C_7
REMARK    7  A    between atoms: C_7  and  C_8
REMARK    8  A    between atoms: C_8  and  C_9
REMARK    9  A    between atoms: C_9  and  C_10
REMARK   10  A    between atoms: C_10  and  C_11
REMARK   11  A    between atoms: C_11  and  C_12
REMARK   12  A    between atoms: C_12  and  C_13
REMARK   13  A    between atoms: C_13  and  C_14
REMARK   14  A    between atoms: C_14  and  C_15
REMARK   15  A    between atoms: C_15  and  C_16
REMARK   16  A    between atoms: C_16  and  N_17
REMARK   17  A    between atoms: C_18  and  C_20
REMARK                            x       y       z     vdW  Elec       q    Type
REMARK                         _______ _______ _______ _____ _____    ______ ____
ROOT
ATOM      1  C   UNL     1       1.552   8.146  20.281  0.00  0.00    +0.000 C 
ENDROOT
BRANCH   1   2
ATOM      2  C   UNL     1       0.950   8.367  21.669  0.00  0.00    +0.000 C 
BRANCH   2   3
ATOM      3  N   UNL     1      -0.157   9.323  21.662  0.00  0.00    +0.000 N 
ATOM      4  C   UNL     1      -0.367  10.113  22.770  0.00  0.00    +0.000 C 
ATOM      5  O   UNL     1       0.345  10.016  23.763  0.00  0.00    +0.000 OA
ATOM      6  H   UNL     1      -0.766   9.390  20.859  0.00  0.00    +0.000 HD
BRANCH   4   7
ATOM      7  C   UNL     1      -1.491  11.100  22.714  0.00  0.00    +0.000 C 
ATOM      8  C   UNL     1      -1.226  12.380  22.381  0.00  0.00    +0.000 C 
ATOM      9  O   UNL     1      -2.196  13.402  22.387  0.00  0.00    +0.000 OA
ATOM     10  C   UNL     1      -1.543  14.540  21.916  0.00  0.00    +0.000 C 
ATOM     11  O   UNL     1      -2.093  15.602  21.703  0.00  0.00    +0.000 OA
ATOM     12  N   UNL     1      -0.221  14.261  21.708  0.00  0.00    +0.000 N 
ATOM     13  C   UNL     1       0.784  14.888  20.888  0.00  0.00    +0.000 C 
ATOM     14  C   UNL     1       1.290  13.728  20.020  0.00  0.00    +0.000 C 
ATOM     15  C   UNL     1       0.717  12.452  20.662  0.00  0.00    +0.000 C 
ATOM     16  C   UNL     1       0.096  12.912  21.975  0.00  0.00    +0.000 C 
ENDBRANCH   4   7
ENDBRANCH   2   3
ENDBRANCH   1   2
BRANCH   1  17
ATOM     17  C   UNL     1       1.145   9.257  19.310  0.00  0.00    +0.000 C 
BRANCH  17  18
ATOM     18  C   UNL     1       1.790   9.040  17.946  0.00  0.00    +0.000 C 
BRANCH  18  19
ATOM     19  C   UNL     1       2.367   7.636  17.834  0.00  0.00    +0.000 C 
BRANCH  19  20
ATOM     20  C   UNL     1       3.842   7.701  17.468  0.00  0.00    +0.000 C 
BRANCH  20  21
ATOM     21  C   UNL     1       4.353   6.319  17.103  0.00  0.00    +0.000 C 
BRANCH  21  22
ATOM     22  C   UNL     1       5.537   5.953  17.981  0.00  0.00    +0.000 C 
BRANCH  22  23
ATOM     23  C   UNL     1       5.755   4.452  17.958  0.00  0.00    +0.000 C 
BRANCH  23  24
ATOM     24  C   UNL     1       4.653   3.781  17.157  0.00  0.00    +0.000 C 
BRANCH  24  25
ATOM     25  C   UNL     1       3.778   2.949  18.076  0.00  0.00    +0.000 C 
BRANCH  25  26
ATOM     26  C   UNL     1       2.372   2.852  17.508  0.00  0.00    +0.000 C 
BRANCH  26  27
ATOM     27  C   UNL     1       1.530   4.016  18.004  0.00  0.00    +0.000 C 
BRANCH  27  28
ATOM     28  C   UNL     1       1.987   4.440  19.391  0.00  0.00    +0.000 C 
BRANCH  28  30
ATOM     29  C   UNL     1       1.394   2.799  21.174  0.00  0.00    +0.000 C 
ATOM     30  C   UNL     1       0.954   4.049  20.438  0.00  0.00    +0.000 C 
ENDBRANCH  28  30
ENDBRANCH  27  28
ENDBRANCH  26  27
ENDBRANCH  25  26
ENDBRANCH  24  25
ENDBRANCH  23  24
ENDBRANCH  22  23
ENDBRANCH  21  22
ENDBRANCH  20  21
ENDBRANCH  19  20
ENDBRANCH  18  19
ENDBRANCH  17  18
ENDBRANCH   1  17
TORSDOF 16
ENDMDL
MODEL 9
REMARK VINA RESULT:      -6.2      6.526      9.766
REMARK  Name = 
REMARK  17 active torsions:
REMARK  status: ('A' for Active; 'I' for Inactive)
REMARK    1  A    between atoms: C_1  and  C_2
REMARK    2  A    between atoms: C_2  and  C_3
REMARK    3  A    between atoms: C_3  and  C_4
REMARK    4  A    between atoms: C_4  and  C_5
REMARK    5  A    between atoms: C_5  and  C_6
REMARK    6  A    between atoms: C_6  and  C_7
REMARK    7  A    between atoms: C_7  and  C_8
REMARK    8  A    between atoms: C_8  and  C_9
REMARK    9  A    between atoms: C_9  and  C_10
REMARK   10  A    between atoms: C_10  and  C_11
REMARK   11  A    between atoms: C_11  and  C_12
REMARK   12  A    between atoms: C_12  and  C_13
REMARK   13  A    between atoms: C_13  and  C_14
REMARK   14  A    between atoms: C_14  and  C_15
REMARK   15  A    between atoms: C_15  and  C_16
REMARK   16  A    between atoms: C_16  and  N_17
REMARK   17  A    between atoms: C_18  and  C_20
REMARK                            x       y       z     vdW  Elec       q    Type
REMARK                         _______ _______ _______ _____ _____    ______ ____
ROOT
ATOM      1  C   UNL     1       3.045   7.648  18.269  0.00  0.00    +0.000 C 
ENDROOT
BRANCH   1   2
ATOM      2  C   UNL     1       2.199   8.792  17.712  0.00  0.00    +0.000 C 
BRANCH   2   3
ATOM      3  N   UNL     1       1.203   9.278  18.666  0.00  0.00    +0.000 N 
ATOM      4  C   UNL     1       1.086  10.633  18.880  0.00  0.00    +0.000 C 
ATOM      5  O   UNL     1       1.810  11.432  18.299  0.00  0.00    +0.000 OA
ATOM      6  H   UNL     1       0.620   8.625  19.170  0.00  0.00    +0.000 HD
BRANCH   4   7
ATOM      7  C   UNL     1       0.035  11.095  19.841  0.00  0.00    +0.000 C 
ATOM      8  C   UNL     1      -1.182  11.436  19.371  0.00  0.00    +0.000 C 
ATOM      9  O   UNL     1      -2.208  11.966  20.180  0.00  0.00    +0.000 OA
ATOM     10  C   UNL     1      -3.310  12.111  19.339  0.00  0.00    +0.000 C 
ATOM     11  O   UNL     1      -4.411  12.462  19.712  0.00  0.00    +0.000 OA
ATOM     12  N   UNL     1      -2.964  11.768  18.061  0.00  0.00    +0.000 N 
ATOM     13  C   UNL     1      -3.744  11.350  16.925  0.00  0.00    +0.000 C 
ATOM     14  C   UNL     1      -3.099  10.013  16.540  0.00  0.00    +0.000 C 
ATOM     15  C   UNL     1      -1.783   9.946  17.333  0.00  0.00    +0.000 C 
ATOM     16  C   UNL     1      -1.628  11.325  17.962  0.00  0.00    +0.000 C 
ENDBRANCH   4   7
ENDBRANCH   2   3
ENDBRANCH   1   2
BRANCH   1  17
ATOM     17  C   UNL     1       3.390   6.625  17.183  0.00  0.00    +0.000 C 
BRANCH  17  18
ATOM     18  C   UNL     1       4.787   6.880  16.630  0.00  0.00    +0.000 C 
BRANCH  18  19
ATOM     19  C   UNL     1       5.178   5.809  15.621  0.00  0.00    +0.000 C 
BRANCH  19  20
ATOM     20  C   UNL     1       6.646   5.445  15.782  0.00  0.00    +0.000 C 
BRANCH  20  21
ATOM     21  C   UNL     1       7.221   6.121  17.014  0.00  0.00    +0.000 C 
BRANCH  21  22
ATOM     22  C   UNL     1       7.727   5.077  17.992  0.00  0.00    +0.000 C 
BRANCH  22  23
ATOM     23  C   UNL     1       7.257   5.411  19.396  0.00  0.00    +0.000 C 
BRANCH  23  24
ATOM     24  C   UNL     1       5.746   5.283  19.480  0.00  0.00    +0.000 C 
BRANCH  24  25
ATOM     25  C   UNL     1       5.315   3.912  18.991  0.00  0.00    +0.000 C 
BRANCH  25  26
ATOM     26  C   UNL     1       3.813   3.752  19.153  0.00  0.00    +0.000 C 
BRANCH  26  27
ATOM     27  C   UNL     1       3.375   2.396  18.621  0.00  0.00    +0.000 C 
BRANCH  27  28
ATOM     28  C   UNL     1       1.967   2.076  19.095  0.00  0.00    +0.000 C 
BRANCH  28  30
ATOM     29  C   UNL     1       0.777   3.895  20.320  0.00  0.00    +0.000 C 
ATOM     30  C   UNL     1       1.705   2.704  20.457  0.00  0.00    +0.000 C 
ENDBRANCH  28  30
ENDBRANCH  27  28
ENDBRANCH  26  27
ENDBRANCH  25  26
ENDBRANCH  24  25
ENDBRANCH  23  24
ENDBRANCH  22  23
ENDBRANCH  21  22
ENDBRANCH  20  21
ENDBRANCH  19  20
ENDBRANCH  18  19
ENDBRANCH  17  18
ENDBRANCH   1  17
TORSDOF 16
ENDMDL
