MODEL 1
REMARK VINA RESULT:      -8.1      0.000      0.000
REMARK  Name = 
REMARK  8 active torsions:
REMARK  status: ('A' for Active; 'I' for Inactive)
REMARK    1  A    between atoms: C_1  and  O_2
REMARK    2  A    between atoms: O_2  and  C_3
REMARK    3  A    between atoms: C_6  and  C_7
REMARK    4  A    between atoms: N_11  and  C_12
REMARK    5  A    between atoms: C_15  and  S_16
REMARK    6  A    between atoms: S_16  and  N_17
REMARK    7  A    between atoms: C_24  and  O_25
REMARK    8  A    between atoms: O_25  and  C_26
REMARK                            x       y       z     vdW  Elec       q    Type
REMARK                         _______ _______ _______ _____ _____    ______ ____
ROOT
ATOM      1  C   UNL     1       3.441   5.368  18.779  0.00  0.00    +0.000 A 
ATOM      2  C   UNL     1       2.989   4.205  19.414  0.00  0.00    +0.000 A 
ATOM      3  S   UNL     1       1.980   4.647  20.691  0.00  0.00    +0.000 S 
ATOM      4  C   UNL     1       2.100   6.281  20.337  0.00  0.00    +0.000 A 
ATOM      5  N   UNL     1       1.526   7.324  21.106  0.00  0.00    +0.000 N 
ATOM      6  N   UNL     1       2.924   6.513  19.295  0.00  0.00    +0.000 NA
ATOM      7  H   UNL     1       1.334   7.149  22.104  0.00  0.00    +0.000 HD
ENDROOT
BRANCH   1  11
ATOM      8  C   UNL     1       6.538   5.402  15.736  0.00  0.00    +0.000 A 
ATOM      9  C   UNL     1       5.566   4.393  15.810  0.00  0.00    +0.000 A 
ATOM     10  C   UNL     1       4.566   4.378  16.766  0.00  0.00    +0.000 A 
ATOM     11  C   UNL     1       4.467   5.405  17.700  0.00  0.00    +0.000 A 
ATOM     12  C   UNL     1       5.398   6.455  17.637  0.00  0.00    +0.000 A 
ATOM     13  C   UNL     1       6.441   6.492  16.686  0.00  0.00    +0.000 A 
BRANCH   8  15
ATOM     14  C   UNL     1       7.400   4.831  13.424  0.00  0.00    +0.000 C 
ATOM     15  O   UNL     1       7.458   5.149  14.758  0.00  0.00    +0.000 OA
ENDBRANCH   8  15
BRANCH  13  16
ATOM     16  O   UNL     1       7.225   7.599  16.813  0.00  0.00    +0.000 OA
ATOM     17  C   UNL     1       7.952   8.126  17.848  0.00  0.00    +0.000 C 
ENDBRANCH  13  16
ENDBRANCH   1  11
BRANCH   5  18
ATOM     18  C   UNL     1       1.243   8.602  20.548  0.00  0.00    +0.000 A 
ATOM     19  C   UNL     1       0.847   9.671  21.372  0.00  0.00    +0.000 A 
ATOM     20  C   UNL     1       0.620  10.935  20.832  0.00  0.00    +0.000 A 
ATOM     21  C   UNL     1       0.767  11.147  19.459  0.00  0.00    +0.000 A 
ATOM     22  C   UNL     1       1.152  10.087  18.627  0.00  0.00    +0.000 A 
ATOM     23  C   UNL     1       1.405   8.821  19.173  0.00  0.00    +0.000 A 
BRANCH  21  24
ATOM     24  S   UNL     1       0.475  12.783  18.795  0.00  0.00    +0.000 S 
ATOM     25  O   UNL     1       0.229  13.850  19.874  0.00  0.00    +0.000 OA
ATOM     26  O   UNL     1       1.695  13.353  18.057  0.00  0.00    +0.000 OA
BRANCH  24  27
ATOM     27  N   UNL     1      -0.867  12.963  17.662  0.00  0.00    +0.000 NA
ATOM     28  H   UNL     1      -1.096  13.980  17.596  0.00  0.00    +0.000 HD
ATOM     29  H   UNL     1      -1.695  12.470  18.067  0.00  0.00    +0.000 HD
ENDBRANCH  24  27
ENDBRANCH  21  24
ENDBRANCH   5  18
TORSDOF 6
ENDMDL
MODEL 2
REMARK VINA RESULT:      -8.0      0.650      1.148
REMARK  Name = 
REMARK  8 active torsions:
REMARK  status: ('A' for Active; 'I' for Inactive)
REMARK    1  A    between atoms: C_1  and  O_2
REMARK    2  A    between atoms: O_2  and  C_3
REMARK    3  A    between atoms: C_6  and  C_7
REMARK    4  A    between atoms: N_11  and  C_12
REMARK    5  A    between atoms: C_15  and  S_16
REMARK    6  A    between atoms: S_16  and  N_17
REMARK    7  A    between atoms: C_24  and  O_25
REMARK    8  A    between atoms: O_25  and  C_26
REMARK                            x       y       z     vdW  Elec       q    Type
REMARK                         _______ _______ _______ _____ _____    ______ ____
ROOT
ATOM      1  C   UNL     1       3.807   4.927  18.526  0.00  0.00    +0.000 A 
ATOM      2  C   UNL     1       3.406   3.712  19.096  0.00  0.00    +0.000 A 
ATOM      3  S   UNL     1       2.409   4.041  20.415  0.00  0.00    +0.000 S 
ATOM      4  C   UNL     1       2.468   5.697  20.162  0.00  0.00    +0.000 A 
ATOM      5  N   UNL     1       1.875   6.670  21.004  0.00  0.00    +0.000 N 
ATOM      6  N   UNL     1       3.263   6.020  19.122  0.00  0.00    +0.000 NA
ATOM      7  H   UNL     1       1.709   6.427  21.992  0.00  0.00    +0.000 HD
ENDROOT
BRANCH   1  11
ATOM      8  C   UNL     1       6.827   5.224  15.421  0.00  0.00    +0.000 A 
ATOM      9  C   UNL     1       5.736   4.349  15.328  0.00  0.00    +0.000 A 
ATOM     10  C   UNL     1       4.759   4.255  16.303  0.00  0.00    +0.000 A 
ATOM     11  C   UNL     1       4.809   5.065  17.434  0.00  0.00    +0.000 A 
ATOM     12  C   UNL     1       5.867   5.983  17.547  0.00  0.00    +0.000 A 
ATOM     13  C   UNL     1       6.888   6.093  16.580  0.00  0.00    +0.000 A 
BRANCH   8  15
ATOM     14  C   UNL     1       7.561   5.005  13.006  0.00  0.00    +0.000 C 
ATOM     15  O   UNL     1       7.690   5.074  14.372  0.00  0.00    +0.000 OA
ENDBRANCH   8  15
BRANCH  13  16
ATOM     16  O   UNL     1       7.811   7.044  16.897  0.00  0.00    +0.000 OA
ATOM     17  C   UNL     1       7.761   8.195  17.641  0.00  0.00    +0.000 C 
ENDBRANCH  13  16
ENDBRANCH   1  11
BRANCH   5  18
ATOM     18  C   UNL     1       1.539   7.970  20.532  0.00  0.00    +0.000 A 
ATOM     19  C   UNL     1       1.761   8.324  19.189  0.00  0.00    +0.000 A 
ATOM     20  C   UNL     1       1.385   9.579  18.717  0.00  0.00    +0.000 A 
ATOM     21  C   UNL     1       0.800  10.508  19.581  0.00  0.00    +0.000 A 
ATOM     22  C   UNL     1       0.584  10.169  20.924  0.00  0.00    +0.000 A 
ATOM     23  C   UNL     1       0.937   8.897  21.395  0.00  0.00    +0.000 A 
BRANCH  21  24
ATOM     24  S   UNL     1       0.322  12.110  18.944  0.00  0.00    +0.000 S 
ATOM     25  O   UNL     1      -0.098  13.106  20.036  0.00  0.00    +0.000 OA
ATOM     26  O   UNL     1       1.484  12.851  18.265  0.00  0.00    +0.000 OA
BRANCH  24  27
ATOM     27  N   UNL     1      -0.991  12.145  17.764  0.00  0.00    +0.000 NA
ATOM     28  H   UNL     1      -0.658  12.681  16.931  0.00  0.00    +0.000 HD
ATOM     29  H   UNL     1      -1.788  12.670  18.189  0.00  0.00    +0.000 HD
ENDBRANCH  24  27
ENDBRANCH  21  24
ENDBRANCH   5  18
TORSDOF 6
ENDMDL
MODEL 3
REMARK VINA RESULT:      -7.9      1.090      1.212
REMARK  Name = 
REMARK  8 active torsions:
REMARK  status: ('A' for Active; 'I' for Inactive)
REMARK    1  A    between atoms: C_1  and  O_2
REMARK    2  A    between atoms: O_2  and  C_3
REMARK    3  A    between atoms: C_6  and  C_7
REMARK    4  A    between atoms: N_11  and  C_12
REMARK    5  A    between atoms: C_15  and  S_16
REMARK    6  A    between atoms: S_16  and  N_17
REMARK    7  A    between atoms: C_24  and  O_25
REMARK    8  A    between atoms: O_25  and  C_26
REMARK                            x       y       z     vdW  Elec       q    Type
REMARK                         _______ _______ _______ _____ _____    ______ ____
ROOT
ATOM      1  C   UNL     1       3.970   4.704  18.433  0.00  0.00    +0.000 A 
ATOM      2  C   UNL     1       3.609   3.471  18.991  0.00  0.00    +0.000 A 
ATOM      3  S   UNL     1       2.602   3.755  20.314  0.00  0.00    +0.000 S 
ATOM      4  C   UNL     1       2.609   5.414  20.077  0.00  0.00    +0.000 A 
ATOM      5  N   UNL     1       1.986   6.360  20.929  0.00  0.00    +0.000 N 
ATOM      6  N   UNL     1       3.393   5.773  19.040  0.00  0.00    +0.000 NA
ATOM      7  H   UNL     1       1.830   6.103  21.915  0.00  0.00    +0.000 HD
ENDROOT
BRANCH   1  11
ATOM      8  C   UNL     1       6.980   5.136  15.334  0.00  0.00    +0.000 A 
ATOM      9  C   UNL     1       5.963   4.173  15.266  0.00  0.00    +0.000 A 
ATOM     10  C   UNL     1       4.990   4.034  16.240  0.00  0.00    +0.000 A 
ATOM     11  C   UNL     1       4.966   4.885  17.341  0.00  0.00    +0.000 A 
ATOM     12  C   UNL     1       5.946   5.888  17.428  0.00  0.00    +0.000 A 
ATOM     13  C   UNL     1       6.963   6.046  16.462  0.00  0.00    +0.000 A 
BRANCH   8  15
ATOM     14  C   UNL     1       7.830   5.316  12.955  0.00  0.00    +0.000 C 
ATOM     15  O   UNL     1       7.860   5.019  14.295  0.00  0.00    +0.000 OA
ENDBRANCH   8  15
BRANCH  13  16
ATOM     16  O   UNL     1       7.803   7.079  16.750  0.00  0.00    +0.000 OA
ATOM     17  C   UNL     1       7.745   8.123  17.637  0.00  0.00    +0.000 C 
ENDBRANCH  13  16
ENDBRANCH   1  11
BRANCH   5  18
ATOM     18  C   UNL     1       1.609   7.653  20.470  0.00  0.00    +0.000 A 
ATOM     19  C   UNL     1       1.038   8.588  21.353  0.00  0.00    +0.000 A 
ATOM     20  C   UNL     1       0.717   9.870  20.914  0.00  0.00    +0.000 A 
ATOM     21  C   UNL     1       0.943  10.234  19.585  0.00  0.00    +0.000 A 
ATOM     22  C   UNL     1       1.503   9.308  18.695  0.00  0.00    +0.000 A 
ATOM     23  C   UNL     1       1.851   8.025  19.140  0.00  0.00    +0.000 A 
BRANCH  21  24
ATOM     24  S   UNL     1       0.526  11.892  19.054  0.00  0.00    +0.000 S 
ATOM     25  O   UNL     1      -0.848  11.991  18.372  0.00  0.00    +0.000 OA
ATOM     26  O   UNL     1       0.372  12.871  20.226  0.00  0.00    +0.000 OA
BRANCH  24  27
ATOM     27  N   UNL     1       1.646  12.684  17.942  0.00  0.00    +0.000 NA
ATOM     28  H   UNL     1       1.893  11.997  17.195  0.00  0.00    +0.000 HD
ATOM     29  H   UNL     1       2.516  12.912  18.474  0.00  0.00    +0.000 HD
ENDBRANCH  24  27
ENDBRANCH  21  24
ENDBRANCH   5  18
TORSDOF 6
ENDMDL
MODEL 4
REMARK VINA RESULT:      -7.7      1.683      2.745
REMARK  Name = 
REMARK  8 active torsions:
REMARK  status: ('A' for Active; 'I' for Inactive)
REMARK    1  A    between atoms: C_1  and  O_2
REMARK    2  A    between atoms: O_2  and  C_3
REMARK    3  A    between atoms: C_6  and  C_7
REMARK    4  A    between atoms: N_11  and  C_12
REMARK    5  A    between atoms: C_15  and  S_16
REMARK    6  A    between atoms: S_16  and  N_17
REMARK    7  A    between atoms: C_24  and  O_25
REMARK    8  A    between atoms: O_25  and  C_26
REMARK                            x       y       z     vdW  Elec       q    Type
REMARK                         _______ _______ _______ _____ _____    ______ ____
ROOT
ATOM      1  C   UNL     1       4.178   4.218  18.195  0.00  0.00    +0.000 A 
ATOM      2  C   UNL     1       3.786   2.971  18.697  0.00  0.00    +0.000 A 
ATOM      3  S   UNL     1       2.778   3.220  20.026  0.00  0.00    +0.000 S 
ATOM      4  C   UNL     1       2.824   4.888  19.862  0.00  0.00    +0.000 A 
ATOM      5  N   UNL     1       2.217   5.809  20.751  0.00  0.00    +0.000 N 
ATOM      6  N   UNL     1       3.622   5.272  18.845  0.00  0.00    +0.000 NA
ATOM      7  H   UNL     1       2.049   5.513  21.724  0.00  0.00    +0.000 HD
ENDROOT
BRANCH   1  11
ATOM      8  C   UNL     1       7.050   4.964  15.025  0.00  0.00    +0.000 A 
ATOM      9  C   UNL     1       7.339   5.207  16.376  0.00  0.00    +0.000 A 
ATOM     10  C   UNL     1       6.438   4.960  17.397  0.00  0.00    +0.000 A 
ATOM     11  C   UNL     1       5.185   4.423  17.118  0.00  0.00    +0.000 A 
ATOM     12  C   UNL     1       4.870   4.129  15.781  0.00  0.00    +0.000 A 
ATOM     13  C   UNL     1       5.758   4.384  14.714  0.00  0.00    +0.000 A 
BRANCH   8  15
ATOM     14  C   UNL     1       8.191   5.656  12.872  0.00  0.00    +0.000 C 
ATOM     15  O   UNL     1       8.070   5.362  14.208  0.00  0.00    +0.000 OA
ENDBRANCH   8  15
BRANCH  13  16
ATOM     16  O   UNL     1       5.243   4.025  13.505  0.00  0.00    +0.000 OA
ATOM     17  C   UNL     1       5.716   3.267  12.466  0.00  0.00    +0.000 C 
ENDBRANCH  13  16
ENDBRANCH   1  11
BRANCH   5  18
ATOM     18  C   UNL     1       1.873   7.130  20.347  0.00  0.00    +0.000 A 
ATOM     19  C   UNL     1       2.197   7.593  19.059  0.00  0.00    +0.000 A 
ATOM     20  C   UNL     1       1.815   8.867  18.648  0.00  0.00    +0.000 A 
ATOM     21  C   UNL     1       1.119   9.707  19.522  0.00  0.00    +0.000 A 
ATOM     22  C   UNL     1       0.799   9.259  20.811  0.00  0.00    +0.000 A 
ATOM     23  C   UNL     1       1.161   7.968  21.217  0.00  0.00    +0.000 A 
BRANCH  21  24
ATOM     24  S   UNL     1       0.636  11.336  18.962  0.00  0.00    +0.000 S 
ATOM     25  O   UNL     1      -0.732  11.365  18.262  0.00  0.00    +0.000 OA
ATOM     26  O   UNL     1       0.423  12.324  20.119  0.00  0.00    +0.000 OA
BRANCH  24  27
ATOM     27  N   UNL     1       1.733  12.163  17.854  0.00  0.00    +0.000 NA
ATOM     28  H   UNL     1       2.597  12.411  18.386  0.00  0.00    +0.000 HD
ATOM     29  H   UNL     1       1.273  13.051  17.551  0.00  0.00    +0.000 HD
ENDBRANCH  24  27
ENDBRANCH  21  24
ENDBRANCH   5  18
TORSDOF 6
ENDMDL
MODEL 5
REMARK VINA RESULT:      -7.5      4.162      8.845
REMARK  Name = 
REMARK  8 active torsions:
REMARK  status: ('A' for Active; 'I' for Inactive)
REMARK    1  A    between atoms: C_1  and  O_2
REMARK    2  A    between atoms: O_2  and  C_3
REMARK    3  A    between atoms: C_6  and  C_7
REMARK    4  A    between atoms: N_11  and  C_12
REMARK    5  A    between atoms: C_15  and  S_16
REMARK    6  A    between atoms: S_16  and  N_17
REMARK    7  A    between atoms: C_24  and  O_25
REMARK    8  A    between atoms: O_25  and  C_26
REMARK                            x       y       z     vdW  Elec       q    Type
REMARK                         _______ _______ _______ _____ _____    ______ ____
ROOT
ATOM      1  C   UNL     1      -1.008  10.544  18.865  0.00  0.00    +0.000 A 
ATOM      2  C   UNL     1      -0.832  11.644  19.714  0.00  0.00    +0.000 A 
ATOM      3  S   UNL     1       0.216  11.200  20.959  0.00  0.00    +0.000 S 
ATOM      4  C   UNL     1       0.457   9.666  20.329  0.00  0.00    +0.000 A 
ATOM      5  N   UNL     1       1.222   8.645  20.945  0.00  0.00    +0.000 N 
ATOM      6  N   UNL     1      -0.271   9.458  19.213  0.00  0.00    +0.000 NA
ATOM      7  H   UNL     1       1.346   8.675  21.968  0.00  0.00    +0.000 HD
ENDROOT
BRANCH   1  11
ATOM      8  C   UNL     1      -3.749  10.509  15.498  0.00  0.00    +0.000 A 
ATOM      9  C   UNL     1      -2.610   9.693  15.550  0.00  0.00    +0.000 A 
ATOM     10  C   UNL     1      -1.737   9.684  16.623  0.00  0.00    +0.000 A 
ATOM     11  C   UNL     1      -1.974  10.488  17.734  0.00  0.00    +0.000 A 
ATOM     12  C   UNL     1      -3.125  11.294  17.738  0.00  0.00    +0.000 A 
ATOM     13  C   UNL     1      -4.028  11.339  16.653  0.00  0.00    +0.000 A 
BRANCH   8  15
ATOM     14  C   UNL     1      -4.088   9.891  13.065  0.00  0.00    +0.000 C 
ATOM     15  O   UNL     1      -4.403  10.392  14.304  0.00  0.00    +0.000 OA
ENDBRANCH   8  15
BRANCH  13  16
ATOM     16  O   UNL     1      -5.069  12.190  16.873  0.00  0.00    +0.000 OA
ATOM     17  C   UNL     1      -6.053  12.249  17.825  0.00  0.00    +0.000 C 
ENDBRANCH  13  16
ENDBRANCH   1  11
BRANCH   5  18
ATOM     18  C   UNL     1       1.786   7.572  20.200  0.00  0.00    +0.000 A 
ATOM     19  C   UNL     1       1.715   6.252  20.679  0.00  0.00    +0.000 A 
ATOM     20  C   UNL     1       2.223   5.197  19.924  0.00  0.00    +0.000 A 
ATOM     21  C   UNL     1       2.825   5.444  18.688  0.00  0.00    +0.000 A 
ATOM     22  C   UNL     1       2.910   6.757  18.206  0.00  0.00    +0.000 A 
ATOM     23  C   UNL     1       2.377   7.817  18.952  0.00  0.00    +0.000 A 
BRANCH  21  24
ATOM     24  S   UNL     1       3.461   4.067  17.739  0.00  0.00    +0.000 S 
ATOM     25  O   UNL     1       2.371   3.266  17.010  0.00  0.00    +0.000 OA
ATOM     26  O   UNL     1       4.361   4.511  16.577  0.00  0.00    +0.000 OA
BRANCH  24  27
ATOM     27  N   UNL     1       4.408   2.859  18.612  0.00  0.00    +0.000 NA
ATOM     28  H   UNL     1       5.407   2.969  18.327  0.00  0.00    +0.000 HD
ATOM     29  H   UNL     1       4.085   1.915  18.302  0.00  0.00    +0.000 HD
ENDBRANCH  24  27
ENDBRANCH  21  24
ENDBRANCH   5  18
TORSDOF 6
ENDMDL
MODEL 6
REMARK VINA RESULT:      -7.5      4.066      8.908
REMARK  Name = 
REMARK  8 active torsions:
REMARK  status: ('A' for Active; 'I' for Inactive)
REMARK    1  A    between atoms: C_1  and  O_2
REMARK    2  A    between atoms: O_2  and  C_3
REMARK    3  A    between atoms: C_6  and  C_7
REMARK    4  A    between atoms: N_11  and  C_12
REMARK    5  A    between atoms: C_15  and  S_16
REMARK    6  A    between atoms: S_16  and  N_17
REMARK    7  A    between atoms: C_24  and  O_25
REMARK    8  A    between atoms: O_25  and  C_26
REMARK                            x       y       z     vdW  Elec       q    Type
REMARK                         _______ _______ _______ _____ _____    ______ ____
ROOT
ATOM      1  C   UNL     1      -0.594  10.326  19.289  0.00  0.00    +0.000 A 
ATOM      2  C   UNL     1      -0.231  11.395  20.117  0.00  0.00    +0.000 A 
ATOM      3  S   UNL     1       0.830  10.826  21.297  0.00  0.00    +0.000 S 
ATOM      4  C   UNL     1       0.842   9.273  20.665  0.00  0.00    +0.000 A 
ATOM      5  N   UNL     1       1.513   8.166  21.240  0.00  0.00    +0.000 N 
ATOM      6  N   UNL     1       0.024   9.157  19.599  0.00  0.00    +0.000 NA
ATOM      7  H   UNL     1       1.703   8.180  22.253  0.00  0.00    +0.000 HD
ENDROOT
BRANCH   1  11
ATOM      8  C   UNL     1      -3.539  10.645  16.115  0.00  0.00    +0.000 A 
ATOM      9  C   UNL     1      -2.407   9.823  16.012  0.00  0.00    +0.000 A 
ATOM     10  C   UNL     1      -1.469   9.701  17.022  0.00  0.00    +0.000 A 
ATOM     11  C   UNL     1      -1.629  10.389  18.221  0.00  0.00    +0.000 A 
ATOM     12  C   UNL     1      -2.769  11.195  18.378  0.00  0.00    +0.000 A 
ATOM     13  C   UNL     1      -3.737  11.354  17.363  0.00  0.00    +0.000 A 
BRANCH   8  15
ATOM     14  C   UNL     1      -4.114  10.110  13.706  0.00  0.00    +0.000 C 
ATOM     15  O   UNL     1      -4.267  10.653  14.958  0.00  0.00    +0.000 OA
ENDBRANCH   8  15
BRANCH  13  16
ATOM     16  O   UNL     1      -4.753  12.183  17.733  0.00  0.00    +0.000 OA
ATOM     17  C   UNL     1      -6.002  12.428  17.225  0.00  0.00    +0.000 C 
ENDBRANCH  13  16
ENDBRANCH   1  11
BRANCH   5  18
ATOM     18  C   UNL     1       1.892   7.031  20.469  0.00  0.00    +0.000 A 
ATOM     19  C   UNL     1       2.688   7.181  19.318  0.00  0.00    +0.000 A 
ATOM     20  C   UNL     1       3.100   6.065  18.594  0.00  0.00    +0.000 A 
ATOM     21  C   UNL     1       2.711   4.785  18.994  0.00  0.00    +0.000 A 
ATOM     22  C   UNL     1       1.910   4.625  20.134  0.00  0.00    +0.000 A 
ATOM     23  C   UNL     1       1.515   5.744  20.879  0.00  0.00    +0.000 A 
BRANCH  21  24
ATOM     24  S   UNL     1       3.263   3.371  18.046  0.00  0.00    +0.000 S 
ATOM     25  O   UNL     1       3.282   2.061  18.850  0.00  0.00    +0.000 OA
ATOM     26  O   UNL     1       2.314   3.023  16.890  0.00  0.00    +0.000 OA
BRANCH  24  27
ATOM     27  N   UNL     1       4.863   3.476  17.307  0.00  0.00    +0.000 NA
ATOM     28  H   UNL     1       4.914   2.755  16.553  0.00  0.00    +0.000 HD
ATOM     29  H   UNL     1       5.569   3.231  18.037  0.00  0.00    +0.000 HD
ENDBRANCH  24  27
ENDBRANCH  21  24
ENDBRANCH   5  18
TORSDOF 6
ENDMDL
MODEL 7
REMARK VINA RESULT:      -7.4      1.791      2.691
REMARK  Name = 
REMARK  8 active torsions:
REMARK  status: ('A' for Active; 'I' for Inactive)
REMARK    1  A    between atoms: C_1  and  O_2
REMARK    2  A    between atoms: O_2  and  C_3
REMARK    3  A    between atoms: C_6  and  C_7
REMARK    4  A    between atoms: N_11  and  C_12
REMARK    5  A    between atoms: C_15  and  S_16
REMARK    6  A    between atoms: S_16  and  N_17
REMARK    7  A    between atoms: C_24  and  O_25
REMARK    8  A    between atoms: O_25  and  C_26
REMARK                            x       y       z     vdW  Elec       q    Type
REMARK                         _______ _______ _______ _____ _____    ______ ____
ROOT
ATOM      1  C   UNL     1       4.241   4.097  18.128  0.00  0.00    +0.000 A 
ATOM      2  C   UNL     1       3.872   2.835  18.609  0.00  0.00    +0.000 A 
ATOM      3  S   UNL     1       2.863   3.043  19.945  0.00  0.00    +0.000 S 
ATOM      4  C   UNL     1       2.879   4.714  19.808  0.00  0.00    +0.000 A 
ATOM      5  N   UNL     1       2.259   5.610  20.714  0.00  0.00    +0.000 N 
ATOM      6  N   UNL     1       3.667   5.130  18.797  0.00  0.00    +0.000 NA
ATOM      7  H   UNL     1       2.098   5.295  21.683  0.00  0.00    +0.000 HD
ENDROOT
BRANCH   1  11
ATOM      8  C   UNL     1       7.090   4.947  14.964  0.00  0.00    +0.000 A 
ATOM      9  C   UNL     1       7.376   5.179  16.317  0.00  0.00    +0.000 A 
ATOM     10  C   UNL     1       6.483   4.899  17.336  0.00  0.00    +0.000 A 
ATOM     11  C   UNL     1       5.241   4.338  17.052  0.00  0.00    +0.000 A 
ATOM     12  C   UNL     1       4.930   4.055  15.711  0.00  0.00    +0.000 A 
ATOM     13  C   UNL     1       5.811   4.343  14.647  0.00  0.00    +0.000 A 
BRANCH   8  15
ATOM     14  C   UNL     1       8.204   5.725  12.826  0.00  0.00    +0.000 C 
ATOM     15  O   UNL     1       8.100   5.378  14.150  0.00  0.00    +0.000 OA
ENDBRANCH   8  15
BRANCH  13  16
ATOM     16  O   UNL     1       5.301   3.989  13.434  0.00  0.00    +0.000 OA
ATOM     17  C   UNL     1       5.786   3.249  12.387  0.00  0.00    +0.000 C 
ENDBRANCH  13  16
ENDBRANCH   1  11
BRANCH   5  18
ATOM     18  C   UNL     1       1.890   6.931  20.334  0.00  0.00    +0.000 A 
ATOM     19  C   UNL     1       1.222   7.776  21.237  0.00  0.00    +0.000 A 
ATOM     20  C   UNL     1       0.907   9.085  20.881  0.00  0.00    +0.000 A 
ATOM     21  C   UNL     1       1.236   9.565  19.611  0.00  0.00    +0.000 A 
ATOM     22  C   UNL     1       1.894   8.728  18.699  0.00  0.00    +0.000 A 
ATOM     23  C   UNL     1       2.235   7.419  19.065  0.00  0.00    +0.000 A 
BRANCH  21  24
ATOM     24  S   UNL     1       0.825  11.254  19.185  0.00  0.00    +0.000 S 
ATOM     25  O   UNL     1       1.871  11.935  18.290  0.00  0.00    +0.000 OA
ATOM     26  O   UNL     1      -0.445  11.359  18.328  0.00  0.00    +0.000 OA
BRANCH  24  27
ATOM     27  N   UNL     1       0.566  12.379  20.521  0.00  0.00    +0.000 NA
ATOM     28  H   UNL     1       0.645  11.839  21.412  0.00  0.00    +0.000 HD
ATOM     29  H   UNL     1      -0.411  12.743  20.448  0.00  0.00    +0.000 HD
ENDBRANCH  24  27
ENDBRANCH  21  24
ENDBRANCH   5  18
TORSDOF 6
ENDMDL
MODEL 8
REMARK VINA RESULT:      -7.3      4.158      8.907
REMARK  Name = 
REMARK  8 active torsions:
REMARK  status: ('A' for Active; 'I' for Inactive)
REMARK    1  A    between atoms: C_1  and  O_2
REMARK    2  A    between atoms: O_2  and  C_3
REMARK    3  A    between atoms: C_6  and  C_7
REMARK    4  A    between atoms: N_11  and  C_12
REMARK    5  A    between atoms: C_15  and  S_16
REMARK    6  A    between atoms: S_16  and  N_17
REMARK    7  A    between atoms: C_24  and  O_25
REMARK    8  A    between atoms: O_25  and  C_26
REMARK                            x       y       z     vdW  Elec       q    Type
REMARK                         _______ _______ _______ _____ _____    ______ ____
ROOT
ATOM      1  C   UNL     1      -1.052  10.596  18.931  0.00  0.00    +0.000 A 
ATOM      2  C   UNL     1      -0.850  11.703  19.764  0.00  0.00    +0.000 A 
ATOM      3  S   UNL     1       0.180  11.250  21.020  0.00  0.00    +0.000 S 
ATOM      4  C   UNL     1       0.383   9.700  20.414  0.00  0.00    +0.000 A 
ATOM      5  N   UNL     1       1.117   8.668  21.049  0.00  0.00    +0.000 N 
ATOM      6  N   UNL     1      -0.347   9.495  19.299  0.00  0.00    +0.000 NA
ATOM      7  H   UNL     1       1.237   8.710  22.072  0.00  0.00    +0.000 HD
ENDROOT
BRANCH   1  11
ATOM      8  C   UNL     1      -3.784  10.591  15.557  0.00  0.00    +0.000 A 
ATOM      9  C   UNL     1      -2.637   9.786  15.598  0.00  0.00    +0.000 A 
ATOM     10  C   UNL     1      -1.766   9.768  16.673  0.00  0.00    +0.000 A 
ATOM     11  C   UNL     1      -2.015  10.550  17.797  0.00  0.00    +0.000 A 
ATOM     12  C   UNL     1      -3.175  11.342  17.812  0.00  0.00    +0.000 A 
ATOM     13  C   UNL     1      -4.075  11.397  16.726  0.00  0.00    +0.000 A 
BRANCH   8  15
ATOM     14  C   UNL     1      -4.161   9.899  13.150  0.00  0.00    +0.000 C 
ATOM     15  O   UNL     1      -4.435  10.488  14.359  0.00  0.00    +0.000 OA
ENDBRANCH   8  15
BRANCH  13  16
ATOM     16  O   UNL     1      -5.126  12.233  16.958  0.00  0.00    +0.000 OA
ATOM     17  C   UNL     1      -6.289  12.110  17.674  0.00  0.00    +0.000 C 
ENDBRANCH  13  16
ENDBRANCH   1  11
BRANCH   5  18
ATOM     18  C   UNL     1       1.654   7.569  20.322  0.00  0.00    +0.000 A 
ATOM     19  C   UNL     1       2.306   7.773  19.093  0.00  0.00    +0.000 A 
ATOM     20  C   UNL     1       2.876   6.702  18.408  0.00  0.00    +0.000 A 
ATOM     21  C   UNL     1       2.787   5.409  18.928  0.00  0.00    +0.000 A 
ATOM     22  C   UNL     1       2.131   5.193  20.148  0.00  0.00    +0.000 A 
ATOM     23  C   UNL     1       1.580   6.272  20.852  0.00  0.00    +0.000 A 
BRANCH  21  24
ATOM     24  S   UNL     1       3.535   4.056  18.028  0.00  0.00    +0.000 S 
ATOM     25  O   UNL     1       4.518   4.511  16.938  0.00  0.00    +0.000 OA
ATOM     26  O   UNL     1       4.427   3.173  18.913  0.00  0.00    +0.000 OA
BRANCH  24  27
ATOM     27  N   UNL     1       2.443   2.931  17.216  0.00  0.00    +0.000 NA
ATOM     28  H   UNL     1       2.925   2.006  17.154  0.00  0.00    +0.000 HD
ATOM     29  H   UNL     1       2.287   3.281  16.244  0.00  0.00    +0.000 HD
ENDBRANCH  24  27
ENDBRANCH  21  24
ENDBRANCH   5  18
TORSDOF 6
ENDMDL
MODEL 9
REMARK VINA RESULT:      -7.2      1.330      1.374
REMARK  Name = 
REMARK  8 active torsions:
REMARK  status: ('A' for Active; 'I' for Inactive)
REMARK    1  A    between atoms: C_1  and  O_2
REMARK    2  A    between atoms: O_2  and  C_3
REMARK    3  A    between atoms: C_6  and  C_7
REMARK    4  A    between atoms: N_11  and  C_12
REMARK    5  A    between atoms: C_15  and  S_16
REMARK    6  A    between atoms: S_16  and  N_17
REMARK    7  A    between atoms: C_24  and  O_25
REMARK    8  A    between atoms: O_25  and  C_26
REMARK                            x       y       z     vdW  Elec       q    Type
REMARK                         _______ _______ _______ _____ _____    ______ ____
ROOT
ATOM      1  C   UNL     1       3.229   5.078  19.058  0.00  0.00    +0.000 A 
ATOM      2  C   UNL     1       2.592   3.969  19.629  0.00  0.00    +0.000 A 
ATOM      3  S   UNL     1       1.495   4.516  20.787  0.00  0.00    +0.000 S 
ATOM      4  C   UNL     1       1.820   6.129  20.463  0.00  0.00    +0.000 A 
ATOM      5  N   UNL     1       1.271   7.226  21.171  0.00  0.00    +0.000 N 
ATOM      6  N   UNL     1       2.776   6.271  19.523  0.00  0.00    +0.000 NA
ATOM      7  H   UNL     1       0.951   7.075  22.139  0.00  0.00    +0.000 HD
ENDROOT
BRANCH   1  11
ATOM      8  C   UNL     1       6.554   4.708  16.292  0.00  0.00    +0.000 A 
ATOM      9  C   UNL     1       5.220   4.764  15.862  0.00  0.00    +0.000 A 
ATOM     10  C   UNL     1       4.153   4.896  16.732  0.00  0.00    +0.000 A 
ATOM     11  C   UNL     1       4.368   5.007  18.103  0.00  0.00    +0.000 A 
ATOM     12  C   UNL     1       5.693   4.994  18.571  0.00  0.00    +0.000 A 
ATOM     13  C   UNL     1       6.803   4.844  17.714  0.00  0.00    +0.000 A 
BRANCH   8  15
ATOM     14  C   UNL     1       7.440   4.845  13.923  0.00  0.00    +0.000 C 
ATOM     15  O   UNL     1       7.415   4.498  15.251  0.00  0.00    +0.000 OA
ENDBRANCH   8  15
BRANCH  13  16
ATOM     16  O   UNL     1       7.989   4.855  18.384  0.00  0.00    +0.000 OA
ATOM     17  C   UNL     1       8.411   5.454  19.543  0.00  0.00    +0.000 C 
ENDBRANCH  13  16
ENDBRANCH   1  11
BRANCH   5  18
ATOM     18  C   UNL     1       1.184   8.526  20.596  0.00  0.00    +0.000 A 
ATOM     19  C   UNL     1       0.912   9.648  21.398  0.00  0.00    +0.000 A 
ATOM     20  C   UNL     1       0.878  10.924  20.842  0.00  0.00    +0.000 A 
ATOM     21  C   UNL     1       1.097  11.099  19.474  0.00  0.00    +0.000 A 
ATOM     22  C   UNL     1       1.360   9.987  18.663  0.00  0.00    +0.000 A 
ATOM     23  C   UNL     1       1.420   8.704  19.225  0.00  0.00    +0.000 A 
BRANCH  21  24
ATOM     24  S   UNL     1       1.053  12.752  18.790  0.00  0.00    +0.000 S 
ATOM     25  O   UNL     1      -0.311  13.137  18.196  0.00  0.00    +0.000 OA
ATOM     26  O   UNL     1       1.256  13.842  19.854  0.00  0.00    +0.000 OA
BRANCH  24  27
ATOM     27  N   UNL     1       2.225  13.129  17.525  0.00  0.00    +0.000 NA
ATOM     28  H   UNL     1       2.023  12.510  16.708  0.00  0.00    +0.000 HD
ATOM     29  H   UNL     1       3.175  12.887  17.886  0.00  0.00    +0.000 HD
ENDBRANCH  24  27
ENDBRANCH  21  24
ENDBRANCH   5  18
TORSDOF 6
ENDMDL
