MODEL 1
REMARK VINA RESULT:      -7.7      0.000      0.000
REMARK  Name = 
REMARK  2 active torsions:
REMARK  status: ('A' for Active; 'I' for Inactive)
REMARK    1  A    between atoms: N_1  and  C_2
REMARK    2  A    between atoms: C_8  and  C_9
REMARK                            x       y       z     vdW  Elec       q    Type
REMARK                         _______ _______ _______ _____ _____    ______ ____
ROOT
ATOM      1  C   UNL     1       4.874   4.513  17.261  0.00  0.00    +0.000 A 
ATOM      2  N   UNL     1       4.690   3.434  18.008  0.00  0.00    +0.000 NA
ATOM      3  C   UNL     1       3.759   3.771  18.942  0.00  0.00    +0.000 A 
ATOM      4  C   UNL     1       3.142   2.993  19.922  0.00  0.00    +0.000 A 
ATOM      5  C   UNL     1       2.197   3.633  20.715  0.00  0.00    +0.000 A 
ATOM      6 CL   UNL     1       1.368   2.748  21.932  0.00  0.00    +0.000 Cl
ATOM      7  C   UNL     1       1.928   4.987  20.504  0.00  0.00    +0.000 A 
ATOM      8  N   UNL     1       2.511   5.786  19.562  0.00  0.00    +0.000 NA
ATOM      9  C   UNL     1       3.404   5.104  18.819  0.00  0.00    +0.000 A 
ATOM     10  N   UNL     1       4.143   5.571  17.763  0.00  0.00    +0.000 N 
ATOM     11  H   UNL     1       4.096   6.509  17.396  0.00  0.00    +0.000 HD
ENDROOT
BRANCH   1  18
ATOM     12  C   UNL     1       6.899   5.307  16.061  0.00  0.00    +0.000 A 
ATOM     13  N   UNL     1       7.671   5.491  14.973  0.00  0.00    +0.000 NA
ATOM     14  C   UNL     1       7.286   4.875  13.836  0.00  0.00    +0.000 A 
ATOM     15  C   UNL     1       6.176   4.050  13.748  0.00  0.00    +0.000 A 
ATOM     16 BR   UNL     1       5.735   3.227  12.110  0.00  0.00    +0.000 Br
ATOM     17  C   UNL     1       5.382   3.862  14.879  0.00  0.00    +0.000 A 
ATOM     18  C   UNL     1       5.728   4.518  16.064  0.00  0.00    +0.000 A 
BRANCH  12  19
ATOM     19  N   UNL     1       7.395   5.875  17.236  0.00  0.00    +0.000 N 
ATOM     20  H   UNL     1       7.839   5.156  17.793  0.00  0.00    +0.000 HD
ATOM     21  H   UNL     1       7.994   6.675  17.019  0.00  0.00    +0.000 HD
ENDBRANCH  12  19
ENDBRANCH   1  18
TORSDOF 2
ENDMDL
MODEL 2
REMARK VINA RESULT:      -7.6      1.499      2.021
REMARK  Name = 
REMARK  2 active torsions:
REMARK  status: ('A' for Active; 'I' for Inactive)
REMARK    1  A    between atoms: N_1  and  C_2
REMARK    2  A    between atoms: C_8  and  C_9
REMARK                            x       y       z     vdW  Elec       q    Type
REMARK                         _______ _______ _______ _____ _____    ______ ____
ROOT
ATOM      1  C   UNL     1       4.728   5.034  16.746  0.00  0.00    +0.000 A 
ATOM      2  N   UNL     1       4.153   6.205  16.976  0.00  0.00    +0.000 NA
ATOM      3  C   UNL     1       3.460   6.069  18.140  0.00  0.00    +0.000 A 
ATOM      4  C   UNL     1       2.743   7.010  18.879  0.00  0.00    +0.000 A 
ATOM      5  C   UNL     1       2.161   6.558  20.057  0.00  0.00    +0.000 A 
ATOM      6 CL   UNL     1       1.280   7.653  21.045  0.00  0.00    +0.000 Cl
ATOM      7  C   UNL     1       2.309   5.219  20.425  0.00  0.00    +0.000 A 
ATOM      8  N   UNL     1       2.995   4.264  19.731  0.00  0.00    +0.000 NA
ATOM      9  C   UNL     1       3.547   4.769  18.610  0.00  0.00    +0.000 A 
ATOM     10  N   UNL     1       4.333   4.115  17.697  0.00  0.00    +0.000 N 
ATOM     11  H   UNL     1       4.613   3.148  17.765  0.00  0.00    +0.000 HD
ENDROOT
BRANCH   1  18
ATOM     12  C   UNL     1       6.883   5.520  15.612  0.00  0.00    +0.000 A 
ATOM     13  N   UNL     1       7.742   5.494  14.576  0.00  0.00    +0.000 NA
ATOM     14  C   UNL     1       7.398   4.738  13.512  0.00  0.00    +0.000 A 
ATOM     15  C   UNL     1       6.243   3.975  13.455  0.00  0.00    +0.000 A 
ATOM     16 BR   UNL     1       5.864   2.943  11.923  0.00  0.00    +0.000 Br
ATOM     17  C   UNL     1       5.359   4.005  14.533  0.00  0.00    +0.000 A 
ATOM     18  C   UNL     1       5.663   4.810  15.635  0.00  0.00    +0.000 A 
BRANCH  12  19
ATOM     19  N   UNL     1       7.332   6.228  16.729  0.00  0.00    +0.000 N 
ATOM     20  H   UNL     1       8.308   6.465  16.604  0.00  0.00    +0.000 HD
ATOM     21  H   UNL     1       6.720   7.026  16.914  0.00  0.00    +0.000 HD
ENDBRANCH  12  19
ENDBRANCH   1  18
TORSDOF 2
ENDMDL
MODEL 3
REMARK VINA RESULT:      -7.6      1.079      1.083
REMARK  Name = 
REMARK  2 active torsions:
REMARK  status: ('A' for Active; 'I' for Inactive)
REMARK    1  A    between atoms: N_1  and  C_2
REMARK    2  A    between atoms: C_8  and  C_9
REMARK                            x       y       z     vdW  Elec       q    Type
REMARK                         _______ _______ _______ _____ _____    ______ ____
ROOT
ATOM      1  C   UNL     1       4.452   4.102  17.195  0.00  0.00    +0.000 A 
ATOM      2  N   UNL     1       4.728   3.689  18.423  0.00  0.00    +0.000 NA
ATOM      3  C   UNL     1       3.530   3.503  19.043  0.00  0.00    +0.000 A 
ATOM      4  C   UNL     1       3.239   3.002  20.311  0.00  0.00    +0.000 A 
ATOM      5  C   UNL     1       1.893   2.909  20.645  0.00  0.00    +0.000 A 
ATOM      6 CL   UNL     1       1.437   2.279  22.177  0.00  0.00    +0.000 Cl
ATOM      7  C   UNL     1       0.927   3.320  19.723  0.00  0.00    +0.000 A 
ATOM      8  N   UNL     1       1.168   3.821  18.475  0.00  0.00    +0.000 NA
ATOM      9  C   UNL     1       2.487   3.871  18.208  0.00  0.00    +0.000 A 
ATOM     10  N   UNL     1       3.091   4.277  17.046  0.00  0.00    +0.000 N 
ATOM     11  H   UNL     1       2.602   4.585  16.219  0.00  0.00    +0.000 HD
ENDROOT
BRANCH   1  18
ATOM     12  C   UNL     1       6.547   5.199  16.435  0.00  0.00    +0.000 A 
ATOM     13  N   UNL     1       7.464   5.560  15.517  0.00  0.00    +0.000 NA
ATOM     14  C   UNL     1       7.344   5.022  14.285  0.00  0.00    +0.000 A 
ATOM     15  C   UNL     1       6.363   4.107  13.940  0.00  0.00    +0.000 A 
ATOM     16 BR   UNL     1       6.294   3.408  12.190  0.00  0.00    +0.000 Br
ATOM     17  C   UNL     1       5.418   3.736  14.895  0.00  0.00    +0.000 A 
ATOM     18  C   UNL     1       5.486   4.304  16.171  0.00  0.00    +0.000 A 
BRANCH  12  19
ATOM     19  N   UNL     1       6.775   5.695  17.720  0.00  0.00    +0.000 N 
ATOM     20  H   UNL     1       7.069   6.662  17.657  0.00  0.00    +0.000 HD
ATOM     21  H   UNL     1       5.956   5.537  18.313  0.00  0.00    +0.000 HD
ENDBRANCH  12  19
ENDBRANCH   1  18
TORSDOF 2
ENDMDL
MODEL 4
REMARK VINA RESULT:      -7.1      3.826      6.601
REMARK  Name = 
REMARK  2 active torsions:
REMARK  status: ('A' for Active; 'I' for Inactive)
REMARK    1  A    between atoms: N_1  and  C_2
REMARK    2  A    between atoms: C_8  and  C_9
REMARK                            x       y       z     vdW  Elec       q    Type
REMARK                         _______ _______ _______ _____ _____    ______ ____
ROOT
ATOM      1  C   UNL     1       4.612   5.026  17.410  0.00  0.00    +0.000 A 
ATOM      2  N   UNL     1       4.240   4.321  16.352  0.00  0.00    +0.000 NA
ATOM      3  C   UNL     1       5.245   4.440  15.441  0.00  0.00    +0.000 A 
ATOM      4  C   UNL     1       5.406   3.839  14.192  0.00  0.00    +0.000 A 
ATOM      5  C   UNL     1       6.574   4.147  13.505  0.00  0.00    +0.000 A 
ATOM      6 CL   UNL     1       6.871   3.435  11.970  0.00  0.00    +0.000 Cl
ATOM      7  C   UNL     1       7.496   5.027  14.077  0.00  0.00    +0.000 A 
ATOM      8  N   UNL     1       7.376   5.640  15.292  0.00  0.00    +0.000 NA
ATOM      9  C   UNL     1       6.233   5.289  15.912  0.00  0.00    +0.000 A 
ATOM     10  N   UNL     1       5.802   5.677  17.155  0.00  0.00    +0.000 N 
ATOM     11  H   UNL     1       6.314   6.281  17.780  0.00  0.00    +0.000 HD
ENDROOT
BRANCH   1  18
ATOM     12  C   UNL     1       3.678   3.855  19.391  0.00  0.00    +0.000 A 
ATOM     13  N   UNL     1       2.878   3.742  20.469  0.00  0.00    +0.000 NA
ATOM     14  C   UNL     1       2.207   4.848  20.854  0.00  0.00    +0.000 A 
ATOM     15  C   UNL     1       2.331   6.077  20.227  0.00  0.00    +0.000 A 
ATOM     16 BR   UNL     1       1.356   7.564  20.857  0.00  0.00    +0.000 Br
ATOM     17  C   UNL     1       3.162   6.188  19.114  0.00  0.00    +0.000 A 
ATOM     18  C   UNL     1       3.841   5.053  18.661  0.00  0.00    +0.000 A 
BRANCH  12  19
ATOM     19  N   UNL     1       4.431   2.716  19.097  0.00  0.00    +0.000 N 
ATOM     20  H   UNL     1       5.230   2.675  19.716  0.00  0.00    +0.000 HD
ATOM     21  H   UNL     1       3.837   1.884  19.113  0.00  0.00    +0.000 HD
ENDBRANCH  12  19
ENDBRANCH   1  18
TORSDOF 2
ENDMDL
MODEL 5
REMARK VINA RESULT:      -6.9      3.472      4.824
REMARK  Name = 
REMARK  2 active torsions:
REMARK  status: ('A' for Active; 'I' for Inactive)
REMARK    1  A    between atoms: N_1  and  C_2
REMARK    2  A    between atoms: C_8  and  C_9
REMARK                            x       y       z     vdW  Elec       q    Type
REMARK                         _______ _______ _______ _____ _____    ______ ____
ROOT
ATOM      1  C   UNL     1       2.690   6.955  18.565  0.00  0.00    +0.000 A 
ATOM      2  N   UNL     1       2.418   6.862  19.858  0.00  0.00    +0.000 NA
ATOM      3  C   UNL     1       1.714   7.981  20.182  0.00  0.00    +0.000 A 
ATOM      4  C   UNL     1       1.112   8.352  21.384  0.00  0.00    +0.000 A 
ATOM      5  C   UNL     1       0.431   9.564  21.387  0.00  0.00    +0.000 A 
ATOM      6 CL   UNL     1      -0.362  10.091  22.817  0.00  0.00    +0.000 Cl
ATOM      7  C   UNL     1       0.395  10.333  20.221  0.00  0.00    +0.000 A 
ATOM      8  N   UNL     1       0.973  10.012  19.026  0.00  0.00    +0.000 NA
ATOM      9  C   UNL     1       1.602   8.822  19.086  0.00  0.00    +0.000 A 
ATOM     10  N   UNL     1       2.253   8.168  18.072  0.00  0.00    +0.000 N 
ATOM     11  H   UNL     1       2.331   8.506  17.125  0.00  0.00    +0.000 HD
ENDROOT
BRANCH   1  18
ATOM     12  C   UNL     1       2.788   4.581  17.844  0.00  0.00    +0.000 A 
ATOM     13  N   UNL     1       3.382   3.499  17.304  0.00  0.00    +0.000 NA
ATOM     14  C   UNL     1       4.574   3.691  16.700  0.00  0.00    +0.000 A 
ATOM     15  C   UNL     1       5.182   4.930  16.580  0.00  0.00    +0.000 A 
ATOM     16 BR   UNL     1       6.844   5.088  15.704  0.00  0.00    +0.000 Br
ATOM     17  C   UNL     1       4.560   6.046  17.139  0.00  0.00    +0.000 A 
ATOM     18  C   UNL     1       3.345   5.878  17.809  0.00  0.00    +0.000 A 
BRANCH  12  19
ATOM     19  N   UNL     1       1.511   4.352  18.361  0.00  0.00    +0.000 N 
ATOM     20  H   UNL     1       0.822   4.537  17.643  0.00  0.00    +0.000 HD
ATOM     21  H   UNL     1       1.456   3.417  18.773  0.00  0.00    +0.000 HD
ENDBRANCH  12  19
ENDBRANCH   1  18
TORSDOF 2
ENDMDL
MODEL 6
REMARK VINA RESULT:      -6.7      1.388      1.645
REMARK  Name = 
REMARK  2 active torsions:
REMARK  status: ('A' for Active; 'I' for Inactive)
REMARK    1  A    between atoms: N_1  and  C_2
REMARK    2  A    between atoms: C_8  and  C_9
REMARK                            x       y       z     vdW  Elec       q    Type
REMARK                         _______ _______ _______ _____ _____    ______ ____
ROOT
ATOM      1  C   UNL     1       5.271   3.991  16.397  0.00  0.00    +0.000 A 
ATOM      2  N   UNL     1       3.956   4.156  16.403  0.00  0.00    +0.000 NA
ATOM      3  C   UNL     1       3.563   4.042  17.702  0.00  0.00    +0.000 A 
ATOM      4  C   UNL     1       2.305   4.208  18.281  0.00  0.00    +0.000 A 
ATOM      5  C   UNL     1       2.234   4.047  19.660  0.00  0.00    +0.000 A 
ATOM      6 CL   UNL     1       0.730   4.258  20.465  0.00  0.00    +0.000 Cl
ATOM      7  C   UNL     1       3.390   3.726  20.374  0.00  0.00    +0.000 A 
ATOM      8  N   UNL     1       4.639   3.549  19.848  0.00  0.00    +0.000 NA
ATOM      9  C   UNL     1       4.642   3.733  18.513  0.00  0.00    +0.000 A 
ATOM     10  N   UNL     1       5.718   3.676  17.664  0.00  0.00    +0.000 N 
ATOM     11  H   UNL     1       6.668   3.497  17.949  0.00  0.00    +0.000 HD
ENDROOT
BRANCH   1  18
ATOM     12  C   UNL     1       7.015   5.223  15.129  0.00  0.00    +0.000 A 
ATOM     13  N   UNL     1       7.709   5.547  14.021  0.00  0.00    +0.000 NA
ATOM     14  C   UNL     1       7.492   4.798  12.919  0.00  0.00    +0.000 A 
ATOM     15  C   UNL     1       6.634   3.711  12.888  0.00  0.00    +0.000 A 
ATOM     16 BR   UNL     1       6.415   2.722  11.298  0.00  0.00    +0.000 Br
ATOM     17  C   UNL     1       5.921   3.379  14.039  0.00  0.00    +0.000 A 
ATOM     18  C   UNL     1       6.089   4.158  15.187  0.00  0.00    +0.000 A 
BRANCH  12  19
ATOM     19  N   UNL     1       7.352   5.957  16.268  0.00  0.00    +0.000 N 
ATOM     20  H   UNL     1       7.593   6.902  15.997  0.00  0.00    +0.000 HD
ATOM     21  H   UNL     1       6.607   5.891  16.966  0.00  0.00    +0.000 HD
ENDBRANCH  12  19
ENDBRANCH   1  18
TORSDOF 2
ENDMDL
MODEL 7
REMARK VINA RESULT:      -6.6      3.746      6.533
REMARK  Name = 
REMARK  2 active torsions:
REMARK  status: ('A' for Active; 'I' for Inactive)
REMARK    1  A    between atoms: N_1  and  C_2
REMARK    2  A    between atoms: C_8  and  C_9
REMARK                            x       y       z     vdW  Elec       q    Type
REMARK                         _______ _______ _______ _____ _____    ______ ____
ROOT
ATOM      1  C   UNL     1       4.329   5.090  17.319  0.00  0.00    +0.000 A 
ATOM      2  N   UNL     1       4.018   4.462  16.195  0.00  0.00    +0.000 NA
ATOM      3  C   UNL     1       5.118   4.540  15.396  0.00  0.00    +0.000 A 
ATOM      4  C   UNL     1       5.364   3.982  14.142  0.00  0.00    +0.000 A 
ATOM      5  C   UNL     1       6.616   4.227  13.591  0.00  0.00    +0.000 A 
ATOM      6 CL   UNL     1       7.018   3.559  12.060  0.00  0.00    +0.000 Cl
ATOM      7  C   UNL     1       7.535   5.006  14.297  0.00  0.00    +0.000 A 
ATOM      8  N   UNL     1       7.335   5.576  15.522  0.00  0.00    +0.000 NA
ATOM      9  C   UNL     1       6.111   5.289  16.006  0.00  0.00    +0.000 A 
ATOM     10  N   UNL     1       5.584   5.656  17.218  0.00  0.00    +0.000 N 
ATOM     11  H   UNL     1       6.070   6.191  17.920  0.00  0.00    +0.000 HD
ENDROOT
BRANCH   1  18
ATOM     12  C   UNL     1       2.873   6.358  18.882  0.00  0.00    +0.000 A 
ATOM     13  N   UNL     1       2.159   6.523  20.012  0.00  0.00    +0.000 NA
ATOM     14  C   UNL     1       1.983   5.435  20.791  0.00  0.00    +0.000 A 
ATOM     15  C   UNL     1       2.462   4.176  20.470  0.00  0.00    +0.000 A 
ATOM     16 BR   UNL     1       2.147   2.720  21.626  0.00  0.00    +0.000 Br
ATOM     17  C   UNL     1       3.198   4.011  19.298  0.00  0.00    +0.000 A 
ATOM     18  C   UNL     1       3.436   5.124  18.486  0.00  0.00    +0.000 A 
BRANCH  12  19
ATOM     19  N   UNL     1       2.937   7.483  18.057  0.00  0.00    +0.000 N 
ATOM     20  H   UNL     1       2.897   8.318  18.628  0.00  0.00    +0.000 HD
ATOM     21  H   UNL     1       3.752   7.427  17.442  0.00  0.00    +0.000 HD
ENDBRANCH  12  19
ENDBRANCH   1  18
TORSDOF 2
ENDMDL
MODEL 8
REMARK VINA RESULT:      -6.6      3.948      6.633
REMARK  Name = 
REMARK  2 active torsions:
REMARK  status: ('A' for Active; 'I' for Inactive)
REMARK    1  A    between atoms: N_1  and  C_2
REMARK    2  A    between atoms: C_8  and  C_9
REMARK                            x       y       z     vdW  Elec       q    Type
REMARK                         _______ _______ _______ _____ _____    ______ ____
ROOT
ATOM      1  C   UNL     1       5.222   5.326  16.219  0.00  0.00    +0.000 A 
ATOM      2  N   UNL     1       4.813   4.383  15.383  0.00  0.00    +0.000 NA
ATOM      3  C   UNL     1       5.743   4.321  14.391  0.00  0.00    +0.000 A 
ATOM      4  C   UNL     1       5.846   3.453  13.304  0.00  0.00    +0.000 A 
ATOM      5  C   UNL     1       6.945   3.632  12.472  0.00  0.00    +0.000 A 
ATOM      6 CL   UNL     1       7.169   2.594  11.122  0.00  0.00    +0.000 Cl
ATOM      7  C   UNL     1       7.859   4.651  12.752  0.00  0.00    +0.000 A 
ATOM      8  N   UNL     1       7.794   5.525  13.800  0.00  0.00    +0.000 NA
ATOM      9  C   UNL     1       6.717   5.289  14.574  0.00  0.00    +0.000 A 
ATOM     10  N   UNL     1       6.356   5.940  15.726  0.00  0.00    +0.000 N 
ATOM     11  H   UNL     1       6.879   6.689  16.153  0.00  0.00    +0.000 HD
ENDROOT
BRANCH   1  18
ATOM     12  C   UNL     1       4.642   4.688  18.548  0.00  0.00    +0.000 A 
ATOM     13  N   UNL     1       3.947   4.789  19.697  0.00  0.00    +0.000 NA
ATOM     14  C   UNL     1       3.116   5.846  19.820  0.00  0.00    +0.000 A 
ATOM     15  C   UNL     1       2.977   6.829  18.854  0.00  0.00    +0.000 A 
ATOM     16 BR   UNL     1       1.795   8.272  19.134  0.00  0.00    +0.000 Br
ATOM     17  C   UNL     1       3.701   6.719  17.668  0.00  0.00    +0.000 A 
ATOM     18  C   UNL     1       4.541   5.616  17.488  0.00  0.00    +0.000 A 
BRANCH  12  19
ATOM     19  N   UNL     1       5.566   3.641  18.511  0.00  0.00    +0.000 N 
ATOM     20  H   UNL     1       6.015   3.561  19.414  0.00  0.00    +0.000 HD
ATOM     21  H   UNL     1       5.117   2.783  18.181  0.00  0.00    +0.000 HD
ENDBRANCH  12  19
ENDBRANCH   1  18
TORSDOF 2
ENDMDL
MODEL 9
REMARK VINA RESULT:      -6.6      3.921      5.308
REMARK  Name = 
REMARK  2 active torsions:
REMARK  status: ('A' for Active; 'I' for Inactive)
REMARK    1  A    between atoms: N_1  and  C_2
REMARK    2  A    between atoms: C_8  and  C_9
REMARK                            x       y       z     vdW  Elec       q    Type
REMARK                         _______ _______ _______ _____ _____    ______ ____
ROOT
ATOM      1  C   UNL     1       2.654   6.834  18.866  0.00  0.00    +0.000 A 
ATOM      2  N   UNL     1       2.155   7.883  18.229  0.00  0.00    +0.000 NA
ATOM      3  C   UNL     1       1.595   8.678  19.182  0.00  0.00    +0.000 A 
ATOM      4  C   UNL     1       1.005   9.937  19.073  0.00  0.00    +0.000 A 
ATOM      5  C   UNL     1       0.545  10.508  20.254  0.00  0.00    +0.000 A 
ATOM      6 CL   UNL     1      -0.173  12.068  20.221  0.00  0.00    +0.000 Cl
ATOM      7  C   UNL     1       0.683   9.807  21.454  0.00  0.00    +0.000 A 
ATOM      8  N   UNL     1       1.247   8.573  21.605  0.00  0.00    +0.000 NA
ATOM      9  C   UNL     1       1.685   8.082  20.429  0.00  0.00    +0.000 A 
ATOM     10  N   UNL     1       2.336   6.896  20.208  0.00  0.00    +0.000 N 
ATOM     11  H   UNL     1       2.585   6.232  20.925  0.00  0.00    +0.000 HD
ENDROOT
BRANCH   1  18
ATOM     12  C   UNL     1       2.792   4.638  17.714  0.00  0.00    +0.000 A 
ATOM     13  N   UNL     1       3.440   3.570  17.211  0.00  0.00    +0.000 NA
ATOM     14  C   UNL     1       4.788   3.633  17.170  0.00  0.00    +0.000 A 
ATOM     15  C   UNL     1       5.517   4.738  17.579  0.00  0.00    +0.000 A 
ATOM     16 BR   UNL     1       7.399   4.725  17.466  0.00  0.00    +0.000 Br
ATOM     17  C   UNL     1       4.840   5.841  18.097  0.00  0.00    +0.000 A 
ATOM     18  C   UNL     1       3.446   5.795  18.193  0.00  0.00    +0.000 A 
BRANCH  12  19
ATOM     19  N   UNL     1       1.400   4.570  17.637  0.00  0.00    +0.000 N 
ATOM     20  H   UNL     1       1.029   5.497  17.467  0.00  0.00    +0.000 HD
ATOM     21  H   UNL     1       1.116   3.866  16.951  0.00  0.00    +0.000 HD
ENDBRANCH  12  19
ENDBRANCH   1  18
TORSDOF 2
ENDMDL
