MODEL 1
REMARK VINA RESULT:      -8.1      0.000      0.000
REMARK  Name = 
REMARK  10 active torsions:
REMARK  status: ('A' for Active; 'I' for Inactive)
REMARK    1  A    between atoms: C_6  and  C_7
REMARK    2  A    between atoms: C_6  and  C_8
REMARK    3  A    between atoms: C_12  and  C_13
REMARK    4  A    between atoms: C_14  and  C_15
REMARK    5  A    between atoms: C_15  and  C_16
REMARK    6  A    between atoms: C_16  and  O_17
REMARK    7  A    between atoms: C_16  and  C_18
REMARK    8  A    between atoms: C_18  and  C_19
REMARK    9  A    between atoms: C_20  and  C_21
REMARK   10  A    between atoms: C_21  and  O_22
REMARK                            x       y       z     vdW  Elec       q    Type
REMARK                         _______ _______ _______ _____ _____    ______ ____
ROOT
ATOM      1  C   UNL     1       1.977   8.324  18.186  0.00  0.00    +0.000 C 
ATOM      2  C   UNL     1       2.513   7.346  18.930  0.00  0.00    +0.000 C 
ATOM      3  C   UNL     1       2.013   7.088  20.328  0.00  0.00    +0.000 C 
ATOM      4  C   UNL     1       1.439   5.667  20.463  0.00  0.00    +0.000 C 
ATOM      5  C   UNL     1       2.426   4.597  19.940  0.00  0.00    +0.000 C 
ATOM      6  C   UNL     1       2.014   3.120  20.289  0.00  0.00    +0.000 C 
ATOM      7  C   UNL     1       1.961   2.936  21.830  0.00  0.00    +0.000 C 
ATOM      8  C   UNL     1       0.634   2.693  19.756  0.00  0.00    +0.000 C 
ATOM      9  C   UNL     1       3.106   2.162  19.761  0.00  0.00    +0.000 C 
ATOM     10  C   UNL     1       3.416   2.359  18.285  0.00  0.00    +0.000 C 
ATOM     11  C   UNL     1       3.863   3.794  17.978  0.00  0.00    +0.000 C 
ATOM     12  C   UNL     1       2.871   4.894  18.442  0.00  0.00    +0.000 C 
ATOM     13  C   UNL     1       1.689   4.914  17.438  0.00  0.00    +0.000 C 
ATOM     14  C   UNL     1       3.571   6.344  18.466  0.00  0.00    +0.000 C 
ENDROOT
BRANCH  14  15
ATOM     15  C   UNL     1       4.386   6.724  17.192  0.00  0.00    +0.000 C 
BRANCH  15  16
ATOM     16  C   UNL     1       5.932   6.540  17.253  0.00  0.00    +0.000 C 
BRANCH  16  17
ATOM     17  C   UNL     1       6.525   5.457  16.363  0.00  0.00    +0.000 C 
ATOM     18  C   UNL     1       7.525   4.511  16.971  0.00  0.00    +0.000 C 
ATOM     19  C   UNL     1       6.133   5.357  15.073  0.00  0.00    +0.000 C 
BRANCH  19  20
ATOM     20  C   UNL     1       6.756   4.540  13.988  0.00  0.00    +0.000 C 
BRANCH  20  21
ATOM     21  O   UNL     1       6.196   3.242  13.971  0.00  0.00    +0.000 OA
ATOM     22  H   UNL     1       6.220   2.917  14.887  0.00  0.00    +0.000 HD
ENDBRANCH  20  21
ENDBRANCH  19  20
ENDBRANCH  16  17
BRANCH  16  23
ATOM     23  O   UNL     1       6.572   7.783  16.948  0.00  0.00    +0.000 OA
ATOM     24  H   UNL     1       6.015   8.502  17.288  0.00  0.00    +0.000 HD
ENDBRANCH  16  23
ENDBRANCH  15  16
ENDBRANCH  14  15
TORSDOF 6
ENDMDL
MODEL 2
REMARK VINA RESULT:      -7.9      1.496      2.457
REMARK  Name = 
REMARK  10 active torsions:
REMARK  status: ('A' for Active; 'I' for Inactive)
REMARK    1  A    between atoms: C_6  and  C_7
REMARK    2  A    between atoms: C_6  and  C_8
REMARK    3  A    between atoms: C_12  and  C_13
REMARK    4  A    between atoms: C_14  and  C_15
REMARK    5  A    between atoms: C_15  and  C_16
REMARK    6  A    between atoms: C_16  and  O_17
REMARK    7  A    between atoms: C_16  and  C_18
REMARK    8  A    between atoms: C_18  and  C_19
REMARK    9  A    between atoms: C_20  and  C_21
REMARK   10  A    between atoms: C_21  and  O_22
REMARK                            x       y       z     vdW  Elec       q    Type
REMARK                         _______ _______ _______ _____ _____    ______ ____
ROOT
ATOM      1  C   UNL     1       2.625   8.017  17.602  0.00  0.00    +0.000 C 
ATOM      2  C   UNL     1       3.126   7.015  18.338  0.00  0.00    +0.000 C 
ATOM      3  C   UNL     1       2.840   6.934  19.815  0.00  0.00    +0.000 C 
ATOM      4  C   UNL     1       2.089   5.640  20.171  0.00  0.00    +0.000 C 
ATOM      5  C   UNL     1       2.797   4.389  19.598  0.00  0.00    +0.000 C 
ATOM      6  C   UNL     1       2.231   3.027  20.142  0.00  0.00    +0.000 C 
ATOM      7  C   UNL     1       2.417   2.955  21.682  0.00  0.00    +0.000 C 
ATOM      8  C   UNL     1       0.731   2.800  19.877  0.00  0.00    +0.000 C 
ATOM      9  C   UNL     1       3.058   1.869  19.538  0.00  0.00    +0.000 C 
ATOM     10  C   UNL     1       3.135   1.915  18.019  0.00  0.00    +0.000 C 
ATOM     11  C   UNL     1       3.736   3.233  17.514  0.00  0.00    +0.000 C 
ATOM     12  C   UNL     1       3.017   4.511  18.027  0.00  0.00    +0.000 C 
ATOM     13  C   UNL     1       1.697   4.659  17.226  0.00  0.00    +0.000 C 
ATOM     14  C   UNL     1       3.923   5.823  17.805  0.00  0.00    +0.000 C 
ENDROOT
BRANCH  14  15
ATOM     15  C   UNL     1       4.556   5.979  16.389  0.00  0.00    +0.000 C 
BRANCH  15  16
ATOM     16  C   UNL     1       6.097   5.783  16.270  0.00  0.00    +0.000 C 
BRANCH  16  17
ATOM     17  C   UNL     1       6.938   6.258  17.447  0.00  0.00    +0.000 C 
ATOM     18  C   UNL     1       7.241   7.728  17.550  0.00  0.00    +0.000 C 
ATOM     19  C   UNL     1       7.369   5.368  18.367  0.00  0.00    +0.000 C 
BRANCH  19  20
ATOM     20  C   UNL     1       8.387   5.582  19.442  0.00  0.00    +0.000 C 
BRANCH  20  21
ATOM     21  O   UNL     1       7.786   5.459  20.715  0.00  0.00    +0.000 OA
ATOM     22  H   UNL     1       7.037   6.079  20.730  0.00  0.00    +0.000 HD
ENDBRANCH  20  21
ENDBRANCH  19  20
ENDBRANCH  16  17
BRANCH  16  23
ATOM     23  O   UNL     1       6.383   4.401  16.033  0.00  0.00    +0.000 OA
ATOM     24  H   UNL     1       6.587   4.291  15.090  0.00  0.00    +0.000 HD
ENDBRANCH  16  23
ENDBRANCH  15  16
ENDBRANCH  14  15
TORSDOF 6
ENDMDL
MODEL 3
REMARK VINA RESULT:      -7.8      1.366      2.243
REMARK  Name = 
REMARK  10 active torsions:
REMARK  status: ('A' for Active; 'I' for Inactive)
REMARK    1  A    between atoms: C_6  and  C_7
REMARK    2  A    between atoms: C_6  and  C_8
REMARK    3  A    between atoms: C_12  and  C_13
REMARK    4  A    between atoms: C_14  and  C_15
REMARK    5  A    between atoms: C_15  and  C_16
REMARK    6  A    between atoms: C_16  and  O_17
REMARK    7  A    between atoms: C_16  and  C_18
REMARK    8  A    between atoms: C_18  and  C_19
REMARK    9  A    between atoms: C_20  and  C_21
REMARK   10  A    between atoms: C_21  and  O_22
REMARK                            x       y       z     vdW  Elec       q    Type
REMARK                         _______ _______ _______ _____ _____    ______ ____
ROOT
ATOM      1  C   UNL     1       2.129   8.068  17.847  0.00  0.00    +0.000 C 
ATOM      2  C   UNL     1       2.679   7.139  18.641  0.00  0.00    +0.000 C 
ATOM      3  C   UNL     1       2.293   7.049  20.095  0.00  0.00    +0.000 C 
ATOM      4  C   UNL     1       1.662   5.686  20.424  0.00  0.00    +0.000 C 
ATOM      5  C   UNL     1       2.544   4.512  19.934  0.00  0.00    +0.000 C 
ATOM      6  C   UNL     1       2.090   3.104  20.466  0.00  0.00    +0.000 C 
ATOM      7  C   UNL     1       2.166   3.076  22.017  0.00  0.00    +0.000 C 
ATOM      8  C   UNL     1       0.649   2.708  20.097  0.00  0.00    +0.000 C 
ATOM      9  C   UNL     1       3.082   2.036  19.952  0.00  0.00    +0.000 C 
ATOM     10  C   UNL     1       3.269   2.067  18.442  0.00  0.00    +0.000 C 
ATOM     11  C   UNL     1       3.758   3.436  17.952  0.00  0.00    +0.000 C 
ATOM     12  C   UNL     1       2.868   4.634  18.381  0.00  0.00    +0.000 C 
ATOM     13  C   UNL     1       1.604   4.623  17.482  0.00  0.00    +0.000 C 
ATOM     14  C   UNL     1       3.639   6.034  18.196  0.00  0.00    +0.000 C 
ENDROOT
BRANCH  14  15
ATOM     15  C   UNL     1       4.357   6.239  16.827  0.00  0.00    +0.000 C 
BRANCH  15  16
ATOM     16  C   UNL     1       5.834   6.733  16.862  0.00  0.00    +0.000 C 
BRANCH  16  17
ATOM     17  C   UNL     1       6.855   5.787  17.479  0.00  0.00    +0.000 C 
ATOM     18  C   UNL     1       7.143   4.494  16.765  0.00  0.00    +0.000 C 
ATOM     19  C   UNL     1       7.484   6.132  18.624  0.00  0.00    +0.000 C 
BRANCH  19  20
ATOM     20  C   UNL     1       8.322   5.262  19.506  0.00  0.00    +0.000 C 
BRANCH  20  21
ATOM     21  O   UNL     1       8.007   5.497  20.865  0.00  0.00    +0.000 OA
ATOM     22  H   UNL     1       7.983   4.628  21.298  0.00  0.00    +0.000 HD
ENDBRANCH  20  21
ENDBRANCH  19  20
ENDBRANCH  16  17
BRANCH  16  23
ATOM     23  O   UNL     1       6.257   7.060  15.535  0.00  0.00    +0.000 OA
ATOM     24  H   UNL     1       6.782   7.876  15.577  0.00  0.00    +0.000 HD
ENDBRANCH  16  23
ENDBRANCH  15  16
ENDBRANCH  14  15
TORSDOF 6
ENDMDL
MODEL 4
REMARK VINA RESULT:      -7.6      1.551      2.557
REMARK  Name = 
REMARK  10 active torsions:
REMARK  status: ('A' for Active; 'I' for Inactive)
REMARK    1  A    between atoms: C_6  and  C_7
REMARK    2  A    between atoms: C_6  and  C_8
REMARK    3  A    between atoms: C_12  and  C_13
REMARK    4  A    between atoms: C_14  and  C_15
REMARK    5  A    between atoms: C_15  and  C_16
REMARK    6  A    between atoms: C_16  and  O_17
REMARK    7  A    between atoms: C_16  and  C_18
REMARK    8  A    between atoms: C_18  and  C_19
REMARK    9  A    between atoms: C_20  and  C_21
REMARK   10  A    between atoms: C_21  and  O_22
REMARK                            x       y       z     vdW  Elec       q    Type
REMARK                         _______ _______ _______ _____ _____    ______ ____
ROOT
ATOM      1  C   UNL     1       2.983   7.782  17.442  0.00  0.00    +0.000 C 
ATOM      2  C   UNL     1       3.357   6.824  18.302  0.00  0.00    +0.000 C 
ATOM      3  C   UNL     1       2.896   6.861  19.735  0.00  0.00    +0.000 C 
ATOM      4  C   UNL     1       2.062   5.618  20.088  0.00  0.00    +0.000 C 
ATOM      5  C   UNL     1       2.787   4.309  19.694  0.00  0.00    +0.000 C 
ATOM      6  C   UNL     1       2.112   3.007  20.260  0.00  0.00    +0.000 C 
ATOM      7  C   UNL     1       2.112   3.044  21.812  0.00  0.00    +0.000 C 
ATOM      8  C   UNL     1       0.647   2.802  19.833  0.00  0.00    +0.000 C 
ATOM      9  C   UNL     1       2.962   1.785  19.842  0.00  0.00    +0.000 C 
ATOM     10  C   UNL     1       3.219   1.716  18.344  0.00  0.00    +0.000 C 
ATOM     11  C   UNL     1       3.922   2.976  17.824  0.00  0.00    +0.000 C 
ATOM     12  C   UNL     1       3.195   4.308  18.156  0.00  0.00    +0.000 C 
ATOM     13  C   UNL     1       1.985   4.433  17.194  0.00  0.00    +0.000 C 
ATOM     14  C   UNL     1       4.168   5.574  17.953  0.00  0.00    +0.000 C 
ENDROOT
BRANCH  14  15
ATOM     15  C   UNL     1       4.968   5.608  16.615  0.00  0.00    +0.000 C 
BRANCH  15  16
ATOM     16  C   UNL     1       6.519   5.490  16.709  0.00  0.00    +0.000 C 
BRANCH  16  17
ATOM     17  C   UNL     1       7.222   6.462  17.646  0.00  0.00    +0.000 C 
ATOM     18  C   UNL     1       7.578   5.981  19.027  0.00  0.00    +0.000 C 
ATOM     19  C   UNL     1       7.523   7.709  17.219  0.00  0.00    +0.000 C 
BRANCH  19  20
ATOM     20  C   UNL     1       7.981   8.872  18.039  0.00  0.00    +0.000 C 
BRANCH  20  21
ATOM     21  O   UNL     1       8.936   8.450  18.993  0.00  0.00    +0.000 OA
ATOM     22  H   UNL     1       9.244   9.251  19.449  0.00  0.00    +0.000 HD
ENDBRANCH  20  21
ENDBRANCH  19  20
ENDBRANCH  16  17
BRANCH  16  23
ATOM     23  O   UNL     1       6.872   4.155  17.086  0.00  0.00    +0.000 OA
ATOM     24  H   UNL     1       6.477   3.545  16.444  0.00  0.00    +0.000 HD
ENDBRANCH  16  23
ENDBRANCH  15  16
ENDBRANCH  14  15
TORSDOF 6
ENDMDL
MODEL 5
REMARK VINA RESULT:      -7.5      1.925      3.481
REMARK  Name = 
REMARK  10 active torsions:
REMARK  status: ('A' for Active; 'I' for Inactive)
REMARK    1  A    between atoms: C_6  and  C_7
REMARK    2  A    between atoms: C_6  and  C_8
REMARK    3  A    between atoms: C_12  and  C_13
REMARK    4  A    between atoms: C_14  and  C_15
REMARK    5  A    between atoms: C_15  and  C_16
REMARK    6  A    between atoms: C_16  and  O_17
REMARK    7  A    between atoms: C_16  and  C_18
REMARK    8  A    between atoms: C_18  and  C_19
REMARK    9  A    between atoms: C_20  and  C_21
REMARK   10  A    between atoms: C_21  and  O_22
REMARK                            x       y       z     vdW  Elec       q    Type
REMARK                         _______ _______ _______ _____ _____    ______ ____
ROOT
ATOM      1  C   UNL     1       7.264   7.217  17.369  0.00  0.00    +0.000 C 
ATOM      2  C   UNL     1       6.879   5.963  17.646  0.00  0.00    +0.000 C 
ATOM      3  C   UNL     1       7.138   5.366  19.004  0.00  0.00    +0.000 C 
ATOM      4  C   UNL     1       5.825   4.980  19.706  0.00  0.00    +0.000 C 
ATOM      5  C   UNL     1       4.923   4.111  18.799  0.00  0.00    +0.000 C 
ATOM      6  C   UNL     1       3.694   3.470  19.542  0.00  0.00    +0.000 C 
ATOM      7  C   UNL     1       4.193   2.530  20.674  0.00  0.00    +0.000 C 
ATOM      8  C   UNL     1       2.743   4.481  20.208  0.00  0.00    +0.000 C 
ATOM      9  C   UNL     1       2.914   2.587  18.541  0.00  0.00    +0.000 C 
ATOM     10  C   UNL     1       2.519   3.326  17.271  0.00  0.00    +0.000 C 
ATOM     11  C   UNL     1       3.738   3.900  16.538  0.00  0.00    +0.000 C 
ATOM     12  C   UNL     1       4.639   4.821  17.404  0.00  0.00    +0.000 C 
ATOM     13  C   UNL     1       3.919   6.188  17.539  0.00  0.00    +0.000 C 
ATOM     14  C   UNL     1       6.079   5.046  16.719  0.00  0.00    +0.000 C 
ENDROOT
BRANCH  14  15
ATOM     15  C   UNL     1       6.059   5.422  15.206  0.00  0.00    +0.000 C 
BRANCH  15  16
ATOM     16  C   UNL     1       7.137   4.764  14.293  0.00  0.00    +0.000 C 
BRANCH  16  17
ATOM     17  C   UNL     1       6.660   4.237  12.946  0.00  0.00    +0.000 C 
ATOM     18  C   UNL     1       7.443   4.620  11.720  0.00  0.00    +0.000 C 
ATOM     19  C   UNL     1       5.575   3.434  12.885  0.00  0.00    +0.000 C 
BRANCH  19  20
ATOM     20  C   UNL     1       4.813   3.016  11.668  0.00  0.00    +0.000 C 
BRANCH  20  21
ATOM     21  O   UNL     1       5.278   1.762  11.209  0.00  0.00    +0.000 OA
ATOM     22  H   UNL     1       6.170   1.910  10.853  0.00  0.00    +0.000 HD
ENDBRANCH  20  21
ENDBRANCH  19  20
ENDBRANCH  16  17
BRANCH  16  23
ATOM     23  O   UNL     1       8.202   5.693  14.069  0.00  0.00    +0.000 OA
ATOM     24  H   UNL     1       7.813   6.549  13.831  0.00  0.00    +0.000 HD
ENDBRANCH  16  23
ENDBRANCH  15  16
ENDBRANCH  14  15
TORSDOF 6
ENDMDL
MODEL 6
REMARK VINA RESULT:      -7.3      0.918      1.170
REMARK  Name = 
REMARK  10 active torsions:
REMARK  status: ('A' for Active; 'I' for Inactive)
REMARK    1  A    between atoms: C_6  and  C_7
REMARK    2  A    between atoms: C_6  and  C_8
REMARK    3  A    between atoms: C_12  and  C_13
REMARK    4  A    between atoms: C_14  and  C_15
REMARK    5  A    between atoms: C_15  and  C_16
REMARK    6  A    between atoms: C_16  and  O_17
REMARK    7  A    between atoms: C_16  and  C_18
REMARK    8  A    between atoms: C_18  and  C_19
REMARK    9  A    between atoms: C_20  and  C_21
REMARK   10  A    between atoms: C_21  and  O_22
REMARK                            x       y       z     vdW  Elec       q    Type
REMARK                         _______ _______ _______ _____ _____    ______ ____
ROOT
ATOM      1  C   UNL     1       2.564   8.048  17.676  0.00  0.00    +0.000 C 
ATOM      2  C   UNL     1       3.074   7.040  18.398  0.00  0.00    +0.000 C 
ATOM      3  C   UNL     1       2.753   6.910  19.864  0.00  0.00    +0.000 C 
ATOM      4  C   UNL     1       2.031   5.586  20.164  0.00  0.00    +0.000 C 
ATOM      5  C   UNL     1       2.789   4.372  19.577  0.00  0.00    +0.000 C 
ATOM      6  C   UNL     1       2.248   2.980  20.068  0.00  0.00    +0.000 C 
ATOM      7  C   UNL     1       2.396   2.870  21.610  0.00  0.00    +0.000 C 
ATOM      8  C   UNL     1       0.763   2.718  19.757  0.00  0.00    +0.000 C 
ATOM      9  C   UNL     1       3.124   1.863  19.454  0.00  0.00    +0.000 C 
ATOM     10  C   UNL     1       3.238   1.954  17.940  0.00  0.00    +0.000 C 
ATOM     11  C   UNL     1       3.814   3.302  17.487  0.00  0.00    +0.000 C 
ATOM     12  C   UNL     1       3.046   4.544  18.016  0.00  0.00    +0.000 C 
ATOM     13  C   UNL     1       1.743   4.678  17.185  0.00  0.00    +0.000 C 
ATOM     14  C   UNL     1       3.919   5.886  17.854  0.00  0.00    +0.000 C 
ENDROOT
BRANCH  14  15
ATOM     15  C   UNL     1       4.583   6.100  16.460  0.00  0.00    +0.000 C 
BRANCH  15  16
ATOM     16  C   UNL     1       6.002   5.494  16.244  0.00  0.00    +0.000 C 
BRANCH  16  17
ATOM     17  C   UNL     1       6.310   4.958  14.853  0.00  0.00    +0.000 C 
ATOM     18  C   UNL     1       7.628   5.328  14.229  0.00  0.00    +0.000 C 
ATOM     19  C   UNL     1       5.417   4.158  14.228  0.00  0.00    +0.000 C 
BRANCH  19  20
ATOM     20  C   UNL     1       5.416   3.733  12.794  0.00  0.00    +0.000 C 
BRANCH  20  21
ATOM     21  O   UNL     1       6.288   2.635  12.610  0.00  0.00    +0.000 OA
ATOM     22  H   UNL     1       6.709   2.468  13.470  0.00  0.00    +0.000 HD
ENDBRANCH  20  21
ENDBRANCH  19  20
ENDBRANCH  16  17
BRANCH  16  23
ATOM     23  O   UNL     1       6.992   6.467  16.589  0.00  0.00    +0.000 OA
ATOM     24  H   UNL     1       7.037   6.525  17.556  0.00  0.00    +0.000 HD
ENDBRANCH  16  23
ENDBRANCH  15  16
ENDBRANCH  14  15
TORSDOF 6
ENDMDL
MODEL 7
REMARK VINA RESULT:      -7.2      1.841      2.585
REMARK  Name = 
REMARK  10 active torsions:
REMARK  status: ('A' for Active; 'I' for Inactive)
REMARK    1  A    between atoms: C_6  and  C_7
REMARK    2  A    between atoms: C_6  and  C_8
REMARK    3  A    between atoms: C_12  and  C_13
REMARK    4  A    between atoms: C_14  and  C_15
REMARK    5  A    between atoms: C_15  and  C_16
REMARK    6  A    between atoms: C_16  and  O_17
REMARK    7  A    between atoms: C_16  and  C_18
REMARK    8  A    between atoms: C_18  and  C_19
REMARK    9  A    between atoms: C_20  and  C_21
REMARK   10  A    between atoms: C_21  and  O_22
REMARK                            x       y       z     vdW  Elec       q    Type
REMARK                         _______ _______ _______ _____ _____    ______ ____
ROOT
ATOM      1  C   UNL     1       4.651   6.889  17.046  0.00  0.00    +0.000 C 
ATOM      2  C   UNL     1       4.589   5.793  17.815  0.00  0.00    +0.000 C 
ATOM      3  C   UNL     1       4.736   5.899  19.311  0.00  0.00    +0.000 C 
ATOM      4  C   UNL     1       3.475   5.400  20.034  0.00  0.00    +0.000 C 
ATOM      5  C   UNL     1       3.049   3.996  19.543  0.00  0.00    +0.000 C 
ATOM      6  C   UNL     1       1.931   3.322  20.419  0.00  0.00    +0.000 C 
ATOM      7  C   UNL     1       2.444   3.127  21.872  0.00  0.00    +0.000 C 
ATOM      8  C   UNL     1       0.623   4.126  20.527  0.00  0.00    +0.000 C 
ATOM      9  C   UNL     1       1.641   1.911  19.855  0.00  0.00    +0.000 C 
ATOM     10  C   UNL     1       1.309   1.915  18.371  0.00  0.00    +0.000 C 
ATOM     11  C   UNL     1       2.435   2.533  17.532  0.00  0.00    +0.000 C 
ATOM     12  C   UNL     1       2.854   3.964  17.964  0.00  0.00    +0.000 C 
ATOM     13  C   UNL     1       1.765   4.945  17.454  0.00  0.00    +0.000 C 
ATOM     14  C   UNL     1       4.276   4.376  17.332  0.00  0.00    +0.000 C 
ENDROOT
BRANCH  14  15
ATOM     15  C   UNL     1       4.446   4.101  15.806  0.00  0.00    +0.000 C 
BRANCH  15  16
ATOM     16  C   UNL     1       5.816   3.532  15.333  0.00  0.00    +0.000 C 
BRANCH  16  17
ATOM     17  C   UNL     1       6.336   4.032  13.991  0.00  0.00    +0.000 C 
ATOM     18  C   UNL     1       5.747   3.439  12.740  0.00  0.00    +0.000 C 
ATOM     19  C   UNL     1       7.284   4.994  13.954  0.00  0.00    +0.000 C 
BRANCH  19  20
ATOM     20  C   UNL     1       8.087   5.443  12.776  0.00  0.00    +0.000 C 
BRANCH  20  21
ATOM     21  O   UNL     1       9.215   6.179  13.205  0.00  0.00    +0.000 OA
ATOM     22  H   UNL     1       9.303   6.019  14.160  0.00  0.00    +0.000 HD
ENDBRANCH  20  21
ENDBRANCH  19  20
ENDBRANCH  16  17
BRANCH  16  23
ATOM     23  O   UNL     1       6.809   3.788  16.331  0.00  0.00    +0.000 OA
ATOM     24  H   UNL     1       7.064   4.722  16.271  0.00  0.00    +0.000 HD
ENDBRANCH  16  23
ENDBRANCH  15  16
ENDBRANCH  14  15
TORSDOF 6
ENDMDL
MODEL 8
REMARK VINA RESULT:      -7.1      1.080      1.210
REMARK  Name = 
REMARK  10 active torsions:
REMARK  status: ('A' for Active; 'I' for Inactive)
REMARK    1  A    between atoms: C_6  and  C_7
REMARK    2  A    between atoms: C_6  and  C_8
REMARK    3  A    between atoms: C_12  and  C_13
REMARK    4  A    between atoms: C_14  and  C_15
REMARK    5  A    between atoms: C_15  and  C_16
REMARK    6  A    between atoms: C_16  and  O_17
REMARK    7  A    between atoms: C_16  and  C_18
REMARK    8  A    between atoms: C_18  and  C_19
REMARK    9  A    between atoms: C_20  and  C_21
REMARK   10  A    between atoms: C_21  and  O_22
REMARK                            x       y       z     vdW  Elec       q    Type
REMARK                         _______ _______ _______ _____ _____    ______ ____
ROOT
ATOM      1  C   UNL     1       2.032   8.230  17.937  0.00  0.00    +0.000 C 
ATOM      2  C   UNL     1       2.605   7.280  18.690  0.00  0.00    +0.000 C 
ATOM      3  C   UNL     1       2.231   7.125  20.141  0.00  0.00    +0.000 C 
ATOM      4  C   UNL     1       1.629   5.738  20.420  0.00  0.00    +0.000 C 
ATOM      5  C   UNL     1       2.528   4.601  19.877  0.00  0.00    +0.000 C 
ATOM      6  C   UNL     1       2.105   3.165  20.355  0.00  0.00    +0.000 C 
ATOM      7  C   UNL     1       2.192   3.076  21.903  0.00  0.00    +0.000 C 
ATOM      8  C   UNL     1       0.668   2.757  19.980  0.00  0.00    +0.000 C 
ATOM      9  C   UNL     1       3.112   2.137  19.792  0.00  0.00    +0.000 C 
ATOM     10  C   UNL     1       3.287   2.232  18.283  0.00  0.00    +0.000 C 
ATOM     11  C   UNL     1       3.748   3.628  17.846  0.00  0.00    +0.000 C 
ATOM     12  C   UNL     1       2.839   4.791  18.328  0.00  0.00    +0.000 C 
ATOM     13  C   UNL     1       1.569   4.793  17.438  0.00  0.00    +0.000 C 
ATOM     14  C   UNL     1       3.583   6.212  18.195  0.00  0.00    +0.000 C 
ENDROOT
BRANCH  14  15
ATOM     15  C   UNL     1       4.286   6.485  16.830  0.00  0.00    +0.000 C 
BRANCH  15  16
ATOM     16  C   UNL     1       5.747   5.970  16.665  0.00  0.00    +0.000 C 
BRANCH  16  17
ATOM     17  C   UNL     1       6.099   5.332  15.328  0.00  0.00    +0.000 C 
ATOM     18  C   UNL     1       5.188   4.259  14.796  0.00  0.00    +0.000 C 
ATOM     19  C   UNL     1       7.192   5.749  14.651  0.00  0.00    +0.000 C 
BRANCH  19  20
ATOM     20  C   UNL     1       7.837   5.102  13.467  0.00  0.00    +0.000 C 
BRANCH  20  21
ATOM     21  O   UNL     1       8.891   5.912  12.983  0.00  0.00    +0.000 OA
ATOM     22  H   UNL     1       9.637   5.789  13.593  0.00  0.00    +0.000 HD
ENDBRANCH  20  21
ENDBRANCH  19  20
ENDBRANCH  16  17
BRANCH  16  23
ATOM     23  O   UNL     1       6.660   7.044  16.913  0.00  0.00    +0.000 OA
ATOM     24  H   UNL     1       7.357   6.718  17.504  0.00  0.00    +0.000 HD
ENDBRANCH  16  23
ENDBRANCH  15  16
ENDBRANCH  14  15
TORSDOF 6
ENDMDL
MODEL 9
REMARK VINA RESULT:      -7.0      1.869      3.521
REMARK  Name = 
REMARK  10 active torsions:
REMARK  status: ('A' for Active; 'I' for Inactive)
REMARK    1  A    between atoms: C_6  and  C_7
REMARK    2  A    between atoms: C_6  and  C_8
REMARK    3  A    between atoms: C_12  and  C_13
REMARK    4  A    between atoms: C_14  and  C_15
REMARK    5  A    between atoms: C_15  and  C_16
REMARK    6  A    between atoms: C_16  and  O_17
REMARK    7  A    between atoms: C_16  and  C_18
REMARK    8  A    between atoms: C_18  and  C_19
REMARK    9  A    between atoms: C_20  and  C_21
REMARK   10  A    between atoms: C_21  and  O_22
REMARK                            x       y       z     vdW  Elec       q    Type
REMARK                         _______ _______ _______ _____ _____    ______ ____
ROOT
ATOM      1  C   UNL     1       7.027   6.872  17.028  0.00  0.00    +0.000 C 
ATOM      2  C   UNL     1       6.607   5.656  17.405  0.00  0.00    +0.000 C 
ATOM      3  C   UNL     1       6.914   5.133  18.784  0.00  0.00    +0.000 C 
ATOM      4  C   UNL     1       5.627   4.852  19.576  0.00  0.00    +0.000 C 
ATOM      5  C   UNL     1       4.641   3.969  18.774  0.00  0.00    +0.000 C 
ATOM      6  C   UNL     1       3.429   3.431  19.620  0.00  0.00    +0.000 C 
ATOM      7  C   UNL     1       3.950   2.542  20.782  0.00  0.00    +0.000 C 
ATOM      8  C   UNL     1       2.559   4.523  20.268  0.00  0.00    +0.000 C 
ATOM      9  C   UNL     1       2.560   2.523  18.719  0.00  0.00    +0.000 C 
ATOM     10  C   UNL     1       2.127   3.199  17.427  0.00  0.00    +0.000 C 
ATOM     11  C   UNL     1       3.327   3.671  16.596  0.00  0.00    +0.000 C 
ATOM     12  C   UNL     1       4.312   4.603  17.353  0.00  0.00    +0.000 C 
ATOM     13  C   UNL     1       3.657   6.007  17.438  0.00  0.00    +0.000 C 
ATOM     14  C   UNL     1       5.719   4.720  16.581  0.00  0.00    +0.000 C 
ENDROOT
BRANCH  14  15
ATOM     15  C   UNL     1       5.633   5.002  15.050  0.00  0.00    +0.000 C 
BRANCH  15  16
ATOM     16  C   UNL     1       6.764   4.417  14.152  0.00  0.00    +0.000 C 
BRANCH  16  17
ATOM     17  C   UNL     1       6.324   3.690  12.889  0.00  0.00    +0.000 C 
ATOM     18  C   UNL     1       4.853   3.648  12.573  0.00  0.00    +0.000 C 
ATOM     19  C   UNL     1       7.249   3.125  12.082  0.00  0.00    +0.000 C 
BRANCH  19  20
ATOM     20  C   UNL     1       7.020   2.178  10.948  0.00  0.00    +0.000 C 
BRANCH  20  21
ATOM     21  O   UNL     1       6.518   0.948  11.434  0.00  0.00    +0.000 OA
ATOM     22  H   UNL     1       7.119   0.664  12.142  0.00  0.00    +0.000 HD
ENDBRANCH  20  21
ENDBRANCH  19  20
ENDBRANCH  16  17
BRANCH  16  23
ATOM     23  O   UNL     1       7.670   5.463  13.786  0.00  0.00    +0.000 OA
ATOM     24  H   UNL     1       7.916   5.945  14.591  0.00  0.00    +0.000 HD
ENDBRANCH  16  23
ENDBRANCH  15  16
ENDBRANCH  14  15
TORSDOF 6
ENDMDL
