MODEL 1
REMARK VINA RESULT:      -5.4      0.000      0.000
REMARK  Name = 
REMARK  20 active torsions:
REMARK  status: ('A' for Active; 'I' for Inactive)
REMARK    1  A    between atoms: C_1  and  N_2
REMARK    2  A    between atoms: N_2  and  C_3
REMARK    3  A    between atoms: C_3  and  C_4
REMARK    4  A    between atoms: C_4  and  C_5
REMARK    5  A    between atoms: C_4  and  C_6
REMARK    6  A    between atoms: C_6  and  N_7
REMARK    7  A    between atoms: N_7  and  C_8
REMARK    8  A    between atoms: C_8  and  C_9
REMARK    9  A    between atoms: C_9  and  C_10
REMARK   10  A    between atoms: C_10  and  C_11
REMARK   11  A    between atoms: C_11  and  C_12
REMARK   12  A    between atoms: C_12  and  C_13
REMARK   13  A    between atoms: C_13  and  C_14
REMARK   14  A    between atoms: C_14  and  N_15
REMARK   15  A    between atoms: N_15  and  C_16
REMARK   16  A    between atoms: C_16  and  C_17
REMARK   17  A    between atoms: C_17  and  C_18
REMARK   18  A    between atoms: C_17  and  C_19
REMARK   19  A    between atoms: C_19  and  N_20
REMARK   20  A    between atoms: N_20  and  C_21
REMARK                            x       y       z     vdW  Elec       q    Type
REMARK                         _______ _______ _______ _____ _____    ______ ____
ROOT
ATOM      1  C   UNL     1       2.847   5.934  19.541  0.00  0.00    +0.000 C 
ENDROOT
BRANCH   1   2
ATOM      2  C   UNL     1       1.930   5.657  20.724  0.00  0.00    +0.000 C 
BRANCH   2   3
ATOM      3  C   UNL     1       2.046   4.206  21.169  0.00  0.00    +0.000 C 
BRANCH   3   4
ATOM      4  C   UNL     1       0.933   3.373  20.543  0.00  0.00    +0.000 C 
BRANCH   4   5
ATOM      5  N   UNL     1       1.537   2.260  19.821  0.00  0.00    +0.000 NA
ATOM      6  H   UNL     1       1.039   1.404  20.056  0.00  0.00    +0.000 HD
BRANCH   5   7
ATOM      7  C   UNL     1       1.475   2.495  18.376  0.00  0.00    +0.000 C 
BRANCH   7   8
ATOM      8  C   UNL     1       2.813   2.159  17.690  0.00  0.00    +0.000 C 
ATOM      9  C   UNL     1       3.545   3.421  17.212  0.00  0.00    +0.000 C 
BRANCH   8  10
ATOM     10  C   UNL     1       3.728   1.371  18.650  0.00  0.00    +0.000 C 
BRANCH  10  11
ATOM     11  N   UNL     1       4.651   2.263  19.354  0.00  0.00    +0.000 NA
ATOM     12  C   UNL     1       4.970   1.764  20.682  0.00  0.00    +0.000 C 
ATOM     13  H   UNL     1       4.237   3.193  19.427  0.00  0.00    +0.000 HD
ENDBRANCH  10  11
ENDBRANCH   8  10
ENDBRANCH   7   8
ENDBRANCH   5   7
ENDBRANCH   4   5
ENDBRANCH   3   4
ENDBRANCH   2   3
ENDBRANCH   1   2
BRANCH   1  14
ATOM     14  C   UNL     1       2.467   7.253  18.884  0.00  0.00    +0.000 C 
BRANCH  14  15
ATOM     15  C   UNL     1       3.338   7.526  17.665  0.00  0.00    +0.000 C 
BRANCH  15  16
ATOM     16  C   UNL     1       4.520   6.562  17.633  0.00  0.00    +0.000 C 
BRANCH  16  17
ATOM     17  N   UNL     1       5.592   7.167  16.856  0.00  0.00    +0.000 NA
ATOM     18  H   UNL     1       5.608   6.772  15.916  0.00  0.00    +0.000 HD
BRANCH  17  19
ATOM     19  C   UNL     1       6.891   6.976  17.494  0.00  0.00    +0.000 C 
BRANCH  19  20
ATOM     20  C   UNL     1       6.972   5.588  18.161  0.00  0.00    +0.000 C 
ATOM     21  C   UNL     1       7.896   5.681  19.380  0.00  0.00    +0.000 C 
BRANCH  20  22
ATOM     22  C   UNL     1       7.450   4.523  17.144  0.00  0.00    +0.000 C 
BRANCH  22  24
ATOM     23  C   UNL     1       6.479   4.056  14.995  0.00  0.00    +0.000 C 
ATOM     24  N   UNL     1       7.314   4.978  15.756  0.00  0.00    +0.000 NA
ATOM     25  H   UNL     1       6.879   5.900  15.740  0.00  0.00    +0.000 HD
ENDBRANCH  22  24
ENDBRANCH  20  22
ENDBRANCH  19  20
ENDBRANCH  17  19
ENDBRANCH  16  17
ENDBRANCH  15  16
ENDBRANCH  14  15
ENDBRANCH   1  14
TORSDOF 16
ENDMDL
MODEL 2
REMARK VINA RESULT:      -4.8      3.287      6.457
REMARK  Name = 
REMARK  20 active torsions:
REMARK  status: ('A' for Active; 'I' for Inactive)
REMARK    1  A    between atoms: C_1  and  N_2
REMARK    2  A    between atoms: N_2  and  C_3
REMARK    3  A    between atoms: C_3  and  C_4
REMARK    4  A    between atoms: C_4  and  C_5
REMARK    5  A    between atoms: C_4  and  C_6
REMARK    6  A    between atoms: C_6  and  N_7
REMARK    7  A    between atoms: N_7  and  C_8
REMARK    8  A    between atoms: C_8  and  C_9
REMARK    9  A    between atoms: C_9  and  C_10
REMARK   10  A    between atoms: C_10  and  C_11
REMARK   11  A    between atoms: C_11  and  C_12
REMARK   12  A    between atoms: C_12  and  C_13
REMARK   13  A    between atoms: C_13  and  C_14
REMARK   14  A    between atoms: C_14  and  N_15
REMARK   15  A    between atoms: N_15  and  C_16
REMARK   16  A    between atoms: C_16  and  C_17
REMARK   17  A    between atoms: C_17  and  C_18
REMARK   18  A    between atoms: C_17  and  C_19
REMARK   19  A    between atoms: C_19  and  N_20
REMARK   20  A    between atoms: N_20  and  C_21
REMARK                            x       y       z     vdW  Elec       q    Type
REMARK                         _______ _______ _______ _____ _____    ______ ____
ROOT
ATOM      1  C   UNL     1       1.567   3.477  19.619  0.00  0.00    +0.000 C 
ENDROOT
BRANCH   1   2
ATOM      2  C   UNL     1       1.485   3.850  18.145  0.00  0.00    +0.000 C 
BRANCH   2   3
ATOM      3  C   UNL     1       2.533   3.097  17.338  0.00  0.00    +0.000 C 
BRANCH   3   4
ATOM      4  C   UNL     1       3.710   2.717  18.228  0.00  0.00    +0.000 C 
BRANCH   4   5
ATOM      5  N   UNL     1       4.836   3.584  17.900  0.00  0.00    +0.000 NA
ATOM      6  H   UNL     1       5.702   3.065  18.032  0.00  0.00    +0.000 HD
BRANCH   5   7
ATOM      7  C   UNL     1       4.737   4.048  16.514  0.00  0.00    +0.000 C 
BRANCH   7   8
ATOM      8  C   UNL     1       6.077   3.894  15.769  0.00  0.00    +0.000 C 
ATOM      9  C   UNL     1       6.013   4.475  14.350  0.00  0.00    +0.000 C 
BRANCH   8  10
ATOM     10  C   UNL     1       7.212   4.586  16.552  0.00  0.00    +0.000 C 
BRANCH  10  11
ATOM     11  N   UNL     1       7.373   5.979  16.133  0.00  0.00    +0.000 NA
ATOM     12  C   UNL     1       7.349   6.887  17.269  0.00  0.00    +0.000 C 
ATOM     13  H   UNL     1       6.630   6.227  15.480  0.00  0.00    +0.000 HD
ENDBRANCH  10  11
ENDBRANCH   8  10
ENDBRANCH   7   8
ENDBRANCH   5   7
ENDBRANCH   4   5
ENDBRANCH   3   4
ENDBRANCH   2   3
ENDBRANCH   1   2
BRANCH   1  14
ATOM     14  C   UNL     1       1.046   4.621  20.477  0.00  0.00    +0.000 C 
BRANCH  14  15
ATOM     15  C   UNL     1       2.175   5.560  20.878  0.00  0.00    +0.000 C 
BRANCH  15  16
ATOM     16  C   UNL     1       2.017   6.906  20.180  0.00  0.00    +0.000 C 
BRANCH  16  17
ATOM     17  N   UNL     1       1.648   7.904  21.175  0.00  0.00    +0.000 NA
ATOM     18  H   UNL     1       1.034   7.488  21.876  0.00  0.00    +0.000 HD
BRANCH  17  19
ATOM     19  C   UNL     1       0.991   9.054  20.563  0.00  0.00    +0.000 C 
BRANCH  19  20
ATOM     20  C   UNL     1       0.519  10.051  21.642  0.00  0.00    +0.000 C 
ATOM     21  C   UNL     1       0.142   9.268  22.904  0.00  0.00    +0.000 C 
BRANCH  20  22
ATOM     22  C   UNL     1      -0.655  10.910  21.113  0.00  0.00    +0.000 C 
BRANCH  22  24
ATOM     23  C   UNL     1      -1.793  11.463  19.069  0.00  0.00    +0.000 C 
ATOM     24  N   UNL     1      -0.493  11.264  19.699  0.00  0.00    +0.000 NA
ATOM     25  H   UNL     1       0.041  12.130  19.622  0.00  0.00    +0.000 HD
ENDBRANCH  22  24
ENDBRANCH  20  22
ENDBRANCH  19  20
ENDBRANCH  17  19
ENDBRANCH  16  17
ENDBRANCH  15  16
ENDBRANCH  14  15
ENDBRANCH   1  14
TORSDOF 16
ENDMDL
MODEL 3
REMARK VINA RESULT:      -4.8      2.287      4.615
REMARK  Name = 
REMARK  20 active torsions:
REMARK  status: ('A' for Active; 'I' for Inactive)
REMARK    1  A    between atoms: C_1  and  N_2
REMARK    2  A    between atoms: N_2  and  C_3
REMARK    3  A    between atoms: C_3  and  C_4
REMARK    4  A    between atoms: C_4  and  C_5
REMARK    5  A    between atoms: C_4  and  C_6
REMARK    6  A    between atoms: C_6  and  N_7
REMARK    7  A    between atoms: N_7  and  C_8
REMARK    8  A    between atoms: C_8  and  C_9
REMARK    9  A    between atoms: C_9  and  C_10
REMARK   10  A    between atoms: C_10  and  C_11
REMARK   11  A    between atoms: C_11  and  C_12
REMARK   12  A    between atoms: C_12  and  C_13
REMARK   13  A    between atoms: C_13  and  C_14
REMARK   14  A    between atoms: C_14  and  N_15
REMARK   15  A    between atoms: N_15  and  C_16
REMARK   16  A    between atoms: C_16  and  C_17
REMARK   17  A    between atoms: C_17  and  C_18
REMARK   18  A    between atoms: C_17  and  C_19
REMARK   19  A    between atoms: C_19  and  N_20
REMARK   20  A    between atoms: N_20  and  C_21
REMARK                            x       y       z     vdW  Elec       q    Type
REMARK                         _______ _______ _______ _____ _____    ______ ____
ROOT
ATOM      1  C   UNL     1       2.648   2.050  19.169  0.00  0.00    +0.000 C 
ENDROOT
BRANCH   1   2
ATOM      2  C   UNL     1       1.791   2.443  20.365  0.00  0.00    +0.000 C 
BRANCH   2   3
ATOM      3  C   UNL     1       1.247   3.854  20.199  0.00  0.00    +0.000 C 
BRANCH   3   4
ATOM      4  C   UNL     1       2.049   4.832  21.050  0.00  0.00    +0.000 C 
BRANCH   4   5
ATOM      5  N   UNL     1       2.879   5.642  20.166  0.00  0.00    +0.000 NA
ATOM      6  H   UNL     1       3.545   5.036  19.691  0.00  0.00    +0.000 HD
BRANCH   5   7
ATOM      7  C   UNL     1       2.047   6.341  19.183  0.00  0.00    +0.000 C 
BRANCH   7   8
ATOM      8  C   UNL     1       2.282   7.863  19.224  0.00  0.00    +0.000 C 
ATOM      9  C   UNL     1       1.909   8.536  17.895  0.00  0.00    +0.000 C 
BRANCH   8  10
ATOM     10  C   UNL     1       1.467   8.504  20.366  0.00  0.00    +0.000 C 
BRANCH  10  11
ATOM     11  N   UNL     1       0.698   9.654  19.889  0.00  0.00    +0.000 NA
ATOM     12  C   UNL     1       0.795  10.781  20.803  0.00  0.00    +0.000 C 
ATOM     13  H   UNL     1      -0.280   9.387  19.776  0.00  0.00    +0.000 HD
ENDBRANCH  10  11
ENDBRANCH   8  10
ENDBRANCH   7   8
ENDBRANCH   5   7
ENDBRANCH   4   5
ENDBRANCH   3   4
ENDBRANCH   2   3
ENDBRANCH   1   2
BRANCH   1  14
ATOM     14  C   UNL     1       2.085   2.669  17.898  0.00  0.00    +0.000 C 
BRANCH  14  15
ATOM     15  C   UNL     1       3.168   3.409  17.126  0.00  0.00    +0.000 C 
BRANCH  15  16
ATOM     16  C   UNL     1       4.474   3.406  17.912  0.00  0.00    +0.000 C 
BRANCH  16  17
ATOM     17  N   UNL     1       4.999   4.763  17.947  0.00  0.00    +0.000 NA
ATOM     18  H   UNL     1       4.490   5.352  17.287  0.00  0.00    +0.000 HD
BRANCH  17  19
ATOM     19  C   UNL     1       6.425   4.796  17.639  0.00  0.00    +0.000 C 
BRANCH  19  20
ATOM     20  C   UNL     1       6.686   5.600  16.349  0.00  0.00    +0.000 C 
ATOM     21  C   UNL     1       5.421   6.388  15.995  0.00  0.00    +0.000 C 
BRANCH  20  22
ATOM     22  C   UNL     1       7.130   4.659  15.202  0.00  0.00    +0.000 C 
BRANCH  22  24
ATOM     23  C   UNL     1       5.991   3.726  13.302  0.00  0.00    +0.000 C 
ATOM     24  N   UNL     1       6.049   3.773  14.758  0.00  0.00    +0.000 NA
ATOM     25  H   UNL     1       6.216   2.830  15.108  0.00  0.00    +0.000 HD
ENDBRANCH  22  24
ENDBRANCH  20  22
ENDBRANCH  19  20
ENDBRANCH  17  19
ENDBRANCH  16  17
ENDBRANCH  15  16
ENDBRANCH  14  15
ENDBRANCH   1  14
TORSDOF 16
ENDMDL
MODEL 4
REMARK VINA RESULT:      -4.7      4.085      7.135
REMARK  Name = 
REMARK  20 active torsions:
REMARK  status: ('A' for Active; 'I' for Inactive)
REMARK    1  A    between atoms: C_1  and  N_2
REMARK    2  A    between atoms: N_2  and  C_3
REMARK    3  A    between atoms: C_3  and  C_4
REMARK    4  A    between atoms: C_4  and  C_5
REMARK    5  A    between atoms: C_4  and  C_6
REMARK    6  A    between atoms: C_6  and  N_7
REMARK    7  A    between atoms: N_7  and  C_8
REMARK    8  A    between atoms: C_8  and  C_9
REMARK    9  A    between atoms: C_9  and  C_10
REMARK   10  A    between atoms: C_10  and  C_11
REMARK   11  A    between atoms: C_11  and  C_12
REMARK   12  A    between atoms: C_12  and  C_13
REMARK   13  A    between atoms: C_13  and  C_14
REMARK   14  A    between atoms: C_14  and  N_15
REMARK   15  A    between atoms: N_15  and  C_16
REMARK   16  A    between atoms: C_16  and  C_17
REMARK   17  A    between atoms: C_17  and  C_18
REMARK   18  A    between atoms: C_17  and  C_19
REMARK   19  A    between atoms: C_19  and  N_20
REMARK   20  A    between atoms: N_20  and  C_21
REMARK                            x       y       z     vdW  Elec       q    Type
REMARK                         _______ _______ _______ _____ _____    ______ ____
ROOT
ATOM      1  C   UNL     1       1.733   6.432  20.051  0.00  0.00    +0.000 C 
ENDROOT
BRANCH   1   2
ATOM      2  C   UNL     1       2.431   5.089  20.219  0.00  0.00    +0.000 C 
BRANCH   2   3
ATOM      3  C   UNL     1       3.879   5.172  19.756  0.00  0.00    +0.000 C 
BRANCH   3   4
ATOM      4  C   UNL     1       4.346   3.814  19.245  0.00  0.00    +0.000 C 
BRANCH   4   5
ATOM      5  N   UNL     1       5.778   3.887  18.980  0.00  0.00    +0.000 NA
ATOM      6  H   UNL     1       5.974   3.431  18.092  0.00  0.00    +0.000 HD
BRANCH   5   7
ATOM      7  C   UNL     1       6.219   5.284  18.933  0.00  0.00    +0.000 C 
BRANCH   7   8
ATOM      8  C   UNL     1       6.512   5.736  17.489  0.00  0.00    +0.000 C 
ATOM      9  C   UNL     1       7.388   6.996  17.451  0.00  0.00    +0.000 C 
BRANCH   8  10
ATOM     10  C   UNL     1       7.209   4.607  16.702  0.00  0.00    +0.000 C 
BRANCH  10  11
ATOM     11  N   UNL     1       6.233   3.748  16.029  0.00  0.00    +0.000 NA
ATOM     12  C   UNL     1       6.233   3.961  14.591  0.00  0.00    +0.000 C 
ATOM     13  H   UNL     1       5.302   3.932  16.404  0.00  0.00    +0.000 HD
ENDBRANCH  10  11
ENDBRANCH   8  10
ENDBRANCH   7   8
ENDBRANCH   5   7
ENDBRANCH   4   5
ENDBRANCH   3   4
ENDBRANCH   2   3
ENDBRANCH   1   2
BRANCH   1  14
ATOM     14  C   UNL     1       2.643   7.405  19.314  0.00  0.00    +0.000 C 
BRANCH  14  15
ATOM     15  C   UNL     1       2.010   7.859  18.006  0.00  0.00    +0.000 C 
BRANCH  15  16
ATOM     16  C   UNL     1       2.023   9.381  17.913  0.00  0.00    +0.000 C 
BRANCH  16  17
ATOM     17  N   UNL     1       0.662   9.844  17.683  0.00  0.00    +0.000 NA
ATOM     18  H   UNL     1       0.662  10.609  17.008  0.00  0.00    +0.000 HD
BRANCH  17  19
ATOM     19  C   UNL     1       0.026  10.280  18.922  0.00  0.00    +0.000 C 
BRANCH  19  20
ATOM     20  C   UNL     1      -1.497  10.429  18.731  0.00  0.00    +0.000 C 
ATOM     21  C   UNL     1      -1.838  10.156  17.262  0.00  0.00    +0.000 C 
BRANCH  20  22
ATOM     22  C   UNL     1      -1.969  11.830  19.191  0.00  0.00    +0.000 C 
BRANCH  22  24
ATOM     23  C   UNL     1      -4.059  12.727  19.969  0.00  0.00    +0.000 C 
ATOM     24  N   UNL     1      -3.374  12.082  18.855  0.00  0.00    +0.000 NA
ATOM     25  H   UNL     1      -3.426  12.696  18.042  0.00  0.00    +0.000 HD
ENDBRANCH  22  24
ENDBRANCH  20  22
ENDBRANCH  19  20
ENDBRANCH  17  19
ENDBRANCH  16  17
ENDBRANCH  15  16
ENDBRANCH  14  15
ENDBRANCH   1  14
TORSDOF 16
ENDMDL
MODEL 5
REMARK VINA RESULT:      -4.6      3.141      5.930
REMARK  Name = 
REMARK  20 active torsions:
REMARK  status: ('A' for Active; 'I' for Inactive)
REMARK    1  A    between atoms: C_1  and  N_2
REMARK    2  A    between atoms: N_2  and  C_3
REMARK    3  A    between atoms: C_3  and  C_4
REMARK    4  A    between atoms: C_4  and  C_5
REMARK    5  A    between atoms: C_4  and  C_6
REMARK    6  A    between atoms: C_6  and  N_7
REMARK    7  A    between atoms: N_7  and  C_8
REMARK    8  A    between atoms: C_8  and  C_9
REMARK    9  A    between atoms: C_9  and  C_10
REMARK   10  A    between atoms: C_10  and  C_11
REMARK   11  A    between atoms: C_11  and  C_12
REMARK   12  A    between atoms: C_12  and  C_13
REMARK   13  A    between atoms: C_13  and  C_14
REMARK   14  A    between atoms: C_14  and  N_15
REMARK   15  A    between atoms: N_15  and  C_16
REMARK   16  A    between atoms: C_16  and  C_17
REMARK   17  A    between atoms: C_17  and  C_18
REMARK   18  A    between atoms: C_17  and  C_19
REMARK   19  A    between atoms: C_19  and  N_20
REMARK   20  A    between atoms: N_20  and  C_21
REMARK                            x       y       z     vdW  Elec       q    Type
REMARK                         _______ _______ _______ _____ _____    ______ ____
ROOT
ATOM      1  C   UNL     1       1.547   3.471  19.933  0.00  0.00    +0.000 C 
ENDROOT
BRANCH   1   2
ATOM      2  C   UNL     1       1.855   4.856  20.484  0.00  0.00    +0.000 C 
BRANCH   2   3
ATOM      3  C   UNL     1       2.114   5.842  19.353  0.00  0.00    +0.000 C 
BRANCH   3   4
ATOM      4  C   UNL     1       2.297   7.248  19.912  0.00  0.00    +0.000 C 
BRANCH   4   5
ATOM      5  N   UNL     1       1.368   7.430  21.021  0.00  0.00    +0.000 NA
ATOM      6  H   UNL     1       1.640   6.814  21.785  0.00  0.00    +0.000 HD
BRANCH   5   7
ATOM      7  C   UNL     1       1.379   8.824  21.474  0.00  0.00    +0.000 C 
BRANCH   7   8
ATOM      8  C   UNL     1      -0.048   9.396  21.575  0.00  0.00    +0.000 C 
ATOM      9  C   UNL     1      -0.424   9.744  23.023  0.00  0.00    +0.000 C 
BRANCH   8  10
ATOM     10  C   UNL     1      -0.188  10.656  20.696  0.00  0.00    +0.000 C 
BRANCH  10  11
ATOM     11  N   UNL     1       1.061  11.417  20.658  0.00  0.00    +0.000 NA
ATOM     12  C   UNL     1       1.347  11.913  19.321  0.00  0.00    +0.000 C 
ATOM     13  H   UNL     1       1.830  10.827  20.977  0.00  0.00    +0.000 HD
ENDBRANCH  10  11
ENDBRANCH   8  10
ENDBRANCH   7   8
ENDBRANCH   5   7
ENDBRANCH   4   5
ENDBRANCH   3   4
ENDBRANCH   2   3
ENDBRANCH   1   2
BRANCH   1  14
ATOM     14  C   UNL     1       1.699   3.466  18.419  0.00  0.00    +0.000 C 
BRANCH  14  15
ATOM     15  C   UNL     1       2.843   2.558  17.989  0.00  0.00    +0.000 C 
BRANCH  15  16
ATOM     16  C   UNL     1       3.939   2.550  19.050  0.00  0.00    +0.000 C 
BRANCH  16  17
ATOM     17  N   UNL     1       5.085   3.289  18.540  0.00  0.00    +0.000 NA
ATOM     18  H   UNL     1       5.437   3.925  19.255  0.00  0.00    +0.000 HD
BRANCH  17  19
ATOM     19  C   UNL     1       4.746   4.040  17.335  0.00  0.00    +0.000 C 
BRANCH  19  20
ATOM     20  C   UNL     1       5.828   5.095  17.027  0.00  0.00    +0.000 C 
ATOM     21  C   UNL     1       5.595   5.642  15.615  0.00  0.00    +0.000 C 
BRANCH  20  22
ATOM     22  C   UNL     1       7.243   4.487  17.194  0.00  0.00    +0.000 C 
BRANCH  22  24
ATOM     23  C   UNL     1       7.768   6.096  18.902  0.00  0.00    +0.000 C 
ATOM     24  N   UNL     1       7.776   4.681  18.546  0.00  0.00    +0.000 NA
ATOM     25  H   UNL     1       7.198   4.175  19.218  0.00  0.00    +0.000 HD
ENDBRANCH  22  24
ENDBRANCH  20  22
ENDBRANCH  19  20
ENDBRANCH  17  19
ENDBRANCH  16  17
ENDBRANCH  15  16
ENDBRANCH  14  15
ENDBRANCH   1  14
TORSDOF 16
ENDMDL
MODEL 6
REMARK VINA RESULT:      -4.6      5.225      7.130
REMARK  Name = 
REMARK  20 active torsions:
REMARK  status: ('A' for Active; 'I' for Inactive)
REMARK    1  A    between atoms: C_1  and  N_2
REMARK    2  A    between atoms: N_2  and  C_3
REMARK    3  A    between atoms: C_3  and  C_4
REMARK    4  A    between atoms: C_4  and  C_5
REMARK    5  A    between atoms: C_4  and  C_6
REMARK    6  A    between atoms: C_6  and  N_7
REMARK    7  A    between atoms: N_7  and  C_8
REMARK    8  A    between atoms: C_8  and  C_9
REMARK    9  A    between atoms: C_9  and  C_10
REMARK   10  A    between atoms: C_10  and  C_11
REMARK   11  A    between atoms: C_11  and  C_12
REMARK   12  A    between atoms: C_12  and  C_13
REMARK   13  A    between atoms: C_13  and  C_14
REMARK   14  A    between atoms: C_14  and  N_15
REMARK   15  A    between atoms: N_15  and  C_16
REMARK   16  A    between atoms: C_16  and  C_17
REMARK   17  A    between atoms: C_17  and  C_18
REMARK   18  A    between atoms: C_17  and  C_19
REMARK   19  A    between atoms: C_19  and  N_20
REMARK   20  A    between atoms: N_20  and  C_21
REMARK                            x       y       z     vdW  Elec       q    Type
REMARK                         _______ _______ _______ _____ _____    ______ ____
ROOT
ATOM      1  C   UNL     1       7.707   7.997  17.582  0.00  0.00    +0.000 C 
ENDROOT
BRANCH   1   2
ATOM      2  C   UNL     1       8.218   7.079  18.683  0.00  0.00    +0.000 C 
BRANCH   2   3
ATOM      3  C   UNL     1       7.663   5.672  18.514  0.00  0.00    +0.000 C 
BRANCH   3   4
ATOM      4  C   UNL     1       6.531   5.430  19.505  0.00  0.00    +0.000 C 
BRANCH   4   5
ATOM      5  N   UNL     1       5.281   5.319  18.763  0.00  0.00    +0.000 NA
ATOM      6  H   UNL     1       5.455   5.545  17.786  0.00  0.00    +0.000 HD
BRANCH   5   7
ATOM      7  C   UNL     1       4.739   3.963  18.874  0.00  0.00    +0.000 C 
BRANCH   7   8
ATOM      8  C   UNL     1       3.960   3.558  17.607  0.00  0.00    +0.000 C 
ATOM      9  C   UNL     1       2.493   4.004  17.670  0.00  0.00    +0.000 C 
BRANCH   8  10
ATOM     10  C   UNL     1       4.623   4.162  16.352  0.00  0.00    +0.000 C 
BRANCH  10  11
ATOM     11  N   UNL     1       5.922   3.541  16.086  0.00  0.00    +0.000 NA
ATOM     12  C   UNL     1       6.725   4.343  15.178  0.00  0.00    +0.000 C 
ATOM     13  H   UNL     1       5.780   2.611  15.690  0.00  0.00    +0.000 HD
ENDBRANCH  10  11
ENDBRANCH   8  10
ENDBRANCH   7   8
ENDBRANCH   5   7
ENDBRANCH   4   5
ENDBRANCH   3   4
ENDBRANCH   2   3
ENDBRANCH   1   2
BRANCH   1  14
ATOM     14  C   UNL     1       8.173   9.424  17.834  0.00  0.00    +0.000 C 
BRANCH  14  15
ATOM     15  C   UNL     1       8.948   9.521  19.141  0.00  0.00    +0.000 C 
BRANCH  15  16
ATOM     16  C   UNL     1       9.701  10.846  19.212  0.00  0.00    +0.000 C 
BRANCH  16  17
ATOM     17  N   UNL     1       9.522  11.550  17.951  0.00  0.00    +0.000 NA
ATOM     18  H   UNL     1      10.368  11.476  17.386  0.00  0.00    +0.000 HD
BRANCH  17  19
ATOM     19  C   UNL     1       9.191  12.955  18.163  0.00  0.00    +0.000 C 
BRANCH  19  20
ATOM     20  C   UNL     1      10.305  13.867  17.611  0.00  0.00    +0.000 C 
ATOM     21  C   UNL     1      11.363  12.994  16.928  0.00  0.00    +0.000 C 
BRANCH  20  22
ATOM     22  C   UNL     1      10.906  14.738  18.742  0.00  0.00    +0.000 C 
BRANCH  22  24
ATOM     23  C   UNL     1      11.209  16.729  17.429  0.00  0.00    +0.000 C 
ATOM     24  N   UNL     1      11.876  15.715  18.237  0.00  0.00    +0.000 NA
ATOM     25  H   UNL     1      12.337  16.176  19.022  0.00  0.00    +0.000 HD
ENDBRANCH  22  24
ENDBRANCH  20  22
ENDBRANCH  19  20
ENDBRANCH  17  19
ENDBRANCH  16  17
ENDBRANCH  15  16
ENDBRANCH  14  15
ENDBRANCH   1  14
TORSDOF 16
ENDMDL
MODEL 7
REMARK VINA RESULT:      -4.6      3.524      6.474
REMARK  Name = 
REMARK  20 active torsions:
REMARK  status: ('A' for Active; 'I' for Inactive)
REMARK    1  A    between atoms: C_1  and  N_2
REMARK    2  A    between atoms: N_2  and  C_3
REMARK    3  A    between atoms: C_3  and  C_4
REMARK    4  A    between atoms: C_4  and  C_5
REMARK    5  A    between atoms: C_4  and  C_6
REMARK    6  A    between atoms: C_6  and  N_7
REMARK    7  A    between atoms: N_7  and  C_8
REMARK    8  A    between atoms: C_8  and  C_9
REMARK    9  A    between atoms: C_9  and  C_10
REMARK   10  A    between atoms: C_10  and  C_11
REMARK   11  A    between atoms: C_11  and  C_12
REMARK   12  A    between atoms: C_12  and  C_13
REMARK   13  A    between atoms: C_13  and  C_14
REMARK   14  A    between atoms: C_14  and  N_15
REMARK   15  A    between atoms: N_15  and  C_16
REMARK   16  A    between atoms: C_16  and  C_17
REMARK   17  A    between atoms: C_17  and  C_18
REMARK   18  A    between atoms: C_17  and  C_19
REMARK   19  A    between atoms: C_19  and  N_20
REMARK   20  A    between atoms: N_20  and  C_21
REMARK                            x       y       z     vdW  Elec       q    Type
REMARK                         _______ _______ _______ _____ _____    ______ ____
ROOT
ATOM      1  C   UNL     1       1.989   5.298  17.933  0.00  0.00    +0.000 C 
ENDROOT
BRANCH   1   2
ATOM      2  C   UNL     1       2.447   4.168  18.845  0.00  0.00    +0.000 C 
BRANCH   2   3
ATOM      3  C   UNL     1       3.486   3.300  18.149  0.00  0.00    +0.000 C 
BRANCH   3   4
ATOM      4  C   UNL     1       4.847   3.475  18.813  0.00  0.00    +0.000 C 
BRANCH   4   5
ATOM      5  N   UNL     1       5.745   4.122  17.863  0.00  0.00    +0.000 NA
ATOM      6  H   UNL     1       6.683   3.745  17.985  0.00  0.00    +0.000 HD
BRANCH   5   7
ATOM      7  C   UNL     1       5.288   3.892  16.490  0.00  0.00    +0.000 C 
BRANCH   7   8
ATOM      8  C   UNL     1       5.525   5.128  15.600  0.00  0.00    +0.000 C 
ATOM      9  C   UNL     1       6.082   6.312  16.403  0.00  0.00    +0.000 C 
BRANCH   8  10
ATOM     10  C   UNL     1       6.497   4.788  14.452  0.00  0.00    +0.000 C 
BRANCH  10  11
ATOM     11  N   UNL     1       6.211   3.468  13.888  0.00  0.00    +0.000 NA
ATOM     12  C   UNL     1       6.381   3.454  12.444  0.00  0.00    +0.000 C 
ATOM     13  H   UNL     1       5.256   3.197  14.124  0.00  0.00    +0.000 HD
ENDBRANCH  10  11
ENDBRANCH   8  10
ENDBRANCH   7   8
ENDBRANCH   5   7
ENDBRANCH   4   5
ENDBRANCH   3   4
ENDBRANCH   2   3
ENDBRANCH   1   2
BRANCH   1  14
ATOM     14  C   UNL     1       2.933   6.485  18.059  0.00  0.00    +0.000 C 
BRANCH  14  15
ATOM     15  C   UNL     1       2.223   7.682  18.677  0.00  0.00    +0.000 C 
BRANCH  15  16
ATOM     16  C   UNL     1       2.424   8.921  17.809  0.00  0.00    +0.000 C 
BRANCH  16  17
ATOM     17  N   UNL     1       1.179   9.676  17.784  0.00  0.00    +0.000 NA
ATOM     18  H   UNL     1       0.961   9.959  16.829  0.00  0.00    +0.000 HD
BRANCH  17  19
ATOM     19  C   UNL     1       1.248  10.853  18.643  0.00  0.00    +0.000 C 
BRANCH  19  20
ATOM     20  C   UNL     1      -0.076  11.048  19.410  0.00  0.00    +0.000 C 
ATOM     21  C   UNL     1      -0.332   9.808  20.273  0.00  0.00    +0.000 C 
BRANCH  20  22
ATOM     22  C   UNL     1      -1.238  11.327  18.426  0.00  0.00    +0.000 C 
BRANCH  22  24
ATOM     23  C   UNL     1      -2.379  10.058  16.733  0.00  0.00    +0.000 C 
ATOM     24  N   UNL     1      -2.033  10.126  18.147  0.00  0.00    +0.000 NA
ATOM     25  H   UNL     1      -1.493   9.295  18.390  0.00  0.00    +0.000 HD
ENDBRANCH  22  24
ENDBRANCH  20  22
ENDBRANCH  19  20
ENDBRANCH  17  19
ENDBRANCH  16  17
ENDBRANCH  15  16
ENDBRANCH  14  15
ENDBRANCH   1  14
TORSDOF 16
ENDMDL
MODEL 8
REMARK VINA RESULT:      -4.6      4.501      9.243
REMARK  Name = 
REMARK  20 active torsions:
REMARK  status: ('A' for Active; 'I' for Inactive)
REMARK    1  A    between atoms: C_1  and  N_2
REMARK    2  A    between atoms: N_2  and  C_3
REMARK    3  A    between atoms: C_3  and  C_4
REMARK    4  A    between atoms: C_4  and  C_5
REMARK    5  A    between atoms: C_4  and  C_6
REMARK    6  A    between atoms: C_6  and  N_7
REMARK    7  A    between atoms: N_7  and  C_8
REMARK    8  A    between atoms: C_8  and  C_9
REMARK    9  A    between atoms: C_9  and  C_10
REMARK   10  A    between atoms: C_10  and  C_11
REMARK   11  A    between atoms: C_11  and  C_12
REMARK   12  A    between atoms: C_12  and  C_13
REMARK   13  A    between atoms: C_13  and  C_14
REMARK   14  A    between atoms: C_14  and  N_15
REMARK   15  A    between atoms: N_15  and  C_16
REMARK   16  A    between atoms: C_16  and  C_17
REMARK   17  A    between atoms: C_17  and  C_18
REMARK   18  A    between atoms: C_17  and  C_19
REMARK   19  A    between atoms: C_19  and  N_20
REMARK   20  A    between atoms: N_20  and  C_21
REMARK                            x       y       z     vdW  Elec       q    Type
REMARK                         _______ _______ _______ _____ _____    ______ ____
ROOT
ATOM      1  C   UNL     1       7.153   7.362  17.187  0.00  0.00    +0.000 C 
ENDROOT
BRANCH   1   2
ATOM      2  C   UNL     1       8.095   7.898  18.257  0.00  0.00    +0.000 C 
BRANCH   2   3
ATOM      3  C   UNL     1       8.352   9.384  18.055  0.00  0.00    +0.000 C 
BRANCH   3   4
ATOM      4  C   UNL     1       9.148   9.945  19.228  0.00  0.00    +0.000 C 
BRANCH   4   5
ATOM      5  N   UNL     1       9.378  11.366  18.995  0.00  0.00    +0.000 NA
ATOM      6  H   UNL     1       9.653  11.804  19.871  0.00  0.00    +0.000 HD
BRANCH   5   7
ATOM      7  C   UNL     1      10.426  11.556  17.989  0.00  0.00    +0.000 C 
BRANCH   7   8
ATOM      8  C   UNL     1      10.972  12.997  18.006  0.00  0.00    +0.000 C 
ATOM      9  C   UNL     1      11.443  13.447  16.616  0.00  0.00    +0.000 C 
BRANCH   8  10
ATOM     10  C   UNL     1       9.896  13.975  18.521  0.00  0.00    +0.000 C 
BRANCH  10  11
ATOM     11  N   UNL     1       8.842  14.176  17.525  0.00  0.00    +0.000 NA
ATOM     12  C   UNL     1       7.901  15.204  17.940  0.00  0.00    +0.000 C 
ATOM     13  H   UNL     1       8.346  13.298  17.372  0.00  0.00    +0.000 HD
ENDBRANCH  10  11
ENDBRANCH   8  10
ENDBRANCH   7   8
ENDBRANCH   5   7
ENDBRANCH   4   5
ENDBRANCH   3   4
ENDBRANCH   2   3
ENDBRANCH   1   2
BRANCH   1  14
ATOM     14  C   UNL     1       7.042   5.849  17.300  0.00  0.00    +0.000 C 
BRANCH  14  15
ATOM     15  C   UNL     1       5.690   5.362  16.798  0.00  0.00    +0.000 C 
BRANCH  15  16
ATOM     16  C   UNL     1       4.587   6.319  17.240  0.00  0.00    +0.000 C 
BRANCH  16  17
ATOM     17  N   UNL     1       3.777   5.657  18.253  0.00  0.00    +0.000 NA
ATOM     18  H   UNL     1       4.375   5.287  18.992  0.00  0.00    +0.000 HD
BRANCH  17  19
ATOM     19  C   UNL     1       2.977   4.579  17.681  0.00  0.00    +0.000 C 
BRANCH  19  20
ATOM     20  C   UNL     1       2.555   3.575  18.772  0.00  0.00    +0.000 C 
ATOM     21  C   UNL     1       2.021   2.308  18.095  0.00  0.00    +0.000 C 
BRANCH  20  22
ATOM     22  C   UNL     1       1.515   4.212  19.726  0.00  0.00    +0.000 C 
BRANCH  22  24
ATOM     23  C   UNL     1       1.391   2.767  21.643  0.00  0.00    +0.000 C 
ATOM     24  N   UNL     1       0.713   3.205  20.428  0.00  0.00    +0.000 NA
ATOM     25  H   UNL     1      -0.189   3.605  20.686  0.00  0.00    +0.000 HD
ENDBRANCH  22  24
ENDBRANCH  20  22
ENDBRANCH  19  20
ENDBRANCH  17  19
ENDBRANCH  16  17
ENDBRANCH  15  16
ENDBRANCH  14  15
ENDBRANCH   1  14
TORSDOF 16
ENDMDL
MODEL 9
REMARK VINA RESULT:      -4.6      4.024      5.977
REMARK  Name = 
REMARK  20 active torsions:
REMARK  status: ('A' for Active; 'I' for Inactive)
REMARK    1  A    between atoms: C_1  and  N_2
REMARK    2  A    between atoms: N_2  and  C_3
REMARK    3  A    between atoms: C_3  and  C_4
REMARK    4  A    between atoms: C_4  and  C_5
REMARK    5  A    between atoms: C_4  and  C_6
REMARK    6  A    between atoms: C_6  and  N_7
REMARK    7  A    between atoms: N_7  and  C_8
REMARK    8  A    between atoms: C_8  and  C_9
REMARK    9  A    between atoms: C_9  and  C_10
REMARK   10  A    between atoms: C_10  and  C_11
REMARK   11  A    between atoms: C_11  and  C_12
REMARK   12  A    between atoms: C_12  and  C_13
REMARK   13  A    between atoms: C_13  and  C_14
REMARK   14  A    between atoms: C_14  and  N_15
REMARK   15  A    between atoms: N_15  and  C_16
REMARK   16  A    between atoms: C_16  and  C_17
REMARK   17  A    between atoms: C_17  and  C_18
REMARK   18  A    between atoms: C_17  and  C_19
REMARK   19  A    between atoms: C_19  and  N_20
REMARK   20  A    between atoms: N_20  and  C_21
REMARK                            x       y       z     vdW  Elec       q    Type
REMARK                         _______ _______ _______ _____ _____    ______ ____
ROOT
ATOM      1  C   UNL     1       7.213   5.757  18.721  0.00  0.00    +0.000 C 
ENDROOT
BRANCH   1   2
ATOM      2  C   UNL     1       6.605   5.489  17.351  0.00  0.00    +0.000 C 
BRANCH   2   3
ATOM      3  C   UNL     1       5.137   5.108  17.477  0.00  0.00    +0.000 C 
BRANCH   3   4
ATOM      4  C   UNL     1       4.265   6.357  17.453  0.00  0.00    +0.000 C 
BRANCH   4   5
ATOM      5  N   UNL     1       3.085   6.113  18.274  0.00  0.00    +0.000 NA
ATOM      6  H   UNL     1       2.403   5.592  17.726  0.00  0.00    +0.000 HD
BRANCH   5   7
ATOM      7  C   UNL     1       3.446   5.358  19.476  0.00  0.00    +0.000 C 
BRANCH   7   8
ATOM      8  C   UNL     1       2.295   5.342  20.501  0.00  0.00    +0.000 C 
ATOM      9  C   UNL     1       1.628   6.718  20.634  0.00  0.00    +0.000 C 
BRANCH   8  10
ATOM     10  C   UNL     1       1.233   4.297  20.102  0.00  0.00    +0.000 C 
BRANCH  10  11
ATOM     11  N   UNL     1       1.733   3.405  19.055  0.00  0.00    +0.000 NA
ATOM     12  C   UNL     1       0.814   2.307  18.801  0.00  0.00    +0.000 C 
ATOM     13  H   UNL     1       2.643   3.035  19.329  0.00  0.00    +0.000 HD
ENDBRANCH  10  11
ENDBRANCH   8  10
ENDBRANCH   7   8
ENDBRANCH   5   7
ENDBRANCH   4   5
ENDBRANCH   3   4
ENDBRANCH   2   3
ENDBRANCH   1   2
BRANCH   1  14
ATOM     14  C   UNL     1       8.162   6.944  18.648  0.00  0.00    +0.000 C 
BRANCH  14  15
ATOM     15  C   UNL     1       7.736   7.916  17.556  0.00  0.00    +0.000 C 
BRANCH  15  16
ATOM     16  C   UNL     1       8.133   9.340  17.931  0.00  0.00    +0.000 C 
BRANCH  16  17
ATOM     17  N   UNL     1       9.041   9.285  19.068  0.00  0.00    +0.000 NA
ATOM     18  H   UNL     1       8.622   8.742  19.824  0.00  0.00    +0.000 HD
BRANCH  17  19
ATOM     19  C   UNL     1       9.380  10.620  19.549  0.00  0.00    +0.000 C 
BRANCH  19  20
ATOM     20  C   UNL     1      10.373  11.309  18.590  0.00  0.00    +0.000 C 
ATOM     21  C   UNL     1      11.682  11.572  19.342  0.00  0.00    +0.000 C 
BRANCH  20  22
ATOM     22  C   UNL     1       9.759  12.607  18.012  0.00  0.00    +0.000 C 
BRANCH  22  24
ATOM     23  C   UNL     1      10.583  14.833  17.629  0.00  0.00    +0.000 C 
ATOM     24  N   UNL     1      10.315  13.812  18.636  0.00  0.00    +0.000 NA
ATOM     25  H   UNL     1       9.648  14.188  19.310  0.00  0.00    +0.000 HD
ENDBRANCH  22  24
ENDBRANCH  20  22
ENDBRANCH  19  20
ENDBRANCH  17  19
ENDBRANCH  16  17
ENDBRANCH  15  16
ENDBRANCH  14  15
ENDBRANCH   1  14
TORSDOF 16
ENDMDL
