MODEL 1
REMARK VINA RESULT:      -6.8      0.000      0.000
REMARK  Name = 
REMARK  6 active torsions:
REMARK  status: ('A' for Active; 'I' for Inactive)
REMARK    1  A    between atoms: C_1  and  C_2
REMARK    2  A    between atoms: C_8  and  C_9
REMARK    3  A    between atoms: N_11  and  C_12
REMARK    4  A    between atoms: C_14  and  N_15
REMARK    5  A    between atoms: C_20  and  N_21
REMARK    6  A    between atoms: N_24  and  C_25
REMARK                            x       y       z     vdW  Elec       q    Type
REMARK                         _______ _______ _______ _____ _____    ______ ____
ROOT
ATOM      1  C   UNL     1      -3.710  14.422  22.403  0.00  0.00    +0.000 A 
ATOM      2  C   UNL     1      -4.634  15.351  22.899  0.00  0.00    +0.000 A 
ATOM      3  C   UNL     1      -4.432  15.943  24.144  0.00  0.00    +0.000 A 
ATOM      4  C   UNL     1      -3.318  15.604  24.912  0.00  0.00    +0.000 A 
ATOM      5  C   UNL     1      -2.394  14.673  24.420  0.00  0.00    +0.000 A 
ATOM      6  C   UNL     1      -2.557  14.069  23.159  0.00  0.00    +0.000 A 
ENDROOT
BRANCH   6   7
ATOM      7  N   UNL     1      -1.609  13.191  22.619  0.00  0.00    +0.000 N 
ATOM      8  C   UNL     1      -0.281  13.720  22.239  0.00  0.00    +0.000 C 
ATOM      9  C   UNL     1       0.341  12.763  21.197  0.00  0.00    +0.000 C 
ATOM     10  N   UNL     1       0.467  11.373  21.695  0.00  0.00    +0.000 NA
ATOM     11  C   UNL     1       0.945  10.498  20.625  0.00  0.00    +0.000 C 
ATOM     12  C   UNL     1      -0.832  10.892  22.224  0.00  0.00    +0.000 C 
ATOM     13  C   UNL     1      -1.467  11.861  23.260  0.00  0.00    +0.000 C 
ENDBRANCH   6   7
BRANCH   1  16
ATOM     14  C   UNL     1      -4.657  12.818  20.767  0.00  0.00    +0.000 C 
ATOM     15  O   UNL     1      -5.337  12.177  21.566  0.00  0.00    +0.000 OA
ATOM     16  N   UNL     1      -3.845  13.876  21.101  0.00  0.00    +0.000 N 
ATOM     17  H   UNL     1      -3.171  14.241  20.440  0.00  0.00    +0.000 HD
BRANCH  14  25
ATOM     18  C   UNL     1      -1.120  10.142  17.697  0.00  0.00    +0.000 C 
ATOM     19  C   UNL     1      -2.390  10.530  17.043  0.00  0.00    +0.000 A 
ATOM     20  N   UNL     1      -2.743  10.290  15.796  0.00  0.00    +0.000 NA
ATOM     21  N   UNL     1      -3.996  10.825  15.588  0.00  0.00    +0.000 NA
ATOM     22  C   UNL     1      -4.387  11.383  16.712  0.00  0.00    +0.000 A 
ATOM     23  C   UNL     1      -5.574  12.068  17.097  0.00  0.00    +0.000 A 
ATOM     24  C   UNL     1      -5.698  12.544  18.355  0.00  0.00    +0.000 A 
ATOM     25  C   UNL     1      -4.625  12.377  19.335  0.00  0.00    +0.000 A 
ATOM     26  C   UNL     1      -3.509  11.714  18.961  0.00  0.00    +0.000 A 
ATOM     27  N   UNL     1      -3.400  11.227  17.669  0.00  0.00    +0.000 N 
ENDBRANCH  14  25
ENDBRANCH   1  16
BRANCH   3  28
ATOM     28  N   UNL     1      -5.385  16.953  24.623  0.00  0.00    +0.000 N 
ATOM     29  O   UNL     1      -6.420  17.134  23.969  0.00  0.00    +0.000 OA
ATOM     30  O   UNL     1      -5.087  17.576  25.652  0.00  0.00    +0.000 OA
ENDBRANCH   3  28
TORSDOF 4
ENDMDL
MODEL 2
REMARK VINA RESULT:      -6.7      3.648      5.654
REMARK  Name = 
REMARK  6 active torsions:
REMARK  status: ('A' for Active; 'I' for Inactive)
REMARK    1  A    between atoms: C_1  and  C_2
REMARK    2  A    between atoms: C_8  and  C_9
REMARK    3  A    between atoms: N_11  and  C_12
REMARK    4  A    between atoms: C_14  and  N_15
REMARK    5  A    between atoms: C_20  and  N_21
REMARK    6  A    between atoms: N_24  and  C_25
REMARK                            x       y       z     vdW  Elec       q    Type
REMARK                         _______ _______ _______ _____ _____    ______ ____
ROOT
ATOM      1  C   UNL     1      -0.887  12.289  21.530  0.00  0.00    +0.000 A 
ATOM      2  C   UNL     1      -2.060  11.948  22.215  0.00  0.00    +0.000 A 
ATOM      3  C   UNL     1      -2.753  12.916  22.941  0.00  0.00    +0.000 A 
ATOM      4  C   UNL     1      -2.276  14.225  23.001  0.00  0.00    +0.000 A 
ATOM      5  C   UNL     1      -1.101  14.567  22.319  0.00  0.00    +0.000 A 
ATOM      6  C   UNL     1      -0.385  13.619  21.562  0.00  0.00    +0.000 A 
ENDROOT
BRANCH   6   7
ATOM      7  N   UNL     1       0.750  13.958  20.816  0.00  0.00    +0.000 N 
ATOM      8  C   UNL     1       0.574  14.673  19.534  0.00  0.00    +0.000 C 
ATOM      9  C   UNL     1       1.832  14.432  18.668  0.00  0.00    +0.000 C 
ATOM     10  N   UNL     1       3.081  14.872  19.334  0.00  0.00    +0.000 NA
ATOM     11  C   UNL     1       4.240  14.505  18.519  0.00  0.00    +0.000 C 
ATOM     12  C   UNL     1       3.184  14.279  20.689  0.00  0.00    +0.000 C 
ATOM     13  C   UNL     1       1.914  14.506  21.554  0.00  0.00    +0.000 C 
ENDBRANCH   6   7
BRANCH   1  16
ATOM     14  C   UNL     1       0.570  10.314  21.172  0.00  0.00    +0.000 C 
ATOM     15  O   UNL     1       0.830  10.107  22.355  0.00  0.00    +0.000 OA
ATOM     16  N   UNL     1      -0.216  11.344  20.710  0.00  0.00    +0.000 N 
ATOM     17  H   UNL     1      -0.242  11.576  19.726  0.00  0.00    +0.000 HD
BRANCH  14  25
ATOM     18  C   UNL     1       2.244   5.189  20.999  0.00  0.00    +0.000 C 
ATOM     19  C   UNL     1       2.397   5.969  19.750  0.00  0.00    +0.000 A 
ATOM     20  N   UNL     1       2.897   5.541  18.608  0.00  0.00    +0.000 NA
ATOM     21  N   UNL     1       2.866   6.581  17.703  0.00  0.00    +0.000 NA
ATOM     22  C   UNL     1       2.349   7.627  18.310  0.00  0.00    +0.000 A 
ATOM     23  C   UNL     1       2.063   8.955  17.886  0.00  0.00    +0.000 A 
ATOM     24  C   UNL     1       1.514   9.834  18.752  0.00  0.00    +0.000 A 
ATOM     25  C   UNL     1       1.215   9.450  20.132  0.00  0.00    +0.000 A 
ATOM     26  C   UNL     1       1.479   8.182  20.517  0.00  0.00    +0.000 A 
ATOM     27  N   UNL     1       2.037   7.291  19.616  0.00  0.00    +0.000 N 
ENDBRANCH  14  25
ENDBRANCH   1  16
BRANCH   3  28
ATOM     28  N   UNL     1      -4.009  12.551  23.609  0.00  0.00    +0.000 N 
ATOM     29  O   UNL     1      -5.003  12.335  22.903  0.00  0.00    +0.000 OA
ATOM     30  O   UNL     1      -4.001  12.495  24.847  0.00  0.00    +0.000 OA
ENDBRANCH   3  28
TORSDOF 4
ENDMDL
MODEL 3
REMARK VINA RESULT:      -6.5      8.148     12.329
REMARK  Name = 
REMARK  6 active torsions:
REMARK  status: ('A' for Active; 'I' for Inactive)
REMARK    1  A    between atoms: C_1  and  C_2
REMARK    2  A    between atoms: C_8  and  C_9
REMARK    3  A    between atoms: N_11  and  C_12
REMARK    4  A    between atoms: C_14  and  N_15
REMARK    5  A    between atoms: C_20  and  N_21
REMARK    6  A    between atoms: N_24  and  C_25
REMARK                            x       y       z     vdW  Elec       q    Type
REMARK                         _______ _______ _______ _____ _____    ______ ____
ROOT
ATOM      1  C   UNL     1       4.694   5.444  16.378  0.00  0.00    +0.000 A 
ATOM      2  C   UNL     1       5.591   5.766  15.351  0.00  0.00    +0.000 A 
ATOM      3  C   UNL     1       6.457   4.797  14.849  0.00  0.00    +0.000 A 
ATOM      4  C   UNL     1       6.448   3.505  15.373  0.00  0.00    +0.000 A 
ATOM      5  C   UNL     1       5.553   3.181  16.402  0.00  0.00    +0.000 A 
ATOM      6  C   UNL     1       4.652   4.130  16.922  0.00  0.00    +0.000 A 
ENDROOT
BRANCH   6   7
ATOM      7  N   UNL     1       3.703   3.806  17.899  0.00  0.00    +0.000 N 
ATOM      8  C   UNL     1       2.347   3.403  17.471  0.00  0.00    +0.000 C 
ATOM      9  C   UNL     1       1.374   3.649  18.646  0.00  0.00    +0.000 C 
ATOM     10  N   UNL     1       1.762   2.920  19.877  0.00  0.00    +0.000 NA
ATOM     11  C   UNL     1       0.876   3.291  20.980  0.00  0.00    +0.000 C 
ATOM     12  C   UNL     1       3.176   3.200  20.223  0.00  0.00    +0.000 C 
ATOM     13  C   UNL     1       4.153   2.968  19.037  0.00  0.00    +0.000 C 
ENDBRANCH   6   7
BRANCH   1  16
ATOM     14  C   UNL     1       3.629   6.826  18.140  0.00  0.00    +0.000 C 
ATOM     15  O   UNL     1       4.313   6.421  19.078  0.00  0.00    +0.000 OA
ATOM     16  N   UNL     1       3.740   6.387  16.842  0.00  0.00    +0.000 N 
ATOM     17  H   UNL     1       3.033   6.613  16.154  0.00  0.00    +0.000 HD
BRANCH  14  25
ATOM     18  C   UNL     1       1.380   8.823  22.618  0.00  0.00    +0.000 C 
ATOM     19  C   UNL     1       0.858   9.346  21.335  0.00  0.00    +0.000 A 
ATOM     20  N   UNL     1      -0.095  10.243  21.177  0.00  0.00    +0.000 NA
ATOM     21  N   UNL     1      -0.283  10.443  19.826  0.00  0.00    +0.000 NA
ATOM     22  C   UNL     1       0.557   9.663  19.183  0.00  0.00    +0.000 A 
ATOM     23  C   UNL     1       0.824   9.450  17.801  0.00  0.00    +0.000 A 
ATOM     24  C   UNL     1       1.771   8.563  17.428  0.00  0.00    +0.000 A 
ATOM     25  C   UNL     1       2.528   7.802  18.422  0.00  0.00    +0.000 A 
ATOM     26  C   UNL     1       2.274   8.023  19.730  0.00  0.00    +0.000 A 
ATOM     27  N   UNL     1       1.303   8.941  20.097  0.00  0.00    +0.000 N 
ENDBRANCH  14  25
ENDBRANCH   1  16
BRANCH   3  28
ATOM     28  N   UNL     1       7.353   5.140  13.737  0.00  0.00    +0.000 N 
ATOM     29  O   UNL     1       7.085   4.695  12.613  0.00  0.00    +0.000 OA
ATOM     30  O   UNL     1       8.337   5.848  13.995  0.00  0.00    +0.000 OA
ENDBRANCH   3  28
TORSDOF 4
ENDMDL
MODEL 4
REMARK VINA RESULT:      -6.4      3.472      6.346
REMARK  Name = 
REMARK  6 active torsions:
REMARK  status: ('A' for Active; 'I' for Inactive)
REMARK    1  A    between atoms: C_1  and  C_2
REMARK    2  A    between atoms: C_8  and  C_9
REMARK    3  A    between atoms: N_11  and  C_12
REMARK    4  A    between atoms: C_14  and  N_15
REMARK    5  A    between atoms: C_20  and  N_21
REMARK    6  A    between atoms: N_24  and  C_25
REMARK                            x       y       z     vdW  Elec       q    Type
REMARK                         _______ _______ _______ _____ _____    ______ ____
ROOT
ATOM      1  C   UNL     1      -1.455  11.860  20.331  0.00  0.00    +0.000 A 
ATOM      2  C   UNL     1      -1.245  12.403  21.605  0.00  0.00    +0.000 A 
ATOM      3  C   UNL     1      -2.222  13.201  22.196  0.00  0.00    +0.000 A 
ATOM      4  C   UNL     1      -3.409  13.479  21.518  0.00  0.00    +0.000 A 
ATOM      5  C   UNL     1      -3.619  12.939  20.241  0.00  0.00    +0.000 A 
ATOM      6  C   UNL     1      -2.661  12.115  19.622  0.00  0.00    +0.000 A 
ENDROOT
BRANCH   6   7
ATOM      7  N   UNL     1      -2.884  11.509  18.379  0.00  0.00    +0.000 N 
ATOM      8  C   UNL     1      -2.372  10.141  18.149  0.00  0.00    +0.000 C 
ATOM      9  C   UNL     1      -2.230   9.927  16.625  0.00  0.00    +0.000 C 
ATOM     10  N   UNL     1      -3.504  10.127  15.895  0.00  0.00    +0.000 NA
ATOM     11  C   UNL     1      -3.277  10.032  14.453  0.00  0.00    +0.000 C 
ATOM     12  C   UNL     1      -4.103  11.438  16.245  0.00  0.00    +0.000 C 
ATOM     13  C   UNL     1      -4.232  11.661  17.778  0.00  0.00    +0.000 C 
ENDBRANCH   6   7
BRANCH   1  16
ATOM     14  C   UNL     1       0.110   9.938  20.407  0.00  0.00    +0.000 C 
ATOM     15  O   UNL     1      -0.031   9.681  21.601  0.00  0.00    +0.000 OA
ATOM     16  N   UNL     1      -0.515  10.970  19.749  0.00  0.00    +0.000 N 
ATOM     17  H   UNL     1      -0.220  11.249  18.821  0.00  0.00    +0.000 HD
BRANCH  14  25
ATOM     18  C   UNL     1       2.331   5.049  20.920  0.00  0.00    +0.000 C 
ATOM     19  C   UNL     1       2.716   5.818  19.715  0.00  0.00    +0.000 A 
ATOM     20  N   UNL     1       3.541   5.433  18.761  0.00  0.00    +0.000 NA
ATOM     21  N   UNL     1       3.631   6.446  17.830  0.00  0.00    +0.000 NA
ATOM     22  C   UNL     1       2.861   7.432  18.232  0.00  0.00    +0.000 A 
ATOM     23  C   UNL     1       2.548   8.708  17.684  0.00  0.00    +0.000 A 
ATOM     24  C   UNL     1       1.699   9.531  18.337  0.00  0.00    +0.000 A 
ATOM     25  C   UNL     1       1.096   9.139  19.611  0.00  0.00    +0.000 A 
ATOM     26  C   UNL     1       1.390   7.919  20.113  0.00  0.00    +0.000 A 
ATOM     27  N   UNL     1       2.259   7.085  19.428  0.00  0.00    +0.000 N 
ENDBRANCH  14  25
ENDBRANCH   1  16
BRANCH   3  28
ATOM     28  N   UNL     1      -2.006  13.717  23.554  0.00  0.00    +0.000 N 
ATOM     29  O   UNL     1      -0.871  14.113  23.853  0.00  0.00    +0.000 OA
ATOM     30  O   UNL     1      -2.974  13.714  24.327  0.00  0.00    +0.000 OA
ENDBRANCH   3  28
TORSDOF 4
ENDMDL
MODEL 5
REMARK VINA RESULT:      -6.4      7.253     11.372
REMARK  Name = 
REMARK  6 active torsions:
REMARK  status: ('A' for Active; 'I' for Inactive)
REMARK    1  A    between atoms: C_1  and  C_2
REMARK    2  A    between atoms: C_8  and  C_9
REMARK    3  A    between atoms: N_11  and  C_12
REMARK    4  A    between atoms: C_14  and  N_15
REMARK    5  A    between atoms: C_20  and  N_21
REMARK    6  A    between atoms: N_24  and  C_25
REMARK                            x       y       z     vdW  Elec       q    Type
REMARK                         _______ _______ _______ _____ _____    ______ ____
ROOT
ATOM      1  C   UNL     1       3.747   5.662  18.036  0.00  0.00    +0.000 A 
ATOM      2  C   UNL     1       4.422   6.233  16.950  0.00  0.00    +0.000 A 
ATOM      3  C   UNL     1       5.109   5.422  16.049  0.00  0.00    +0.000 A 
ATOM      4  C   UNL     1       5.143   4.040  16.230  0.00  0.00    +0.000 A 
ATOM      5  C   UNL     1       4.470   3.467  17.318  0.00  0.00    +0.000 A 
ATOM      6  C   UNL     1       3.752   4.255  18.238  0.00  0.00    +0.000 A 
ENDROOT
BRANCH   6   7
ATOM      7  N   UNL     1       3.015   3.695  19.289  0.00  0.00    +0.000 N 
ATOM      8  C   UNL     1       1.578   3.417  19.085  0.00  0.00    +0.000 C 
ATOM      9  C   UNL     1       0.894   3.359  20.470  0.00  0.00    +0.000 C 
ATOM     10  N   UNL     1       1.491   2.339  21.364  0.00  0.00    +0.000 NA
ATOM     11  C   UNL     1       0.884   2.419  22.693  0.00  0.00    +0.000 C 
ATOM     12  C   UNL     1       2.961   2.518  21.447  0.00  0.00    +0.000 C 
ATOM     13  C   UNL     1       3.647   2.593  20.055  0.00  0.00    +0.000 C 
ENDBRANCH   6   7
BRANCH   1  16
ATOM     14  C   UNL     1       2.400   7.670  18.592  0.00  0.00    +0.000 C 
ATOM     15  O   UNL     1       2.540   8.243  17.513  0.00  0.00    +0.000 OA
ATOM     16  N   UNL     1       2.965   6.458  18.914  0.00  0.00    +0.000 N 
ATOM     17  H   UNL     1       2.972   6.126  19.870  0.00  0.00    +0.000 HD
BRANCH  14  25
ATOM     18  C   UNL     1      -0.636  12.120  18.865  0.00  0.00    +0.000 C 
ATOM     19  C   UNL     1      -0.514  11.334  20.113  0.00  0.00    +0.000 A 
ATOM     20  N   UNL     1      -1.069  11.609  21.278  0.00  0.00    +0.000 NA
ATOM     21  N   UNL     1      -0.699  10.632  22.177  0.00  0.00    +0.000 NA
ATOM     22  C   UNL     1       0.077   9.778  21.547  0.00  0.00    +0.000 A 
ATOM     23  C   UNL     1       0.737   8.583  21.949  0.00  0.00    +0.000 A 
ATOM     24  C   UNL     1       1.485   7.895  21.058  0.00  0.00    +0.000 A 
ATOM     25  C   UNL     1       1.639   8.362  19.681  0.00  0.00    +0.000 A 
ATOM     26  C   UNL     1       0.996   9.490  19.308  0.00  0.00    +0.000 A 
ATOM     27  N   UNL     1       0.229  10.181  20.232  0.00  0.00    +0.000 N 
ENDBRANCH  14  25
ENDBRANCH   1  16
BRANCH   3  28
ATOM     28  N   UNL     1       5.767   6.034  14.887  0.00  0.00    +0.000 N 
ATOM     29  O   UNL     1       6.822   5.529  14.482  0.00  0.00    +0.000 OA
ATOM     30  O   UNL     1       5.230   7.032  14.387  0.00  0.00    +0.000 OA
ENDBRANCH   3  28
TORSDOF 4
ENDMDL
MODEL 6
REMARK VINA RESULT:      -6.4      6.876     11.044
REMARK  Name = 
REMARK  6 active torsions:
REMARK  status: ('A' for Active; 'I' for Inactive)
REMARK    1  A    between atoms: C_1  and  C_2
REMARK    2  A    between atoms: C_8  and  C_9
REMARK    3  A    between atoms: N_11  and  C_12
REMARK    4  A    between atoms: C_14  and  N_15
REMARK    5  A    between atoms: C_20  and  N_21
REMARK    6  A    between atoms: N_24  and  C_25
REMARK                            x       y       z     vdW  Elec       q    Type
REMARK                         _______ _______ _______ _____ _____    ______ ____
ROOT
ATOM      1  C   UNL     1       2.961   5.212  18.250  0.00  0.00    +0.000 A 
ATOM      2  C   UNL     1       1.960   4.263  18.497  0.00  0.00    +0.000 A 
ATOM      3  C   UNL     1       2.284   2.910  18.583  0.00  0.00    +0.000 A 
ATOM      4  C   UNL     1       3.602   2.490  18.408  0.00  0.00    +0.000 A 
ATOM      5  C   UNL     1       4.604   3.437  18.157  0.00  0.00    +0.000 A 
ATOM      6  C   UNL     1       4.316   4.813  18.082  0.00  0.00    +0.000 A 
ENDROOT
BRANCH   6   7
ATOM      7  N   UNL     1       5.313   5.779  17.904  0.00  0.00    +0.000 N 
ATOM      8  C   UNL     1       6.726   5.393  18.105  0.00  0.00    +0.000 C 
ATOM      9  C   UNL     1       7.539   6.672  18.411  0.00  0.00    +0.000 C 
ATOM     10  N   UNL     1       7.433   7.691  17.340  0.00  0.00    +0.000 NA
ATOM     11  C   UNL     1       8.121   8.917  17.745  0.00  0.00    +0.000 C 
ATOM     12  C   UNL     1       6.011   7.967  17.024  0.00  0.00    +0.000 C 
ATOM     13  C   UNL     1       5.189   6.681  16.732  0.00  0.00    +0.000 C 
ENDBRANCH   6   7
BRANCH   1  16
ATOM     14  C   UNL     1       2.136   7.298  19.308  0.00  0.00    +0.000 C 
ATOM     15  O   UNL     1       1.797   6.795  20.378  0.00  0.00    +0.000 OA
ATOM     16  N   UNL     1       2.671   6.601  18.250  0.00  0.00    +0.000 N 
ATOM     17  H   UNL     1       2.755   7.028  17.336  0.00  0.00    +0.000 HD
BRANCH  14  25
ATOM     18  C   UNL     1      -0.402  11.171  22.073  0.00  0.00    +0.000 C 
ATOM     19  C   UNL     1       0.240  11.587  20.806  0.00  0.00    +0.000 A 
ATOM     20  N   UNL     1       0.253  12.799  20.287  0.00  0.00    +0.000 NA
ATOM     21  N   UNL     1       0.949  12.755  19.098  0.00  0.00    +0.000 NA
ATOM     22  C   UNL     1       1.347  11.516  18.910  0.00  0.00    +0.000 A 
ATOM     23  C   UNL     1       2.101  10.881  17.883  0.00  0.00    +0.000 A 
ATOM     24  C   UNL     1       2.363   9.558  17.961  0.00  0.00    +0.000 A 
ATOM     25  C   UNL     1       1.877   8.756  19.084  0.00  0.00    +0.000 A 
ATOM     26  C   UNL     1       1.174   9.373  20.058  0.00  0.00    +0.000 A 
ATOM     27  N   UNL     1       0.918  10.732  19.966  0.00  0.00    +0.000 N 
ENDBRANCH  14  25
ENDBRANCH   1  16
BRANCH   3  28
ATOM     28  N   UNL     1       1.229   1.937  18.895  0.00  0.00    +0.000 N 
ATOM     29  O   UNL     1       1.481   1.051  19.723  0.00  0.00    +0.000 OA
ATOM     30  O   UNL     1       0.150   2.053  18.298  0.00  0.00    +0.000 OA
ENDBRANCH   3  28
TORSDOF 4
ENDMDL
MODEL 7
REMARK VINA RESULT:      -6.3     10.867     12.595
REMARK  Name = 
REMARK  6 active torsions:
REMARK  status: ('A' for Active; 'I' for Inactive)
REMARK    1  A    between atoms: C_1  and  C_2
REMARK    2  A    between atoms: C_8  and  C_9
REMARK    3  A    between atoms: N_11  and  C_12
REMARK    4  A    between atoms: C_14  and  N_15
REMARK    5  A    between atoms: C_20  and  N_21
REMARK    6  A    between atoms: N_24  and  C_25
REMARK                            x       y       z     vdW  Elec       q    Type
REMARK                         _______ _______ _______ _____ _____    ______ ____
ROOT
ATOM      1  C   UNL     1       7.313  12.215  25.460  0.00  0.00    +0.000 A 
ATOM      2  C   UNL     1       6.286  11.262  25.447  0.00  0.00    +0.000 A 
ATOM      3  C   UNL     1       5.409  11.164  26.526  0.00  0.00    +0.000 A 
ATOM      4  C   UNL     1       5.556  12.002  27.630  0.00  0.00    +0.000 A 
ATOM      5  C   UNL     1       6.584  12.954  27.646  0.00  0.00    +0.000 A 
ATOM      6  C   UNL     1       7.478  13.092  26.567  0.00  0.00    +0.000 A 
ENDROOT
BRANCH   6   7
ATOM      7  N   UNL     1       8.465  14.084  26.533  0.00  0.00    +0.000 N 
ATOM      8  C   UNL     1       8.138  15.399  25.941  0.00  0.00    +0.000 C 
ATOM      9  C   UNL     1       9.458  16.079  25.510  0.00  0.00    +0.000 C 
ATOM     10  N   UNL     1      10.412  16.245  26.632  0.00  0.00    +0.000 NA
ATOM     11  C   UNL     1      11.681  16.778  26.136  0.00  0.00    +0.000 C 
ATOM     12  C   UNL     1      10.623  14.954  27.330  0.00  0.00    +0.000 C 
ATOM     13  C   UNL     1       9.297  14.262  27.749  0.00  0.00    +0.000 C 
ENDBRANCH   6   7
BRANCH   1  16
ATOM     14  C   UNL     1       7.805  13.035  23.171  0.00  0.00    +0.000 C 
ATOM     15  O   UNL     1       6.689  13.493  22.937  0.00  0.00    +0.000 OA
ATOM     16  N   UNL     1       8.160  12.395  24.335  0.00  0.00    +0.000 N 
ATOM     17  H   UNL     1       9.027  11.876  24.399  0.00  0.00    +0.000 HD
BRANCH  14  25
ATOM     18  C   UNL     1       9.131   9.847  19.027  0.00  0.00    +0.000 C 
ATOM     19  C   UNL     1       9.914  11.095  19.168  0.00  0.00    +0.000 A 
ATOM     20  N   UNL     1      10.896  11.504  18.389  0.00  0.00    +0.000 NA
ATOM     21  N   UNL     1      11.361  12.709  18.872  0.00  0.00    +0.000 NA
ATOM     22  C   UNL     1      10.655  13.015  19.938  0.00  0.00    +0.000 A 
ATOM     23  C   UNL     1      10.671  14.122  20.831  0.00  0.00    +0.000 A 
ATOM     24  C   UNL     1       9.802  14.166  21.865  0.00  0.00    +0.000 A 
ATOM     25  C   UNL     1       8.844  13.084  22.093  0.00  0.00    +0.000 A 
ATOM     26  C   UNL     1       8.830  12.045  21.230  0.00  0.00    +0.000 A 
ATOM     27  N   UNL     1       9.723  12.018  20.172  0.00  0.00    +0.000 N 
ENDBRANCH  14  25
ENDBRANCH   1  16
BRANCH   3  28
ATOM     28  N   UNL     1       4.307  10.195  26.471  0.00  0.00    +0.000 N 
ATOM     29  O   UNL     1       3.967   9.761  25.362  0.00  0.00    +0.000 OA
ATOM     30  O   UNL     1       3.772   9.877  27.542  0.00  0.00    +0.000 OA
ENDBRANCH   3  28
TORSDOF 4
ENDMDL
MODEL 8
REMARK VINA RESULT:      -6.3      4.612      7.844
REMARK  Name = 
REMARK  6 active torsions:
REMARK  status: ('A' for Active; 'I' for Inactive)
REMARK    1  A    between atoms: C_1  and  C_2
REMARK    2  A    between atoms: C_8  and  C_9
REMARK    3  A    between atoms: N_11  and  C_12
REMARK    4  A    between atoms: C_14  and  N_15
REMARK    5  A    between atoms: C_20  and  N_21
REMARK    6  A    between atoms: N_24  and  C_25
REMARK                            x       y       z     vdW  Elec       q    Type
REMARK                         _______ _______ _______ _____ _____    ______ ____
ROOT
ATOM      1  C   UNL     1       0.856  11.048  20.337  0.00  0.00    +0.000 A 
ATOM      2  C   UNL     1       1.491   9.843  20.011  0.00  0.00    +0.000 A 
ATOM      3  C   UNL     1       1.108   8.658  20.637  0.00  0.00    +0.000 A 
ATOM      4  C   UNL     1       0.100   8.666  21.601  0.00  0.00    +0.000 A 
ATOM      5  C   UNL     1      -0.535   9.872  21.930  0.00  0.00    +0.000 A 
ATOM      6  C   UNL     1      -0.185  11.084  21.306  0.00  0.00    +0.000 A 
ENDROOT
BRANCH   6   7
ATOM      7  N   UNL     1      -0.856  12.284  21.569  0.00  0.00    +0.000 N 
ATOM      8  C   UNL     1      -2.050  12.626  20.767  0.00  0.00    +0.000 C 
ATOM      9  C   UNL     1      -2.255  14.156  20.831  0.00  0.00    +0.000 C 
ATOM     10  N   UNL     1      -2.408  14.658  22.217  0.00  0.00    +0.000 NA
ATOM     11  C   UNL     1      -2.475  16.120  22.216  0.00  0.00    +0.000 C 
ATOM     12  C   UNL     1      -1.289  14.185  23.067  0.00  0.00    +0.000 C 
ATOM     13  C   UNL     1      -1.071  12.649  22.991  0.00  0.00    +0.000 C 
ENDBRANCH   6   7
BRANCH   1  16
ATOM     14  C   UNL     1       2.026  13.222  20.101  0.00  0.00    +0.000 C 
ATOM     15  O   UNL     1       2.603  13.197  21.187  0.00  0.00    +0.000 OA
ATOM     16  N   UNL     1       1.166  12.250  19.648  0.00  0.00    +0.000 N 
ATOM     17  H   UNL     1       0.579  12.411  18.839  0.00  0.00    +0.000 HD
BRANCH  14  25
ATOM     18  C   UNL     1      -1.133  17.389  18.776  0.00  0.00    +0.000 C 
ATOM     19  C   UNL     1       0.234  17.399  18.209  0.00  0.00    +0.000 A 
ATOM     20  N   UNL     1       0.755  18.317  17.418  0.00  0.00    +0.000 NA
ATOM     21  N   UNL     1       2.047  17.945  17.113  0.00  0.00    +0.000 NA
ATOM     22  C   UNL     1       2.292  16.805  17.721  0.00  0.00    +0.000 A 
ATOM     23  C   UNL     1       3.437  15.963  17.784  0.00  0.00    +0.000 A 
ATOM     24  C   UNL     1       3.395  14.824  18.510  0.00  0.00    +0.000 A 
ATOM     25  C   UNL     1       2.185  14.431  19.230  0.00  0.00    +0.000 A 
ATOM     26  C   UNL     1       1.109  15.246  19.173  0.00  0.00    +0.000 A 
ATOM     27  N   UNL     1       1.169  16.413  18.429  0.00  0.00    +0.000 N 
ENDBRANCH  14  25
ENDBRANCH   1  16
BRANCH   3  28
ATOM     28  N   UNL     1       1.749   7.397  20.245  0.00  0.00    +0.000 N 
ATOM     29  O   UNL     1       2.498   7.406  19.259  0.00  0.00    +0.000 OA
ATOM     30  O   UNL     1       1.491   6.391  20.920  0.00  0.00    +0.000 OA
ENDBRANCH   3  28
TORSDOF 4
ENDMDL
MODEL 9
REMARK VINA RESULT:      -6.2      4.413      6.737
REMARK  Name = 
REMARK  6 active torsions:
REMARK  status: ('A' for Active; 'I' for Inactive)
REMARK    1  A    between atoms: C_1  and  C_2
REMARK    2  A    between atoms: C_8  and  C_9
REMARK    3  A    between atoms: N_11  and  C_12
REMARK    4  A    between atoms: C_14  and  N_15
REMARK    5  A    between atoms: C_20  and  N_21
REMARK    6  A    between atoms: N_24  and  C_25
REMARK                            x       y       z     vdW  Elec       q    Type
REMARK                         _______ _______ _______ _____ _____    ______ ____
ROOT
ATOM      1  C   UNL     1       1.129  14.193  19.659  0.00  0.00    +0.000 A 
ATOM      2  C   UNL     1       2.086  14.787  18.826  0.00  0.00    +0.000 A 
ATOM      3  C   UNL     1       2.058  16.161  18.596  0.00  0.00    +0.000 A 
ATOM      4  C   UNL     1       1.069  16.952  19.179  0.00  0.00    +0.000 A 
ATOM      5  C   UNL     1       0.108  16.360  20.010  0.00  0.00    +0.000 A 
ATOM      6  C   UNL     1       0.117  14.978  20.278  0.00  0.00    +0.000 A 
ENDROOT
BRANCH   6   7
ATOM      7  N   UNL     1      -0.790  14.379  21.162  0.00  0.00    +0.000 N 
ATOM      8  C   UNL     1      -0.808  14.819  22.573  0.00  0.00    +0.000 C 
ATOM      9  C   UNL     1      -1.429  13.688  23.425  0.00  0.00    +0.000 C 
ATOM     10  N   UNL     1      -2.796  13.322  22.985  0.00  0.00    +0.000 NA
ATOM     11  C   UNL     1      -3.277  12.170  23.747  0.00  0.00    +0.000 C 
ATOM     12  C   UNL     1      -2.813  13.032  21.531  0.00  0.00    +0.000 C 
ATOM     13  C   UNL     1      -2.174  14.160  20.675  0.00  0.00    +0.000 C 
ENDBRANCH   6   7
BRANCH   1  16
ATOM     14  C   UNL     1       0.482  11.819  19.349  0.00  0.00    +0.000 C 
ATOM     15  O   UNL     1      -0.337  12.006  18.451  0.00  0.00    +0.000 OA
ATOM     16  N   UNL     1       1.192  12.813  19.981  0.00  0.00    +0.000 N 
ATOM     17  H   UNL     1       1.707  12.623  20.832  0.00  0.00    +0.000 HD
BRANCH  14  25
ATOM     18  C   UNL     1       3.219   7.480  17.683  0.00  0.00    +0.000 C 
ATOM     19  C   UNL     1       2.494   7.342  18.966  0.00  0.00    +0.000 A 
ATOM     20  N   UNL     1       2.449   6.274  19.738  0.00  0.00    +0.000 NA
ATOM     21  N   UNL     1       1.660   6.561  20.831  0.00  0.00    +0.000 NA
ATOM     22  C   UNL     1       1.236   7.799  20.708  0.00  0.00    +0.000 A 
ATOM     23  C   UNL     1       0.415   8.632  21.519  0.00  0.00    +0.000 A 
ATOM     24  C   UNL     1       0.144   9.896  21.127  0.00  0.00    +0.000 A 
ATOM     25  C   UNL     1       0.672  10.428  19.871  0.00  0.00    +0.000 A 
ATOM     26  C   UNL     1       1.462   9.632  19.118  0.00  0.00    +0.000 A 
ATOM     27  N   UNL     1       1.735   8.340  19.536  0.00  0.00    +0.000 N 
ENDBRANCH  14  25
ENDBRANCH   1  16
BRANCH   3  28
ATOM     28  N   UNL     1       3.101  16.773  17.762  0.00  0.00    +0.000 N 
ATOM     29  O   UNL     1       2.747  17.439  16.781  0.00  0.00    +0.000 OA
ATOM     30  O   UNL     1       4.280  16.573  18.086  0.00  0.00    +0.000 OA
ENDBRANCH   3  28
TORSDOF 4
ENDMDL
