MODEL 1
REMARK VINA RESULT:      -8.4      0.000      0.000
REMARK  Name = 
REMARK  8 active torsions:
REMARK  status: ('A' for Active; 'I' for Inactive)
REMARK    1  A    between atoms: C_1  and  C_2
REMARK    2  A    between atoms: C_2  and  O_3
REMARK    3  A    between atoms: O_3  and  C_4
REMARK    4  A    between atoms: C_4  and  C_6
REMARK    5  A    between atoms: C_9  and  C_10
REMARK    6  A    between atoms: C_13  and  C_14
REMARK    7  A    between atoms: N_20  and  C_21
REMARK    8  A    between atoms: C_24  and  C_25
REMARK                            x       y       z     vdW  Elec       q    Type
REMARK                         _______ _______ _______ _____ _____    ______ ____
ROOT
ATOM      1  C   UNL     1       1.546   8.764  20.644  0.00  0.00    +0.000 C 
ATOM      2  C   UNL     1       0.508   9.548  20.331  0.00  0.00    +0.000 C 
ATOM      3  C   UNL     1      -0.588   9.316  19.437  0.00  0.00    +0.000 C 
ATOM      4  C   UNL     1      -1.185  10.495  19.184  0.00  0.00    +0.000 C 
ATOM      5  N   UNL     1      -0.576  11.514  19.918  0.00  0.00    +0.000 N 
ATOM      6  C   UNL     1       0.462  10.987  20.724  0.00  0.00    +0.000 C 
ATOM      7  O   UNL     1       1.210  11.537  21.512  0.00  0.00    +0.000 OA
ENDROOT
BRANCH   5   8
ATOM      8  C   UNL     1      -0.724  12.922  19.820  0.00  0.00    +0.000 A 
ATOM      9  C   UNL     1       0.019  13.582  18.820  0.00  0.00    +0.000 A 
ATOM     10  C   UNL     1      -0.017  14.969  18.682  0.00  0.00    +0.000 A 
ATOM     11  C   UNL     1      -0.778  15.741  19.563  0.00  0.00    +0.000 A 
ATOM     12  C   UNL     1      -0.753  17.240  19.480  0.00  0.00    +0.000 C 
ATOM     13  C   UNL     1      -1.533  15.092  20.552  0.00  0.00    +0.000 A 
ATOM     14  C   UNL     1      -1.514  13.693  20.681  0.00  0.00    +0.000 A 
ATOM     15 BR   UNL     1      -2.475  12.939  22.135  0.00  0.00    +0.000 Br
ENDBRANCH   5   8
BRANCH   1  19
ATOM     16  C   UNL     1       2.452   5.094  18.651  0.00  0.00    +0.000 A 
ATOM     17  C   UNL     1       2.689   6.324  18.029  0.00  0.00    +0.000 A 
ATOM     18  C   UNL     1       2.377   7.513  18.691  0.00  0.00    +0.000 A 
ATOM     19  C   UNL     1       1.829   7.488  19.981  0.00  0.00    +0.000 A 
ATOM     20  C   UNL     1       1.573   6.263  20.598  0.00  0.00    +0.000 A 
ATOM     21  C   UNL     1       1.888   5.069  19.936  0.00  0.00    +0.000 A 
BRANCH  16  22
ATOM     22  C   UNL     1       2.755   3.851  17.890  0.00  0.00    +0.000 C 
ATOM     23  O   UNL     1       2.008   3.370  17.051  0.00  0.00    +0.000 OA
BRANCH  22  24
ATOM     24  O   UNL     1       3.913   3.311  18.337  0.00  0.00    +0.000 OA
BRANCH  24  26
ATOM     25  C   UNL     1       4.431   2.134  20.351  0.00  0.00    +0.000 C 
ATOM     26  C   UNL     1       3.800   2.032  18.974  0.00  0.00    +0.000 C 
ENDBRANCH  24  26
ENDBRANCH  22  24
ENDBRANCH  16  22
ENDBRANCH   1  19
BRANCH   4  27
ATOM     27  C   UNL     1      -2.202  10.606  18.118  0.00  0.00    +0.000 A 
ATOM     28  C   UNL     1      -1.940  10.073  16.839  0.00  0.00    +0.000 A 
ATOM     29  C   UNL     1      -2.797  10.309  15.761  0.00  0.00    +0.000 A 
ATOM     30  C   UNL     1      -3.954  11.057  15.948  0.00  0.00    +0.000 A 
ATOM     31  C   UNL     1      -4.253  11.561  17.212  0.00  0.00    +0.000 A 
ATOM     32  C   UNL     1      -3.380  11.346  18.283  0.00  0.00    +0.000 A 
ENDBRANCH   4  27
TORSDOF 6
ENDMDL
MODEL 2
REMARK VINA RESULT:      -8.3      0.746      1.507
REMARK  Name = 
REMARK  8 active torsions:
REMARK  status: ('A' for Active; 'I' for Inactive)
REMARK    1  A    between atoms: C_1  and  C_2
REMARK    2  A    between atoms: C_2  and  O_3
REMARK    3  A    between atoms: O_3  and  C_4
REMARK    4  A    between atoms: C_4  and  C_6
REMARK    5  A    between atoms: C_9  and  C_10
REMARK    6  A    between atoms: C_13  and  C_14
REMARK    7  A    between atoms: N_20  and  C_21
REMARK    8  A    between atoms: C_24  and  C_25
REMARK                            x       y       z     vdW  Elec       q    Type
REMARK                         _______ _______ _______ _____ _____    ______ ____
ROOT
ATOM      1  C   UNL     1       1.418   9.014  20.788  0.00  0.00    +0.000 C 
ATOM      2  C   UNL     1       0.379   9.762  20.400  0.00  0.00    +0.000 C 
ATOM      3  C   UNL     1      -0.597   9.526  19.377  0.00  0.00    +0.000 C 
ATOM      4  C   UNL     1      -1.227  10.687  19.117  0.00  0.00    +0.000 C 
ATOM      5  N   UNL     1      -0.761  11.693  19.966  0.00  0.00    +0.000 N 
ATOM      6  C   UNL     1       0.210  11.173  20.856  0.00  0.00    +0.000 C 
ATOM      7  O   UNL     1       0.834  11.714  21.751  0.00  0.00    +0.000 OA
ENDROOT
BRANCH   5   8
ATOM      8  C   UNL     1      -0.975  13.094  19.923  0.00  0.00    +0.000 A 
ATOM      9  C   UNL     1      -0.152  13.847  19.060  0.00  0.00    +0.000 A 
ATOM     10  C   UNL     1      -0.249  15.237  18.991  0.00  0.00    +0.000 A 
ATOM     11  C   UNL     1      -1.157  15.917  19.806  0.00  0.00    +0.000 A 
ATOM     12  C   UNL     1      -1.206  17.418  19.804  0.00  0.00    +0.000 C 
ATOM     13  C   UNL     1      -1.991  15.175  20.656  0.00  0.00    +0.000 A 
ATOM     14  C   UNL     1      -1.909  13.774  20.714  0.00  0.00    +0.000 A 
ATOM     15 BR   UNL     1      -3.000  12.889  21.992  0.00  0.00    +0.000 Br
ENDBRANCH   5   8
BRANCH   1  19
ATOM     16  C   UNL     1       2.584   5.394  18.839  0.00  0.00    +0.000 A 
ATOM     17  C   UNL     1       2.062   5.373  20.136  0.00  0.00    +0.000 A 
ATOM     18  C   UNL     1       1.696   6.567  20.762  0.00  0.00    +0.000 A 
ATOM     19  C   UNL     1       1.843   7.794  20.099  0.00  0.00    +0.000 A 
ATOM     20  C   UNL     1       2.381   7.821  18.812  0.00  0.00    +0.000 A 
ATOM     21  C   UNL     1       2.746   6.625  18.182  0.00  0.00    +0.000 A 
BRANCH  16  22
ATOM     22  C   UNL     1       3.006   4.105  18.229  0.00  0.00    +0.000 C 
ATOM     23  O   UNL     1       3.306   3.976  17.052  0.00  0.00    +0.000 OA
BRANCH  22  24
ATOM     24  O   UNL     1       2.913   3.112  19.145  0.00  0.00    +0.000 OA
BRANCH  24  26
ATOM     25  C   UNL     1       0.711   2.238  18.832  0.00  0.00    +0.000 C 
ATOM     26  C   UNL     1       2.197   1.943  18.728  0.00  0.00    +0.000 C 
ENDBRANCH  24  26
ENDBRANCH  22  24
ENDBRANCH  16  22
ENDBRANCH   1  19
BRANCH   4  27
ATOM     27  C   UNL     1      -2.125  10.806  17.949  0.00  0.00    +0.000 A 
ATOM     28  C   UNL     1      -3.323  11.541  18.058  0.00  0.00    +0.000 A 
ATOM     29  C   UNL     1      -4.278  11.532  17.038  0.00  0.00    +0.000 A 
ATOM     30  C   UNL     1      -4.039  10.814  15.873  0.00  0.00    +0.000 A 
ATOM     31  C   UNL     1      -2.845  10.111  15.727  0.00  0.00    +0.000 A 
ATOM     32  C   UNL     1      -1.902  10.100  16.760  0.00  0.00    +0.000 A 
ENDBRANCH   4  27
TORSDOF 6
ENDMDL
MODEL 3
REMARK VINA RESULT:      -8.3      0.783      1.410
REMARK  Name = 
REMARK  8 active torsions:
REMARK  status: ('A' for Active; 'I' for Inactive)
REMARK    1  A    between atoms: C_1  and  C_2
REMARK    2  A    between atoms: C_2  and  O_3
REMARK    3  A    between atoms: O_3  and  C_4
REMARK    4  A    between atoms: C_4  and  C_6
REMARK    5  A    between atoms: C_9  and  C_10
REMARK    6  A    between atoms: C_13  and  C_14
REMARK    7  A    between atoms: N_20  and  C_21
REMARK    8  A    between atoms: C_24  and  C_25
REMARK                            x       y       z     vdW  Elec       q    Type
REMARK                         _______ _______ _______ _____ _____    ______ ____
ROOT
ATOM      1  C   UNL     1       1.519   8.839  20.740  0.00  0.00    +0.000 C 
ATOM      2  C   UNL     1       0.476   9.605  20.404  0.00  0.00    +0.000 C 
ATOM      3  C   UNL     1      -0.599   9.351  19.490  0.00  0.00    +0.000 C 
ATOM      4  C   UNL     1      -1.209  10.519  19.219  0.00  0.00    +0.000 C 
ATOM      5  N   UNL     1      -0.632  11.552  19.960  0.00  0.00    +0.000 N 
ATOM      6  C   UNL     1       0.399  11.045  20.789  0.00  0.00    +0.000 C 
ATOM      7  O   UNL     1       1.122  11.610  21.589  0.00  0.00    +0.000 OA
ENDROOT
BRANCH   5   8
ATOM      8  C   UNL     1      -0.800  12.956  19.853  0.00  0.00    +0.000 A 
ATOM      9  C   UNL     1      -0.006  13.632  18.904  0.00  0.00    +0.000 A 
ATOM     10  C   UNL     1      -0.060  15.018  18.764  0.00  0.00    +0.000 A 
ATOM     11  C   UNL     1      -0.893  15.774  19.592  0.00  0.00    +0.000 A 
ATOM     12  C   UNL     1      -0.891  17.274  19.511  0.00  0.00    +0.000 C 
ATOM     13  C   UNL     1      -1.698  15.110  20.529  0.00  0.00    +0.000 A 
ATOM     14  C   UNL     1      -1.661  13.711  20.659  0.00  0.00    +0.000 A 
ATOM     15 BR   UNL     1      -2.701  12.936  22.046  0.00  0.00    +0.000 Br
ENDBRANCH   5   8
BRANCH   1  19
ATOM     16  C   UNL     1       2.364   5.074  18.905  0.00  0.00    +0.000 A 
ATOM     17  C   UNL     1       1.841   5.138  20.200  0.00  0.00    +0.000 A 
ATOM     18  C   UNL     1       1.580   6.377  20.788  0.00  0.00    +0.000 A 
ATOM     19  C   UNL     1       1.836   7.566  20.090  0.00  0.00    +0.000 A 
ATOM     20  C   UNL     1       2.376   7.507  18.805  0.00  0.00    +0.000 A 
ATOM     21  C   UNL     1       2.635   6.264  18.212  0.00  0.00    +0.000 A 
BRANCH  16  22
ATOM     22  C   UNL     1       2.671   3.734  18.336  0.00  0.00    +0.000 C 
ATOM     23  O   UNL     1       2.528   2.686  18.948  0.00  0.00    +0.000 OA
BRANCH  22  24
ATOM     24  O   UNL     1       3.209   3.873  17.101  0.00  0.00    +0.000 OA
BRANCH  24  26
ATOM     25  C   UNL     1       5.192   4.575  15.968  0.00  0.00    +0.000 C 
ATOM     26  C   UNL     1       4.617   3.623  17.001  0.00  0.00    +0.000 C 
ENDBRANCH  24  26
ENDBRANCH  22  24
ENDBRANCH  16  22
ENDBRANCH   1  19
BRANCH   4  27
ATOM     27  C   UNL     1      -2.207  10.609  18.132  0.00  0.00    +0.000 A 
ATOM     28  C   UNL     1      -1.924  10.045  16.872  0.00  0.00    +0.000 A 
ATOM     29  C   UNL     1      -2.761  10.259  15.773  0.00  0.00    +0.000 A 
ATOM     30  C   UNL     1      -3.918  11.015  15.922  0.00  0.00    +0.000 A 
ATOM     31  C   UNL     1      -4.238  11.550  17.168  0.00  0.00    +0.000 A 
ATOM     32  C   UNL     1      -3.385  11.357  18.260  0.00  0.00    +0.000 A 
ENDBRANCH   4  27
TORSDOF 6
ENDMDL
MODEL 4
REMARK VINA RESULT:      -8.2      0.806      1.217
REMARK  Name = 
REMARK  8 active torsions:
REMARK  status: ('A' for Active; 'I' for Inactive)
REMARK    1  A    between atoms: C_1  and  C_2
REMARK    2  A    between atoms: C_2  and  O_3
REMARK    3  A    between atoms: O_3  and  C_4
REMARK    4  A    between atoms: C_4  and  C_6
REMARK    5  A    between atoms: C_9  and  C_10
REMARK    6  A    between atoms: C_13  and  C_14
REMARK    7  A    between atoms: N_20  and  C_21
REMARK    8  A    between atoms: C_24  and  C_25
REMARK                            x       y       z     vdW  Elec       q    Type
REMARK                         _______ _______ _______ _____ _____    ______ ____
ROOT
ATOM      1  C   UNL     1       1.440   8.997  20.773  0.00  0.00    +0.000 C 
ATOM      2  C   UNL     1       0.420   9.782  20.412  0.00  0.00    +0.000 C 
ATOM      3  C   UNL     1      -0.621   9.562  19.451  0.00  0.00    +0.000 C 
ATOM      4  C   UNL     1      -1.206  10.743  19.182  0.00  0.00    +0.000 C 
ATOM      5  N   UNL     1      -0.647  11.752  19.968  0.00  0.00    +0.000 N 
ATOM      6  C   UNL     1       0.345  11.215  20.826  0.00  0.00    +0.000 C 
ATOM      7  O   UNL     1       1.041  11.753  21.666  0.00  0.00    +0.000 OA
ENDROOT
BRANCH   5   8
ATOM      8  C   UNL     1      -0.794  13.160  19.885  0.00  0.00    +0.000 A 
ATOM      9  C   UNL     1      -0.071  13.828  18.876  0.00  0.00    +0.000 A 
ATOM     10  C   UNL     1      -0.107  15.216  18.751  0.00  0.00    +0.000 A 
ATOM     11  C   UNL     1      -0.850  15.981  19.653  0.00  0.00    +0.000 A 
ATOM     12  C   UNL     1      -0.824  17.482  19.582  0.00  0.00    +0.000 C 
ATOM     13  C   UNL     1      -1.586  15.325  20.651  0.00  0.00    +0.000 A 
ATOM     14  C   UNL     1      -1.566  13.925  20.768  0.00  0.00    +0.000 A 
ATOM     15 BR   UNL     1      -2.500  13.160  22.234  0.00  0.00    +0.000 Br
ENDBRANCH   5   8
BRANCH   1  19
ATOM     16  C   UNL     1       2.474   5.366  18.770  0.00  0.00    +0.000 A 
ATOM     17  C   UNL     1       2.656   6.604  18.147  0.00  0.00    +0.000 A 
ATOM     18  C   UNL     1       2.303   7.780  18.813  0.00  0.00    +0.000 A 
ATOM     19  C   UNL     1       1.768   7.733  20.108  0.00  0.00    +0.000 A 
ATOM     20  C   UNL     1       1.566   6.499  20.726  0.00  0.00    +0.000 A 
ATOM     21  C   UNL     1       1.922   5.319  20.061  0.00  0.00    +0.000 A 
BRANCH  16  22
ATOM     22  C   UNL     1       2.818   4.136  18.007  0.00  0.00    +0.000 C 
ATOM     23  O   UNL     1       2.055   3.584  17.228  0.00  0.00    +0.000 OA
BRANCH  22  24
ATOM     24  O   UNL     1       4.042   3.693  18.379  0.00  0.00    +0.000 OA
BRANCH  24  26
ATOM     25  C   UNL     1       6.115   4.878  18.496  0.00  0.00    +0.000 C 
ATOM     26  C   UNL     1       5.141   4.154  17.582  0.00  0.00    +0.000 C 
ENDBRANCH  24  26
ENDBRANCH  22  24
ENDBRANCH  16  22
ENDBRANCH   1  19
BRANCH   4  27
ATOM     27  C   UNL     1      -2.159  10.868  18.060  0.00  0.00    +0.000 A 
ATOM     28  C   UNL     1      -3.393  11.521  18.256  0.00  0.00    +0.000 A 
ATOM     29  C   UNL     1      -4.389  11.507  17.275  0.00  0.00    +0.000 A 
ATOM     30  C   UNL     1      -4.158  10.867  16.064  0.00  0.00    +0.000 A 
ATOM     31  C   UNL     1      -2.932  10.247  15.833  0.00  0.00    +0.000 A 
ATOM     32  C   UNL     1      -1.946  10.240  16.826  0.00  0.00    +0.000 A 
ENDBRANCH   4  27
TORSDOF 6
ENDMDL
MODEL 5
REMARK VINA RESULT:      -8.2      0.823      1.031
REMARK  Name = 
REMARK  8 active torsions:
REMARK  status: ('A' for Active; 'I' for Inactive)
REMARK    1  A    between atoms: C_1  and  C_2
REMARK    2  A    between atoms: C_2  and  O_3
REMARK    3  A    between atoms: O_3  and  C_4
REMARK    4  A    between atoms: C_4  and  C_6
REMARK    5  A    between atoms: C_9  and  C_10
REMARK    6  A    between atoms: C_13  and  C_14
REMARK    7  A    between atoms: N_20  and  C_21
REMARK    8  A    between atoms: C_24  and  C_25
REMARK                            x       y       z     vdW  Elec       q    Type
REMARK                         _______ _______ _______ _____ _____    ______ ____
ROOT
ATOM      1  C   UNL     1       1.563   8.980  20.541  0.00  0.00    +0.000 C 
ATOM      2  C   UNL     1       0.475   9.707  20.266  0.00  0.00    +0.000 C 
ATOM      3  C   UNL     1      -0.602   9.449  19.355  0.00  0.00    +0.000 C 
ATOM      4  C   UNL     1      -1.278  10.596  19.163  0.00  0.00    +0.000 C 
ATOM      5  N   UNL     1      -0.742  11.614  19.955  0.00  0.00    +0.000 N 
ATOM      6  C   UNL     1       0.329  11.116  20.736  0.00  0.00    +0.000 C 
ATOM      7  O   UNL     1       1.035  11.672  21.557  0.00  0.00    +0.000 OA
ENDROOT
BRANCH   5   8
ATOM      8  C   UNL     1      -0.987  13.011  19.933  0.00  0.00    +0.000 A 
ATOM      9  C   UNL     1      -0.226  13.786  19.034  0.00  0.00    +0.000 A 
ATOM     10  C   UNL     1      -0.355  15.174  18.980  0.00  0.00    +0.000 A 
ATOM     11  C   UNL     1      -1.232  15.830  19.846  0.00  0.00    +0.000 A 
ATOM     12  C   UNL     1      -1.312  17.330  19.858  0.00  0.00    +0.000 C 
ATOM     13  C   UNL     1      -2.005  15.066  20.734  0.00  0.00    +0.000 A 
ATOM     14  C   UNL     1      -1.891  13.666  20.777  0.00  0.00    +0.000 A 
ATOM     15 BR   UNL     1      -2.895  12.751  22.104  0.00  0.00    +0.000 Br
ENDBRANCH   5   8
BRANCH   1  19
ATOM     16  C   UNL     1       2.720   5.497  18.352  0.00  0.00    +0.000 A 
ATOM     17  C   UNL     1       2.804   6.768  17.773  0.00  0.00    +0.000 A 
ATOM     18  C   UNL     1       2.412   7.894  18.500  0.00  0.00    +0.000 A 
ATOM     19  C   UNL     1       1.935   7.766  19.812  0.00  0.00    +0.000 A 
ATOM     20  C   UNL     1       1.831   6.498  20.386  0.00  0.00    +0.000 A 
ATOM     21  C   UNL     1       2.227   5.368  19.660  0.00  0.00    +0.000 A 
BRANCH  16  22
ATOM     22  C   UNL     1       3.102   4.321  17.525  0.00  0.00    +0.000 C 
ATOM     23  O   UNL     1       4.209   4.169  17.030  0.00  0.00    +0.000 OA
BRANCH  22  24
ATOM     24  O   UNL     1       2.026   3.521  17.341  0.00  0.00    +0.000 OA
BRANCH  24  26
ATOM     25  C   UNL     1       0.740   2.186  18.849  0.00  0.00    +0.000 C 
ATOM     26  C   UNL     1       2.036   2.283  18.064  0.00  0.00    +0.000 C 
ENDBRANCH  24  26
ENDBRANCH  22  24
ENDBRANCH  16  22
ENDBRANCH   1  19
BRANCH   4  27
ATOM     27  C   UNL     1      -2.299  10.694  18.099  0.00  0.00    +0.000 A 
ATOM     28  C   UNL     1      -2.051  10.126  16.833  0.00  0.00    +0.000 A 
ATOM     29  C   UNL     1      -2.910  10.347  15.754  0.00  0.00    +0.000 A 
ATOM     30  C   UNL     1      -4.055  11.116  15.927  0.00  0.00    +0.000 A 
ATOM     31  C   UNL     1      -4.340  11.656  17.178  0.00  0.00    +0.000 A 
ATOM     32  C   UNL     1      -3.465  11.456  18.251  0.00  0.00    +0.000 A 
ENDBRANCH   4  27
TORSDOF 6
ENDMDL
MODEL 6
REMARK VINA RESULT:      -8.2      1.042      1.580
REMARK  Name = 
REMARK  8 active torsions:
REMARK  status: ('A' for Active; 'I' for Inactive)
REMARK    1  A    between atoms: C_1  and  C_2
REMARK    2  A    between atoms: C_2  and  O_3
REMARK    3  A    between atoms: O_3  and  C_4
REMARK    4  A    between atoms: C_4  and  C_6
REMARK    5  A    between atoms: C_9  and  C_10
REMARK    6  A    between atoms: C_13  and  C_14
REMARK    7  A    between atoms: N_20  and  C_21
REMARK    8  A    between atoms: C_24  and  C_25
REMARK                            x       y       z     vdW  Elec       q    Type
REMARK                         _______ _______ _______ _____ _____    ______ ____
ROOT
ATOM      1  C   UNL     1       1.480   8.634  20.796  0.00  0.00    +0.000 C 
ATOM      2  C   UNL     1       0.491   9.464  20.448  0.00  0.00    +0.000 C 
ATOM      3  C   UNL     1      -0.544   9.308  19.469  0.00  0.00    +0.000 C 
ATOM      4  C   UNL     1      -1.087  10.516  19.230  0.00  0.00    +0.000 C 
ATOM      5  N   UNL     1      -0.504  11.482  20.054  0.00  0.00    +0.000 N 
ATOM      6  C   UNL     1       0.458  10.885  20.905  0.00  0.00    +0.000 C 
ATOM      7  O   UNL     1       1.162  11.374  21.770  0.00  0.00    +0.000 OA
ENDROOT
BRANCH   5   8
ATOM      8  C   UNL     1      -0.603  12.896  20.013  0.00  0.00    +0.000 A 
ATOM      9  C   UNL     1      -1.697  13.486  20.678  0.00  0.00    +0.000 A 
ATOM     10  C   UNL     1      -1.911  14.864  20.648  0.00  0.00    +0.000 A 
ATOM     11  C   UNL     1      -1.048  15.690  19.924  0.00  0.00    +0.000 A 
ATOM     12  C   UNL     1      -1.321  17.163  19.810  0.00  0.00    +0.000 C 
ATOM     13  C   UNL     1       0.052  15.114  19.272  0.00  0.00    +0.000 A 
ATOM     14  C   UNL     1       0.281  13.729  19.317  0.00  0.00    +0.000 A 
ATOM     15 BR   UNL     1       1.729  13.050  18.293  0.00  0.00    +0.000 Br
ENDBRANCH   5   8
BRANCH   1  19
ATOM     16  C   UNL     1       2.420   5.033  18.696  0.00  0.00    +0.000 A 
ATOM     17  C   UNL     1       2.683   6.283  18.127  0.00  0.00    +0.000 A 
ATOM     18  C   UNL     1       2.360   7.449  18.824  0.00  0.00    +0.000 A 
ATOM     19  C   UNL     1       1.774   7.382  20.095  0.00  0.00    +0.000 A 
ATOM     20  C   UNL     1       1.492   6.137  20.658  0.00  0.00    +0.000 A 
ATOM     21  C   UNL     1       1.818   4.966  19.963  0.00  0.00    +0.000 A 
BRANCH  16  22
ATOM     22  C   UNL     1       2.735   3.817  17.899  0.00  0.00    +0.000 C 
ATOM     23  O   UNL     1       1.984   3.339  17.063  0.00  0.00    +0.000 OA
BRANCH  22  24
ATOM     24  O   UNL     1       3.914   3.293  18.310  0.00  0.00    +0.000 OA
BRANCH  24  26
ATOM     25  C   UNL     1       4.367   2.201  20.387  0.00  0.00    +0.000 C 
ATOM     26  C   UNL     1       3.836   2.026  18.975  0.00  0.00    +0.000 C 
ENDBRANCH  24  26
ENDBRANCH  22  24
ENDBRANCH  16  22
ENDBRANCH   1  19
BRANCH   4  27
ATOM     27  C   UNL     1      -2.021  10.708  18.101  0.00  0.00    +0.000 A 
ATOM     28  C   UNL     1      -3.194  11.469  18.282  0.00  0.00    +0.000 A 
ATOM     29  C   UNL     1      -4.183  11.527  17.297  0.00  0.00    +0.000 A 
ATOM     30  C   UNL     1      -4.005  10.852  16.096  0.00  0.00    +0.000 A 
ATOM     31  C   UNL     1      -2.836  10.125  15.880  0.00  0.00    +0.000 A 
ATOM     32  C   UNL     1      -1.859  10.046  16.877  0.00  0.00    +0.000 A 
ENDBRANCH   4  27
TORSDOF 6
ENDMDL
MODEL 7
REMARK VINA RESULT:      -8.0      1.279      1.943
REMARK  Name = 
REMARK  8 active torsions:
REMARK  status: ('A' for Active; 'I' for Inactive)
REMARK    1  A    between atoms: C_1  and  C_2
REMARK    2  A    between atoms: C_2  and  O_3
REMARK    3  A    between atoms: O_3  and  C_4
REMARK    4  A    between atoms: C_4  and  C_6
REMARK    5  A    between atoms: C_9  and  C_10
REMARK    6  A    between atoms: C_13  and  C_14
REMARK    7  A    between atoms: N_20  and  C_21
REMARK    8  A    between atoms: C_24  and  C_25
REMARK                            x       y       z     vdW  Elec       q    Type
REMARK                         _______ _______ _______ _____ _____    ______ ____
ROOT
ATOM      1  C   UNL     1       1.466   8.949  20.777  0.00  0.00    +0.000 C 
ATOM      2  C   UNL     1       0.453   9.749  20.426  0.00  0.00    +0.000 C 
ATOM      3  C   UNL     1      -0.586   9.553  19.459  0.00  0.00    +0.000 C 
ATOM      4  C   UNL     1      -1.161  10.744  19.209  0.00  0.00    +0.000 C 
ATOM      5  N   UNL     1      -0.597  11.735  20.014  0.00  0.00    +0.000 N 
ATOM      6  C   UNL     1       0.388  11.174  20.864  0.00  0.00    +0.000 C 
ATOM      7  O   UNL     1       1.086  11.693  21.716  0.00  0.00    +0.000 OA
ENDROOT
BRANCH   5   8
ATOM      8  C   UNL     1      -0.733  13.145  19.955  0.00  0.00    +0.000 A 
ATOM      9  C   UNL     1      -1.855  13.713  20.592  0.00  0.00    +0.000 A 
ATOM     10  C   UNL     1      -2.104  15.085  20.542  0.00  0.00    +0.000 A 
ATOM     11  C   UNL     1      -1.249  15.926  19.825  0.00  0.00    +0.000 A 
ATOM     12  C   UNL     1      -1.558  17.390  19.690  0.00  0.00    +0.000 C 
ATOM     13  C   UNL     1      -0.121  15.372  19.201  0.00  0.00    +0.000 A 
ATOM     14  C   UNL     1       0.143  13.994  19.267  0.00  0.00    +0.000 A 
ATOM     15 BR   UNL     1       1.629  13.343  18.278  0.00  0.00    +0.000 Br
ENDBRANCH   5   8
BRANCH   1  19
ATOM     16  C   UNL     1       2.319   5.239  18.836  0.00  0.00    +0.000 A 
ATOM     17  C   UNL     1       1.798   5.265  20.133  0.00  0.00    +0.000 A 
ATOM     18  C   UNL     1       1.534   6.487  20.756  0.00  0.00    +0.000 A 
ATOM     19  C   UNL     1       1.785   7.695  20.090  0.00  0.00    +0.000 A 
ATOM     20  C   UNL     1       2.324   7.674  18.803  0.00  0.00    +0.000 A 
ATOM     21  C   UNL     1       2.585   6.449  18.176  0.00  0.00    +0.000 A 
BRANCH  16  22
ATOM     22  C   UNL     1       2.630   3.916  18.229  0.00  0.00    +0.000 C 
ATOM     23  O   UNL     1       1.828   2.997  18.157  0.00  0.00    +0.000 OA
BRANCH  22  24
ATOM     24  O   UNL     1       3.934   3.873  17.867  0.00  0.00    +0.000 OA
BRANCH  24  26
ATOM     25  C   UNL     1       5.823   4.836  18.969  0.00  0.00    +0.000 C 
ATOM     26  C   UNL     1       4.869   3.655  18.931  0.00  0.00    +0.000 C 
ENDBRANCH  24  26
ENDBRANCH  22  24
ENDBRANCH  16  22
ENDBRANCH   1  19
BRANCH   4  27
ATOM     27  C   UNL     1      -2.110  10.896  18.085  0.00  0.00    +0.000 A 
ATOM     28  C   UNL     1      -3.369  11.491  18.305  0.00  0.00    +0.000 A 
ATOM     29  C   UNL     1      -4.356  11.494  17.316  0.00  0.00    +0.000 A 
ATOM     30  C   UNL     1      -4.092  10.932  16.073  0.00  0.00    +0.000 A 
ATOM     31  C   UNL     1      -2.841  10.373  15.820  0.00  0.00    +0.000 A 
ATOM     32  C   UNL     1      -1.864  10.346  16.820  0.00  0.00    +0.000 A 
ENDBRANCH   4  27
TORSDOF 6
ENDMDL
MODEL 8
REMARK VINA RESULT:      -8.0      1.117      1.636
REMARK  Name = 
REMARK  8 active torsions:
REMARK  status: ('A' for Active; 'I' for Inactive)
REMARK    1  A    between atoms: C_1  and  C_2
REMARK    2  A    between atoms: C_2  and  O_3
REMARK    3  A    between atoms: O_3  and  C_4
REMARK    4  A    between atoms: C_4  and  C_6
REMARK    5  A    between atoms: C_9  and  C_10
REMARK    6  A    between atoms: C_13  and  C_14
REMARK    7  A    between atoms: N_20  and  C_21
REMARK    8  A    between atoms: C_24  and  C_25
REMARK                            x       y       z     vdW  Elec       q    Type
REMARK                         _______ _______ _______ _____ _____    ______ ____
ROOT
ATOM      1  C   UNL     1       1.622   8.608  20.676  0.00  0.00    +0.000 C 
ATOM      2  C   UNL     1       0.615   9.437  20.382  0.00  0.00    +0.000 C 
ATOM      3  C   UNL     1      -0.504   9.256  19.504  0.00  0.00    +0.000 C 
ATOM      4  C   UNL     1      -1.052  10.461  19.264  0.00  0.00    +0.000 C 
ATOM      5  N   UNL     1      -0.389  11.451  19.992  0.00  0.00    +0.000 N 
ATOM      6  C   UNL     1       0.638  10.875  20.780  0.00  0.00    +0.000 C 
ATOM      7  O   UNL     1       1.420  11.389  21.559  0.00  0.00    +0.000 OA
ENDROOT
BRANCH   5   8
ATOM      8  C   UNL     1      -0.477  12.863  19.901  0.00  0.00    +0.000 A 
ATOM      9  C   UNL     1      -1.548  13.489  20.571  0.00  0.00    +0.000 A 
ATOM     10  C   UNL     1      -1.751  14.866  20.494  0.00  0.00    +0.000 A 
ATOM     11  C   UNL     1      -0.898  15.657  19.720  0.00  0.00    +0.000 A 
ATOM     12  C   UNL     1      -1.161  17.127  19.558  0.00  0.00    +0.000 C 
ATOM     13  C   UNL     1       0.180  15.046  19.062  0.00  0.00    +0.000 A 
ATOM     14  C   UNL     1       0.398  13.661  19.153  0.00  0.00    +0.000 A 
ATOM     15 BR   UNL     1       1.814  12.931  18.120  0.00  0.00    +0.000 Br
ENDBRANCH   5   8
BRANCH   1  19
ATOM     16  C   UNL     1       2.171   4.818  18.778  0.00  0.00    +0.000 A 
ATOM     17  C   UNL     1       1.619   4.904  20.060  0.00  0.00    +0.000 A 
ATOM     18  C   UNL     1       1.456   6.150  20.668  0.00  0.00    +0.000 A 
ATOM     19  C   UNL     1       1.840   7.324  20.005  0.00  0.00    +0.000 A 
ATOM     20  C   UNL     1       2.409   7.242  18.734  0.00  0.00    +0.000 A 
ATOM     21  C   UNL     1       2.570   5.993  18.120  0.00  0.00    +0.000 A 
BRANCH  16  22
ATOM     22  C   UNL     1       2.371   3.468  18.186  0.00  0.00    +0.000 C 
ATOM     23  O   UNL     1       2.254   3.224  16.995  0.00  0.00    +0.000 OA
BRANCH  22  24
ATOM     24  O   UNL     1       2.602   2.567  19.170  0.00  0.00    +0.000 OA
BRANCH  24  26
ATOM     25  C   UNL     1       4.544   2.116  20.489  0.00  0.00    +0.000 C 
ATOM     26  C   UNL     1       3.882   1.921  19.136  0.00  0.00    +0.000 C 
ENDBRANCH  24  26
ENDBRANCH  22  24
ENDBRANCH  16  22
ENDBRANCH   1  19
BRANCH   4  27
ATOM     27  C   UNL     1      -2.080  10.620  18.214  0.00  0.00    +0.000 A 
ATOM     28  C   UNL     1      -1.851  10.103  16.923  0.00  0.00    +0.000 A 
ATOM     29  C   UNL     1      -2.715  10.383  15.861  0.00  0.00    +0.000 A 
ATOM     30  C   UNL     1      -3.847  11.160  16.077  0.00  0.00    +0.000 A 
ATOM     31  C   UNL     1      -4.115  11.650  17.353  0.00  0.00    +0.000 A 
ATOM     32  C   UNL     1      -3.234  11.391  18.409  0.00  0.00    +0.000 A 
ENDBRANCH   4  27
TORSDOF 6
ENDMDL
MODEL 9
REMARK VINA RESULT:      -8.0      1.240      1.604
REMARK  Name = 
REMARK  8 active torsions:
REMARK  status: ('A' for Active; 'I' for Inactive)
REMARK    1  A    between atoms: C_1  and  C_2
REMARK    2  A    between atoms: C_2  and  O_3
REMARK    3  A    between atoms: O_3  and  C_4
REMARK    4  A    between atoms: C_4  and  C_6
REMARK    5  A    between atoms: C_9  and  C_10
REMARK    6  A    between atoms: C_13  and  C_14
REMARK    7  A    between atoms: N_20  and  C_21
REMARK    8  A    between atoms: C_24  and  C_25
REMARK                            x       y       z     vdW  Elec       q    Type
REMARK                         _______ _______ _______ _____ _____    ______ ____
ROOT
ATOM      1  C   UNL     1       1.515   8.698  20.788  0.00  0.00    +0.000 C 
ATOM      2  C   UNL     1       0.489   9.492  20.466  0.00  0.00    +0.000 C 
ATOM      3  C   UNL     1      -0.579   9.288  19.532  0.00  0.00    +0.000 C 
ATOM      4  C   UNL     1      -1.167  10.475  19.295  0.00  0.00    +0.000 C 
ATOM      5  N   UNL     1      -0.582  11.471  20.079  0.00  0.00    +0.000 N 
ATOM      6  C   UNL     1       0.430  10.919  20.901  0.00  0.00    +0.000 C 
ATOM      7  O   UNL     1       1.152  11.444  21.729  0.00  0.00    +0.000 OA
ENDROOT
BRANCH   5   8
ATOM      8  C   UNL     1      -0.726  12.881  20.019  0.00  0.00    +0.000 A 
ATOM      9  C   UNL     1      -1.818  13.449  20.707  0.00  0.00    +0.000 A 
ATOM     10  C   UNL     1      -2.075  14.819  20.662  0.00  0.00    +0.000 A 
ATOM     11  C   UNL     1      -1.260  15.659  19.899  0.00  0.00    +0.000 A 
ATOM     12  C   UNL     1      -1.581  17.121  19.771  0.00  0.00    +0.000 C 
ATOM     13  C   UNL     1      -0.162  15.106  19.223  0.00  0.00    +0.000 A 
ATOM     14  C   UNL     1       0.111  13.729  19.283  0.00  0.00    +0.000 A 
ATOM     15 BR   UNL     1       1.548  13.078  18.227  0.00  0.00    +0.000 Br
ENDBRANCH   5   8
BRANCH   1  19
ATOM     16  C   UNL     1       2.480   5.090  18.710  0.00  0.00    +0.000 A 
ATOM     17  C   UNL     1       2.666   6.337  18.105  0.00  0.00    +0.000 A 
ATOM     18  C   UNL     1       2.336   7.505  18.795  0.00  0.00    +0.000 A 
ATOM     19  C   UNL     1       1.819   7.443  20.097  0.00  0.00    +0.000 A 
ATOM     20  C   UNL     1       1.613   6.200  20.697  0.00  0.00    +0.000 A 
ATOM     21  C   UNL     1       1.947   5.028  20.008  0.00  0.00    +0.000 A 
BRANCH  16  22
ATOM     22  C   UNL     1       2.799   3.870  17.921  0.00  0.00    +0.000 C 
ATOM     23  O   UNL     1       2.057   3.394  17.076  0.00  0.00    +0.000 OA
BRANCH  22  24
ATOM     24  O   UNL     1       3.969   3.340  18.350  0.00  0.00    +0.000 OA
BRANCH  24  26
ATOM     25  C   UNL     1       5.384   4.102  16.581  0.00  0.00    +0.000 C 
ATOM     26  C   UNL     1       5.143   4.118  18.080  0.00  0.00    +0.000 C 
ENDBRANCH  24  26
ENDBRANCH  22  24
ENDBRANCH  16  22
ENDBRANCH   1  19
BRANCH   4  27
ATOM     27  C   UNL     1      -2.150  10.618  18.201  0.00  0.00    +0.000 A 
ATOM     28  C   UNL     1      -1.850  10.120  16.917  0.00  0.00    +0.000 A 
ATOM     29  C   UNL     1      -2.672  10.389  15.820  0.00  0.00    +0.000 A 
ATOM     30  C   UNL     1      -3.832  11.136  15.991  0.00  0.00    +0.000 A 
ATOM     31  C   UNL     1      -4.169  11.607  17.258  0.00  0.00    +0.000 A 
ATOM     32  C   UNL     1      -3.331  11.359  18.350  0.00  0.00    +0.000 A 
ENDBRANCH   4  27
TORSDOF 6
ENDMDL
