MODEL 1
REMARK VINA RESULT:      -7.3      0.000      0.000
REMARK  Name = 
REMARK  9 active torsions:
REMARK  status: ('A' for Active; 'I' for Inactive)
REMARK    1  A    between atoms: C_1  and  C_2
REMARK    2  A    between atoms: C_2  and  N_3
REMARK    3  A    between atoms: N_3  and  C_4
REMARK    4  A    between atoms: N_3  and  C_16
REMARK    5  A    between atoms: C_4  and  C_5
REMARK    6  A    between atoms: N_7  and  C_8
REMARK    7  A    between atoms: C_8  and  C_9
REMARK    8  A    between atoms: C_16  and  C_17
REMARK    9  A    between atoms: N_19  and  C_20
REMARK                            x       y       z     vdW  Elec       q    Type
REMARK                         _______ _______ _______ _____ _____    ______ ____
ROOT
ATOM      1  N   UNL     1       1.357   4.257  19.666  0.00  0.00    +0.000 NA
ENDROOT
BRANCH   1   3
ATOM      2  C   UNL     1       1.815   2.866  21.721  0.00  0.00    +0.000 C 
ATOM      3  C   UNL     1       1.245   2.933  20.307  0.00  0.00    +0.000 C 
ENDBRANCH   1   3
BRANCH   1   4
ATOM      4  C   UNL     1       2.495   5.067  20.176  0.00  0.00    +0.000 C 
BRANCH   4   5
ATOM      5  C   UNL     1       2.509   6.529  19.701  0.00  0.00    +0.000 C 
ATOM      6  O   UNL     1       3.142   6.899  18.714  0.00  0.00    +0.000 OA
ATOM      7  N   UNL     1       1.746   7.392  20.459  0.00  0.00    +0.000 N 
ATOM      8  H   UNL     1       1.190   7.037  21.224  0.00  0.00    +0.000 HD
BRANCH   7   9
ATOM      9  C   UNL     1       1.654   8.801  20.149  0.00  0.00    +0.000 C 
BRANCH   9  10
ATOM     10  C   UNL     1       0.685   9.503  21.065  0.00  0.00    +0.000 A 
ATOM     11  C   UNL     1       0.466   9.040  22.373  0.00  0.00    +0.000 A 
ATOM     12  C   UNL     1      -0.415   9.715  23.221  0.00  0.00    +0.000 A 
ATOM     13  C   UNL     1      -1.080  10.846  22.762  0.00  0.00    +0.000 A 
ATOM     14  F   UNL     1      -1.913  11.499  23.582  0.00  0.00    +0.000 F 
ATOM     15  C   UNL     1      -0.893  11.308  21.465  0.00  0.00    +0.000 A 
ATOM     16  C   UNL     1      -0.017  10.633  20.614  0.00  0.00    +0.000 A 
ENDBRANCH   9  10
ENDBRANCH   7   9
ENDBRANCH   4   5
ENDBRANCH   1   4
BRANCH   1  17
ATOM     17  C   UNL     1       1.433   4.107  18.185  0.00  0.00    +0.000 C 
BRANCH  17  18
ATOM     18  C   UNL     1       2.768   3.469  17.745  0.00  0.00    +0.000 C 
ATOM     19  O   UNL     1       2.937   2.255  17.734  0.00  0.00    +0.000 OA
ATOM     20  N   UNL     1       3.725   4.375  17.353  0.00  0.00    +0.000 N 
ATOM     21  H   UNL     1       3.558   5.343  17.596  0.00  0.00    +0.000 HD
BRANCH  20  22
ATOM     22  C   UNL     1       5.030   3.983  16.859  0.00  0.00    +0.000 C 
ATOM     23  C   UNL     1       5.403   4.600  15.509  0.00  0.00    +0.000 C 
ATOM     24  C   UNL     1       6.919   4.489  15.459  0.00  0.00    +0.000 C 
ATOM     25  C   UNL     1       7.393   4.579  16.906  0.00  0.00    +0.000 C 
ATOM     26  C   UNL     1       6.141   4.501  17.774  0.00  0.00    +0.000 C 
ENDBRANCH  20  22
ENDBRANCH  17  18
ENDBRANCH   1  17
TORSDOF 8
ENDMDL
MODEL 2
REMARK VINA RESULT:      -7.1      4.102      5.838
REMARK  Name = 
REMARK  9 active torsions:
REMARK  status: ('A' for Active; 'I' for Inactive)
REMARK    1  A    between atoms: C_1  and  C_2
REMARK    2  A    between atoms: C_2  and  N_3
REMARK    3  A    between atoms: N_3  and  C_4
REMARK    4  A    between atoms: N_3  and  C_16
REMARK    5  A    between atoms: C_4  and  C_5
REMARK    6  A    between atoms: N_7  and  C_8
REMARK    7  A    between atoms: C_8  and  C_9
REMARK    8  A    between atoms: C_16  and  C_17
REMARK    9  A    between atoms: N_19  and  C_20
REMARK                            x       y       z     vdW  Elec       q    Type
REMARK                         _______ _______ _______ _____ _____    ______ ____
ROOT
ATOM      1  N   UNL     1       6.651   6.076  18.134  0.00  0.00    +0.000 NA
ENDROOT
BRANCH   1   3
ATOM      2  C   UNL     1       7.962   8.197  17.748  0.00  0.00    +0.000 C 
ATOM      3  C   UNL     1       7.823   6.886  18.515  0.00  0.00    +0.000 C 
ENDBRANCH   1   3
BRANCH   1   4
ATOM      4  C   UNL     1       5.764   6.748  17.147  0.00  0.00    +0.000 C 
BRANCH   4   5
ATOM      5  C   UNL     1       4.290   6.851  17.572  0.00  0.00    +0.000 C 
ATOM      6  O   UNL     1       3.764   7.915  17.889  0.00  0.00    +0.000 OA
ATOM      7  N   UNL     1       3.599   5.658  17.558  0.00  0.00    +0.000 N 
ATOM      8  H   UNL     1       4.049   4.815  17.230  0.00  0.00    +0.000 HD
BRANCH   7   9
ATOM      9  C   UNL     1       2.205   5.580  17.934  0.00  0.00    +0.000 C 
BRANCH   9  10
ATOM     10  C   UNL     1       2.000   4.633  19.089  0.00  0.00    +0.000 A 
ATOM     11  C   UNL     1       2.444   4.964  20.379  0.00  0.00    +0.000 A 
ATOM     12  C   UNL     1       2.224   4.089  21.446  0.00  0.00    +0.000 A 
ATOM     13  C   UNL     1       1.567   2.885  21.223  0.00  0.00    +0.000 A 
ATOM     14  F   UNL     1       1.345   2.055  22.250  0.00  0.00    +0.000 F 
ATOM     15  C   UNL     1       1.138   2.530  19.950  0.00  0.00    +0.000 A 
ATOM     16  C   UNL     1       1.359   3.400  18.882  0.00  0.00    +0.000 A 
ENDBRANCH   9  10
ENDBRANCH   7   9
ENDBRANCH   4   5
ENDBRANCH   1   4
BRANCH   1  17
ATOM     17  C   UNL     1       7.088   4.742  17.632  0.00  0.00    +0.000 C 
BRANCH  17  18
ATOM     18  C   UNL     1       6.507   4.438  16.236  0.00  0.00    +0.000 C 
ATOM     19  O   UNL     1       5.525   3.719  16.082  0.00  0.00    +0.000 OA
ATOM     20  N   UNL     1       7.168   5.054  15.201  0.00  0.00    +0.000 N 
ATOM     21  H   UNL     1       8.076   5.448  15.415  0.00  0.00    +0.000 HD
BRANCH  20  22
ATOM     22  C   UNL     1       6.756   4.938  13.816  0.00  0.00    +0.000 C 
ATOM     23  C   UNL     1       7.890   5.115  12.805  0.00  0.00    +0.000 C 
ATOM     24  C   UNL     1       7.360   4.458  11.539  0.00  0.00    +0.000 C 
ATOM     25  C   UNL     1       6.432   3.341  12.004  0.00  0.00    +0.000 C 
ATOM     26  C   UNL     1       6.259   3.525  13.508  0.00  0.00    +0.000 C 
ENDBRANCH  20  22
ENDBRANCH  17  18
ENDBRANCH   1  17
TORSDOF 8
ENDMDL
MODEL 3
REMARK VINA RESULT:      -7.1      5.552      7.980
REMARK  Name = 
REMARK  9 active torsions:
REMARK  status: ('A' for Active; 'I' for Inactive)
REMARK    1  A    between atoms: C_1  and  C_2
REMARK    2  A    between atoms: C_2  and  N_3
REMARK    3  A    between atoms: N_3  and  C_4
REMARK    4  A    between atoms: N_3  and  C_16
REMARK    5  A    between atoms: C_4  and  C_5
REMARK    6  A    between atoms: N_7  and  C_8
REMARK    7  A    between atoms: C_8  and  C_9
REMARK    8  A    between atoms: C_16  and  C_17
REMARK    9  A    between atoms: N_19  and  C_20
REMARK                            x       y       z     vdW  Elec       q    Type
REMARK                         _______ _______ _______ _____ _____    ______ ____
ROOT
ATOM      1  N   UNL     1       6.271   5.594  17.169  0.00  0.00    +0.000 NA
ENDROOT
BRANCH   1   3
ATOM      2  C   UNL     1       6.927   4.810  14.862  0.00  0.00    +0.000 C 
ATOM      3  C   UNL     1       6.781   4.482  16.345  0.00  0.00    +0.000 C 
ENDBRANCH   1   3
BRANCH   1   4
ATOM      4  C   UNL     1       6.924   6.897  16.874  0.00  0.00    +0.000 C 
BRANCH   4   5
ATOM      5  C   UNL     1       7.804   7.447  18.008  0.00  0.00    +0.000 C 
ATOM      6  O   UNL     1       8.224   6.741  18.923  0.00  0.00    +0.000 OA
ATOM      7  N   UNL     1       8.097   8.791  17.915  0.00  0.00    +0.000 N 
ATOM      8  H   UNL     1       7.786   9.322  17.114  0.00  0.00    +0.000 HD
BRANCH   7   9
ATOM      9  C   UNL     1       8.909   9.464  18.903  0.00  0.00    +0.000 C 
BRANCH   9  10
ATOM     10  C   UNL     1       9.413  10.789  18.389  0.00  0.00    +0.000 A 
ATOM     11  C   UNL     1      10.785  11.088  18.390  0.00  0.00    +0.000 A 
ATOM     12  C   UNL     1      11.241  12.309  17.886  0.00  0.00    +0.000 A 
ATOM     13  C   UNL     1      10.327  13.231  17.389  0.00  0.00    +0.000 A 
ATOM     14  F   UNL     1      10.769  14.394  16.893  0.00  0.00    +0.000 F 
ATOM     15  C   UNL     1       8.964  12.962  17.396  0.00  0.00    +0.000 A 
ATOM     16  C   UNL     1       8.505  11.745  17.902  0.00  0.00    +0.000 A 
ENDBRANCH   9  10
ENDBRANCH   7   9
ENDBRANCH   4   5
ENDBRANCH   1   4
BRANCH   1  17
ATOM     17  C   UNL     1       4.790   5.699  17.031  0.00  0.00    +0.000 C 
BRANCH  17  18
ATOM     18  C   UNL     1       4.059   5.106  18.253  0.00  0.00    +0.000 C 
ATOM     19  O   UNL     1       4.033   5.679  19.337  0.00  0.00    +0.000 OA
ATOM     20  N   UNL     1       3.434   3.906  18.012  0.00  0.00    +0.000 N 
ATOM     21  H   UNL     1       3.691   3.427  17.158  0.00  0.00    +0.000 HD
BRANCH  20  22
ATOM     22  C   UNL     1       2.654   3.204  19.011  0.00  0.00    +0.000 C 
ATOM     23  C   UNL     1       3.415   2.899  20.303  0.00  0.00    +0.000 C 
ATOM     24  C   UNL     1       2.317   2.665  21.331  0.00  0.00    +0.000 C 
ATOM     25  C   UNL     1       1.144   3.537  20.895  0.00  0.00    +0.000 C 
ATOM     26  C   UNL     1       1.495   4.069  19.510  0.00  0.00    +0.000 C 
ENDBRANCH  20  22
ENDBRANCH  17  18
ENDBRANCH   1  17
TORSDOF 8
ENDMDL
MODEL 4
REMARK VINA RESULT:      -7.0      5.711      8.101
REMARK  Name = 
REMARK  9 active torsions:
REMARK  status: ('A' for Active; 'I' for Inactive)
REMARK    1  A    between atoms: C_1  and  C_2
REMARK    2  A    between atoms: C_2  and  N_3
REMARK    3  A    between atoms: N_3  and  C_4
REMARK    4  A    between atoms: N_3  and  C_16
REMARK    5  A    between atoms: C_4  and  C_5
REMARK    6  A    between atoms: N_7  and  C_8
REMARK    7  A    between atoms: C_8  and  C_9
REMARK    8  A    between atoms: C_16  and  C_17
REMARK    9  A    between atoms: N_19  and  C_20
REMARK                            x       y       z     vdW  Elec       q    Type
REMARK                         _______ _______ _______ _____ _____    ______ ____
ROOT
ATOM      1  N   UNL     1       6.250   5.925  17.289  0.00  0.00    +0.000 NA
ENDROOT
BRANCH   1   3
ATOM      2  C   UNL     1       6.770   4.604  15.203  0.00  0.00    +0.000 C 
ATOM      3  C   UNL     1       6.963   4.772  16.707  0.00  0.00    +0.000 C 
ENDBRANCH   1   3
BRANCH   1   4
ATOM      4  C   UNL     1       6.877   7.233  16.963  0.00  0.00    +0.000 C 
BRANCH   4   5
ATOM      5  C   UNL     1       7.863   7.755  18.021  0.00  0.00    +0.000 C 
ATOM      6  O   UNL     1       8.393   7.021  18.853  0.00  0.00    +0.000 OA
ATOM      7  N   UNL     1       8.120   9.108  17.956  0.00  0.00    +0.000 N 
ATOM      8  H   UNL     1       7.715   9.666  17.218  0.00  0.00    +0.000 HD
BRANCH   7   9
ATOM      9  C   UNL     1       9.021   9.758  18.881  0.00  0.00    +0.000 C 
BRANCH   9  10
ATOM     10  C   UNL     1       9.557  11.047  18.312  0.00  0.00    +0.000 A 
ATOM     11  C   UNL     1       8.688  12.084  17.937  0.00  0.00    +0.000 A 
ATOM     12  C   UNL     1       9.198  13.284  17.436  0.00  0.00    +0.000 A 
ATOM     13  C   UNL     1      10.573  13.444  17.303  0.00  0.00    +0.000 A 
ATOM     14  F   UNL     1      11.059  14.601  16.836  0.00  0.00    +0.000 F 
ATOM     15  C   UNL     1      11.448  12.423  17.650  0.00  0.00    +0.000 A 
ATOM     16  C   UNL     1      10.941  11.222  18.147  0.00  0.00    +0.000 A 
ENDBRANCH   9  10
ENDBRANCH   7   9
ENDBRANCH   4   5
ENDBRANCH   1   4
BRANCH   1  17
ATOM     17  C   UNL     1       4.817   5.905  16.878  0.00  0.00    +0.000 C 
BRANCH  17  18
ATOM     18  C   UNL     1       3.922   5.261  17.956  0.00  0.00    +0.000 C 
ATOM     19  O   UNL     1       3.474   5.903  18.899  0.00  0.00    +0.000 OA
ATOM     20  N   UNL     1       3.663   3.926  17.752  0.00  0.00    +0.000 N 
ATOM     21  H   UNL     1       4.243   3.452  17.072  0.00  0.00    +0.000 HD
BRANCH  20  22
ATOM     22  C   UNL     1       2.806   3.144  18.622  0.00  0.00    +0.000 C 
ATOM     23  C   UNL     1       3.240   3.134  20.089  0.00  0.00    +0.000 C 
ATOM     24  C   UNL     1       1.981   2.732  20.843  0.00  0.00    +0.000 C 
ATOM     25  C   UNL     1       0.813   3.264  20.019  0.00  0.00    +0.000 C 
ATOM     26  C   UNL     1       1.404   3.748  18.699  0.00  0.00    +0.000 C 
ENDBRANCH  20  22
ENDBRANCH  17  18
ENDBRANCH   1  17
TORSDOF 8
ENDMDL
MODEL 5
REMARK VINA RESULT:      -7.0      5.559      7.839
REMARK  Name = 
REMARK  9 active torsions:
REMARK  status: ('A' for Active; 'I' for Inactive)
REMARK    1  A    between atoms: C_1  and  C_2
REMARK    2  A    between atoms: C_2  and  N_3
REMARK    3  A    between atoms: N_3  and  C_4
REMARK    4  A    between atoms: N_3  and  C_16
REMARK    5  A    between atoms: C_4  and  C_5
REMARK    6  A    between atoms: N_7  and  C_8
REMARK    7  A    between atoms: C_8  and  C_9
REMARK    8  A    between atoms: C_16  and  C_17
REMARK    9  A    between atoms: N_19  and  C_20
REMARK                            x       y       z     vdW  Elec       q    Type
REMARK                         _______ _______ _______ _____ _____    ______ ____
ROOT
ATOM      1  N   UNL     1       6.963   5.863  16.275  0.00  0.00    +0.000 NA
ENDROOT
BRANCH   1   3
ATOM      2  C   UNL     1       6.254   4.413  14.336  0.00  0.00    +0.000 C 
ATOM      3  C   UNL     1       5.995   5.656  15.181  0.00  0.00    +0.000 C 
ENDBRANCH   1   3
BRANCH   1   4
ATOM      4  C   UNL     1       6.606   6.993  17.174  0.00  0.00    +0.000 C 
BRANCH   4   5
ATOM      5  C   UNL     1       7.747   7.475  18.085  0.00  0.00    +0.000 C 
ATOM      6  O   UNL     1       8.336   6.727  18.863  0.00  0.00    +0.000 OA
ATOM      7  N   UNL     1       8.068   8.809  17.955  0.00  0.00    +0.000 N 
ATOM      8  H   UNL     1       7.604   9.377  17.260  0.00  0.00    +0.000 HD
BRANCH   7   9
ATOM      9  C   UNL     1       9.114   9.422  18.743  0.00  0.00    +0.000 C 
BRANCH   9  10
ATOM     10  C   UNL     1       9.374  10.840  18.303  0.00  0.00    +0.000 A 
ATOM     11  C   UNL     1       8.319  11.671  17.892  0.00  0.00    +0.000 A 
ATOM     12  C   UNL     1       8.569  12.992  17.512  0.00  0.00    +0.000 A 
ATOM     13  C   UNL     1       9.871  13.479  17.537  0.00  0.00    +0.000 A 
ATOM     14  F   UNL     1      10.105  14.750  17.186  0.00  0.00    +0.000 F 
ATOM     15  C   UNL     1      10.930  12.667  17.921  0.00  0.00    +0.000 A 
ATOM     16  C   UNL     1      10.684  11.346  18.298  0.00  0.00    +0.000 A 
ENDBRANCH   9  10
ENDBRANCH   7   9
ENDBRANCH   4   5
ENDBRANCH   1   4
BRANCH   1  17
ATOM     17  C   UNL     1       7.140   4.603  17.051  0.00  0.00    +0.000 C 
BRANCH  17  18
ATOM     18  C   UNL     1       5.983   4.378  18.047  0.00  0.00    +0.000 C 
ATOM     19  O   UNL     1       6.033   4.780  19.204  0.00  0.00    +0.000 OA
ATOM     20  N   UNL     1       4.902   3.715  17.518  0.00  0.00    +0.000 N 
ATOM     21  H   UNL     1       5.046   3.250  16.630  0.00  0.00    +0.000 HD
BRANCH  20  22
ATOM     22  C   UNL     1       3.693   3.444  18.270  0.00  0.00    +0.000 C 
ATOM     23  C   UNL     1       2.473   4.245  17.809  0.00  0.00    +0.000 C 
ATOM     24  C   UNL     1       1.289   3.452  18.344  0.00  0.00    +0.000 C 
ATOM     25  C   UNL     1       1.736   1.994  18.363  0.00  0.00    +0.000 C 
ATOM     26  C   UNL     1       3.233   2.000  18.069  0.00  0.00    +0.000 C 
ENDBRANCH  20  22
ENDBRANCH  17  18
ENDBRANCH   1  17
TORSDOF 8
ENDMDL
MODEL 6
REMARK VINA RESULT:      -7.0      1.846      2.284
REMARK  Name = 
REMARK  9 active torsions:
REMARK  status: ('A' for Active; 'I' for Inactive)
REMARK    1  A    between atoms: C_1  and  C_2
REMARK    2  A    between atoms: C_2  and  N_3
REMARK    3  A    between atoms: N_3  and  C_4
REMARK    4  A    between atoms: N_3  and  C_16
REMARK    5  A    between atoms: C_4  and  C_5
REMARK    6  A    between atoms: N_7  and  C_8
REMARK    7  A    between atoms: C_8  and  C_9
REMARK    8  A    between atoms: C_16  and  C_17
REMARK    9  A    between atoms: N_19  and  C_20
REMARK                            x       y       z     vdW  Elec       q    Type
REMARK                         _______ _______ _______ _____ _____    ______ ____
ROOT
ATOM      1  N   UNL     1       2.366   4.255  19.890  0.00  0.00    +0.000 NA
ENDROOT
BRANCH   1   3
ATOM      2  C   UNL     1       1.776   2.552  21.656  0.00  0.00    +0.000 C 
ATOM      3  C   UNL     1       1.329   3.732  20.798  0.00  0.00    +0.000 C 
ENDBRANCH   1   3
BRANCH   1   4
ATOM      4  C   UNL     1       2.730   5.671  20.163  0.00  0.00    +0.000 C 
BRANCH   4   5
ATOM      5  C   UNL     1       2.592   6.614  18.957  0.00  0.00    +0.000 C 
ATOM      6  O   UNL     1       2.843   6.262  17.806  0.00  0.00    +0.000 OA
ATOM      7  N   UNL     1       2.151   7.884  19.263  0.00  0.00    +0.000 N 
ATOM      8  H   UNL     1       1.894   8.117  20.211  0.00  0.00    +0.000 HD
BRANCH   7   9
ATOM      9  C   UNL     1       1.971   8.895  18.244  0.00  0.00    +0.000 C 
BRANCH   9  10
ATOM     10  C   UNL     1       0.787   9.777  18.549  0.00  0.00    +0.000 A 
ATOM     11  C   UNL     1      -0.338   9.788  17.709  0.00  0.00    +0.000 A 
ATOM     12  C   UNL     1      -1.440  10.590  18.017  0.00  0.00    +0.000 A 
ATOM     13  C   UNL     1      -1.415  11.383  19.159  0.00  0.00    +0.000 A 
ATOM     14  F   UNL     1      -2.478  12.139  19.459  0.00  0.00    +0.000 F 
ATOM     15  C   UNL     1      -0.304  11.400  19.992  0.00  0.00    +0.000 A 
ATOM     16  C   UNL     1       0.800  10.603  19.685  0.00  0.00    +0.000 A 
ENDBRANCH   9  10
ENDBRANCH   7   9
ENDBRANCH   4   5
ENDBRANCH   1   4
BRANCH   1  17
ATOM     17  C   UNL     1       3.572   3.379  19.928  0.00  0.00    +0.000 C 
BRANCH  17  18
ATOM     18  C   UNL     1       4.090   3.059  18.511  0.00  0.00    +0.000 C 
ATOM     19  O   UNL     1       3.631   2.140  17.842  0.00  0.00    +0.000 OA
ATOM     20  N   UNL     1       5.084   3.898  18.069  0.00  0.00    +0.000 N 
ATOM     21  H   UNL     1       5.528   4.481  18.767  0.00  0.00    +0.000 HD
BRANCH  20  22
ATOM     22  C   UNL     1       5.676   3.800  16.749  0.00  0.00    +0.000 C 
ATOM     23  C   UNL     1       4.826   4.408  15.631  0.00  0.00    +0.000 C 
ATOM     24  C   UNL     1       5.819   4.656  14.506  0.00  0.00    +0.000 C 
ATOM     25  C   UNL     1       7.156   4.939  15.184  0.00  0.00    +0.000 C 
ATOM     26  C   UNL     1       6.965   4.617  16.662  0.00  0.00    +0.000 C 
ENDBRANCH  20  22
ENDBRANCH  17  18
ENDBRANCH   1  17
TORSDOF 8
ENDMDL
MODEL 7
REMARK VINA RESULT:      -7.0      4.123      6.047
REMARK  Name = 
REMARK  9 active torsions:
REMARK  status: ('A' for Active; 'I' for Inactive)
REMARK    1  A    between atoms: C_1  and  C_2
REMARK    2  A    between atoms: C_2  and  N_3
REMARK    3  A    between atoms: N_3  and  C_4
REMARK    4  A    between atoms: N_3  and  C_16
REMARK    5  A    between atoms: C_4  and  C_5
REMARK    6  A    between atoms: N_7  and  C_8
REMARK    7  A    between atoms: C_8  and  C_9
REMARK    8  A    between atoms: C_16  and  C_17
REMARK    9  A    between atoms: N_19  and  C_20
REMARK                            x       y       z     vdW  Elec       q    Type
REMARK                         _______ _______ _______ _____ _____    ______ ____
ROOT
ATOM      1  N   UNL     1       6.658   5.282  17.595  0.00  0.00    +0.000 NA
ENDROOT
BRANCH   1   3
ATOM      2  C   UNL     1       8.139   5.826  19.565  0.00  0.00    +0.000 C 
ATOM      3  C   UNL     1       7.606   6.239  18.196  0.00  0.00    +0.000 C 
ENDBRANCH   1   3
BRANCH   1   4
ATOM      4  C   UNL     1       5.557   5.936  16.839  0.00  0.00    +0.000 C 
BRANCH   4   5
ATOM      5  C   UNL     1       4.179   5.278  17.010  0.00  0.00    +0.000 C 
ATOM      6  O   UNL     1       3.922   4.155  16.579  0.00  0.00    +0.000 OA
ATOM      7  N   UNL     1       3.254   6.037  17.695  0.00  0.00    +0.000 N 
ATOM      8  H   UNL     1       3.522   6.927  18.089  0.00  0.00    +0.000 HD
BRANCH   7   9
ATOM      9  C   UNL     1       1.910   5.565  17.939  0.00  0.00    +0.000 C 
BRANCH   9  10
ATOM     10  C   UNL     1       1.867   4.604  19.100  0.00  0.00    +0.000 A 
ATOM     11  C   UNL     1       2.365   4.975  20.359  0.00  0.00    +0.000 A 
ATOM     12  C   UNL     1       2.295   4.085  21.434  0.00  0.00    +0.000 A 
ATOM     13  C   UNL     1       1.734   2.827  21.250  0.00  0.00    +0.000 A 
ATOM     14  F   UNL     1       1.655   1.983  22.286  0.00  0.00    +0.000 F 
ATOM     15  C   UNL     1       1.253   2.435  20.007  0.00  0.00    +0.000 A 
ATOM     16  C   UNL     1       1.325   3.319  18.930  0.00  0.00    +0.000 A 
ENDBRANCH   9  10
ENDBRANCH   7   9
ENDBRANCH   4   5
ENDBRANCH   1   4
BRANCH   1  17
ATOM     17  C   UNL     1       7.387   4.307  16.735  0.00  0.00    +0.000 C 
BRANCH  17  18
ATOM     18  C   UNL     1       7.178   4.601  15.235  0.00  0.00    +0.000 C 
ATOM     19  O   UNL     1       7.712   5.554  14.677  0.00  0.00    +0.000 OA
ATOM     20  N   UNL     1       6.366   3.699  14.590  0.00  0.00    +0.000 N 
ATOM     21  H   UNL     1       5.818   3.084  15.177  0.00  0.00    +0.000 HD
BRANCH  20  22
ATOM     22  C   UNL     1       6.079   3.766  13.170  0.00  0.00    +0.000 C 
ATOM     23  C   UNL     1       6.546   2.545  12.375  0.00  0.00    +0.000 C 
ATOM     24  C   UNL     1       5.713   2.593  11.103  0.00  0.00    +0.000 C 
ATOM     25  C   UNL     1       4.389   3.241  11.495  0.00  0.00    +0.000 C 
ATOM     26  C   UNL     1       4.572   3.767  12.915  0.00  0.00    +0.000 C 
ENDBRANCH  20  22
ENDBRANCH  17  18
ENDBRANCH   1  17
TORSDOF 8
ENDMDL
MODEL 8
REMARK VINA RESULT:      -6.9      5.309      7.646
REMARK  Name = 
REMARK  9 active torsions:
REMARK  status: ('A' for Active; 'I' for Inactive)
REMARK    1  A    between atoms: C_1  and  C_2
REMARK    2  A    between atoms: C_2  and  N_3
REMARK    3  A    between atoms: N_3  and  C_4
REMARK    4  A    between atoms: N_3  and  C_16
REMARK    5  A    between atoms: C_4  and  C_5
REMARK    6  A    between atoms: N_7  and  C_8
REMARK    7  A    between atoms: C_8  and  C_9
REMARK    8  A    between atoms: C_16  and  C_17
REMARK    9  A    between atoms: N_19  and  C_20
REMARK                            x       y       z     vdW  Elec       q    Type
REMARK                         _______ _______ _______ _____ _____    ______ ____
ROOT
ATOM      1  N   UNL     1       6.095   5.383  18.106  0.00  0.00    +0.000 NA
ENDROOT
BRANCH   1   3
ATOM      2  C   UNL     1       5.667   4.401  15.821  0.00  0.00    +0.000 C 
ATOM      3  C   UNL     1       6.464   4.349  17.121  0.00  0.00    +0.000 C 
ENDBRANCH   1   3
BRANCH   1   4
ATOM      4  C   UNL     1       7.257   6.164  18.606  0.00  0.00    +0.000 C 
BRANCH   4   5
ATOM      5  C   UNL     1       7.731   7.284  17.665  0.00  0.00    +0.000 C 
ATOM      6  O   UNL     1       7.849   7.126  16.452  0.00  0.00    +0.000 OA
ATOM      7  N   UNL     1       8.001   8.486  18.285  0.00  0.00    +0.000 N 
ATOM      8  H   UNL     1       7.830   8.595  19.274  0.00  0.00    +0.000 HD
BRANCH   7   9
ATOM      9  C   UNL     1       8.459   9.640  17.544  0.00  0.00    +0.000 C 
BRANCH   9  10
ATOM     10  C   UNL     1       9.166  10.623  18.442  0.00  0.00    +0.000 A 
ATOM     11  C   UNL     1       9.752  11.786  17.917  0.00  0.00    +0.000 A 
ATOM     12  C   UNL     1      10.381  12.703  18.763  0.00  0.00    +0.000 A 
ATOM     13  C   UNL     1      10.428  12.455  20.130  0.00  0.00    +0.000 A 
ATOM     14  F   UNL     1      11.018  13.343  20.940  0.00  0.00    +0.000 F 
ATOM     15  C   UNL     1       9.871  11.302  20.667  0.00  0.00    +0.000 A 
ATOM     16  C   UNL     1       9.246  10.382  19.824  0.00  0.00    +0.000 A 
ENDBRANCH   9  10
ENDBRANCH   7   9
ENDBRANCH   4   5
ENDBRANCH   1   4
BRANCH   1  17
ATOM     17  C   UNL     1       5.052   6.285  17.539  0.00  0.00    +0.000 C 
BRANCH  17  18
ATOM     18  C   UNL     1       3.704   6.133  18.273  0.00  0.00    +0.000 C 
ATOM     19  O   UNL     1       2.804   6.957  18.159  0.00  0.00    +0.000 OA
ATOM     20  N   UNL     1       3.602   4.996  19.039  0.00  0.00    +0.000 N 
ATOM     21  H   UNL     1       4.464   4.500  19.229  0.00  0.00    +0.000 HD
BRANCH  20  22
ATOM     22  C   UNL     1       2.404   4.640  19.772  0.00  0.00    +0.000 C 
ATOM     23  C   UNL     1       1.431   3.752  18.994  0.00  0.00    +0.000 C 
ATOM     24  C   UNL     1       0.574   3.109  20.074  0.00  0.00    +0.000 C 
ATOM     25  C   UNL     1       1.471   2.988  21.302  0.00  0.00    +0.000 C 
ATOM     26  C   UNL     1       2.740   3.773  20.986  0.00  0.00    +0.000 C 
ENDBRANCH  20  22
ENDBRANCH  17  18
ENDBRANCH   1  17
TORSDOF 8
ENDMDL
MODEL 9
REMARK VINA RESULT:      -6.9      5.258      7.597
REMARK  Name = 
REMARK  9 active torsions:
REMARK  status: ('A' for Active; 'I' for Inactive)
REMARK    1  A    between atoms: C_1  and  C_2
REMARK    2  A    between atoms: C_2  and  N_3
REMARK    3  A    between atoms: N_3  and  C_4
REMARK    4  A    between atoms: N_3  and  C_16
REMARK    5  A    between atoms: C_4  and  C_5
REMARK    6  A    between atoms: N_7  and  C_8
REMARK    7  A    between atoms: C_8  and  C_9
REMARK    8  A    between atoms: C_16  and  C_17
REMARK    9  A    between atoms: N_19  and  C_20
REMARK                            x       y       z     vdW  Elec       q    Type
REMARK                         _______ _______ _______ _____ _____    ______ ____
ROOT
ATOM      1  N   UNL     1       6.187   5.296  16.751  0.00  0.00    +0.000 NA
ENDROOT
BRANCH   1   3
ATOM      2  C   UNL     1       6.295   4.268  14.449  0.00  0.00    +0.000 C 
ATOM      3  C   UNL     1       7.041   4.696  15.709  0.00  0.00    +0.000 C 
ENDBRANCH   1   3
BRANCH   1   4
ATOM      4  C   UNL     1       6.350   6.769  16.871  0.00  0.00    +0.000 C 
BRANCH   4   5
ATOM      5  C   UNL     1       7.451   7.216  17.847  0.00  0.00    +0.000 C 
ATOM      6  O   UNL     1       8.028   6.434  18.600  0.00  0.00    +0.000 OA
ATOM      7  N   UNL     1       7.754   8.561  17.803  0.00  0.00    +0.000 N 
ATOM      8  H   UNL     1       7.303   9.159  17.125  0.00  0.00    +0.000 HD
BRANCH   7   9
ATOM      9  C   UNL     1       8.763   9.144  18.658  0.00  0.00    +0.000 C 
BRANCH   9  10
ATOM     10  C   UNL     1       8.978  10.601  18.339  0.00  0.00    +0.000 A 
ATOM     11  C   UNL     1       7.999  11.341  17.656  0.00  0.00    +0.000 A 
ATOM     12  C   UNL     1       8.199  12.698  17.390  0.00  0.00    +0.000 A 
ATOM     13  C   UNL     1       9.377  13.312  17.800  0.00  0.00    +0.000 A 
ATOM     14  F   UNL     1       9.559  14.616  17.556  0.00  0.00    +0.000 F 
ATOM     15  C   UNL     1      10.366  12.593  18.459  0.00  0.00    +0.000 A 
ATOM     16  C   UNL     1      10.171  11.237  18.723  0.00  0.00    +0.000 A 
ENDBRANCH   9  10
ENDBRANCH   7   9
ENDBRANCH   4   5
ENDBRANCH   1   4
BRANCH   1  17
ATOM     17  C   UNL     1       4.759   4.938  16.515  0.00  0.00    +0.000 C 
BRANCH  17  18
ATOM     18  C   UNL     1       4.087   4.398  17.794  0.00  0.00    +0.000 C 
ATOM     19  O   UNL     1       4.704   3.747  18.629  0.00  0.00    +0.000 OA
ATOM     20  N   UNL     1       2.758   4.728  17.916  0.00  0.00    +0.000 N 
ATOM     21  H   UNL     1       2.301   5.081  17.085  0.00  0.00    +0.000 HD
BRANCH  20  22
ATOM     22  C   UNL     1       1.954   4.360  19.065  0.00  0.00    +0.000 C 
ATOM     23  C   UNL     1       1.750   2.853  19.234  0.00  0.00    +0.000 C 
ATOM     24  C   UNL     1       1.365   2.695  20.697  0.00  0.00    +0.000 C 
ATOM     25  C   UNL     1       2.072   3.825  21.439  0.00  0.00    +0.000 C 
ATOM     26  C   UNL     1       2.651   4.745  20.370  0.00  0.00    +0.000 C 
ENDBRANCH  20  22
ENDBRANCH  17  18
ENDBRANCH   1  17
TORSDOF 8
ENDMDL
