MODEL 1
REMARK VINA RESULT:      -8.4      0.000      0.000
REMARK  Name = 
REMARK  6 active torsions:
REMARK  status: ('A' for Active; 'I' for Inactive)
REMARK    1  A    between atoms: C_1  and  C_2
REMARK    2  A    between atoms: N_4  and  C_5
REMARK    3  A    between atoms: C_5  and  C_6
REMARK    4  A    between atoms: C_5  and  C_15
REMARK    5  A    between atoms: C_6  and  C_7
REMARK    6  A    between atoms: C_7  and  C_9
REMARK                            x       y       z     vdW  Elec       q    Type
REMARK                         _______ _______ _______ _____ _____    ______ ____
ROOT
ATOM      1  C   UNL     1       4.059   6.142  17.431  0.00  0.00    +0.000 C 
ENDROOT
BRANCH   1   2
ATOM      2  C   UNL     1       3.172   7.188  18.104  0.00  0.00    +0.000 A 
ATOM      3  C   UNL     1       2.922   8.390  17.411  0.00  0.00    +0.000 A 
ATOM      4  C   UNL     1       1.994   9.313  17.900  0.00  0.00    +0.000 A 
ATOM      5  C   UNL     1       1.358   9.077  19.119  0.00  0.00    +0.000 A 
ATOM      6  C   UNL     1       0.275   9.890  19.521  0.00  0.00    +0.000 A 
ATOM      7  C   UNL     1      -0.371   9.649  20.730  0.00  0.00    +0.000 A 
ATOM      8  C   UNL     1       0.177   8.747  21.633  0.00  0.00    +0.000 A 
ATOM      9  C   UNL     1       1.223   7.909  21.227  0.00  0.00    +0.000 A 
ATOM     10  C   UNL     1       1.743   8.003  19.929  0.00  0.00    +0.000 A 
ATOM     11  C   UNL     1       2.627   7.044  19.383  0.00  0.00    +0.000 A 
ENDBRANCH   1   2
BRANCH   1  15
ATOM     12  C   UNL     1       7.661   6.050  18.632  0.00  0.00    +0.000 C 
ATOM     13  C   UNL     1       6.523   6.472  17.747  0.00  0.00    +0.000 C 
ATOM     14  O   UNL     1       6.656   7.219  16.789  0.00  0.00    +0.000 OA
ATOM     15  N   UNL     1       5.322   5.912  18.127  0.00  0.00    +0.000 N 
ATOM     16  H   UNL     1       5.257   5.427  19.021  0.00  0.00    +0.000 HD
ENDBRANCH   1  15
BRANCH   1  17
ATOM     17  C   UNL     1       3.358   4.778  17.224  0.00  0.00    +0.000 C 
BRANCH  17  18
ATOM     18  C   UNL     1       3.802   3.714  18.220  0.00  0.00    +0.000 C 
ATOM     19  O   UNL     1       4.885   3.137  18.121  0.00  0.00    +0.000 OA
BRANCH  18  20
ATOM     20  C   UNL     1       2.880   3.345  19.331  0.00  0.00    +0.000 A 
ATOM     21  C   UNL     1       1.507   3.622  19.290  0.00  0.00    +0.000 A 
ATOM     22  C   UNL     1       0.714   3.385  20.415  0.00  0.00    +0.000 A 
ATOM     23  C   UNL     1       1.281   2.851  21.571  0.00  0.00    +0.000 A 
ATOM     24  C   UNL     1       2.631   2.506  21.591  0.00  0.00    +0.000 A 
ATOM     25  C   UNL     1       3.428   2.742  20.471  0.00  0.00    +0.000 A 
ENDBRANCH  18  20
ENDBRANCH  17  18
ENDBRANCH   1  17
TORSDOF 5
ENDMDL
MODEL 2
REMARK VINA RESULT:      -8.3      1.979      4.431
REMARK  Name = 
REMARK  6 active torsions:
REMARK  status: ('A' for Active; 'I' for Inactive)
REMARK    1  A    between atoms: C_1  and  C_2
REMARK    2  A    between atoms: N_4  and  C_5
REMARK    3  A    between atoms: C_5  and  C_6
REMARK    4  A    between atoms: C_5  and  C_15
REMARK    5  A    between atoms: C_6  and  C_7
REMARK    6  A    between atoms: C_7  and  C_9
REMARK                            x       y       z     vdW  Elec       q    Type
REMARK                         _______ _______ _______ _____ _____    ______ ____
ROOT
ATOM      1  C   UNL     1       3.116   5.560  19.787  0.00  0.00    +0.000 C 
ENDROOT
BRANCH   1   2
ATOM      2  C   UNL     1       2.461   6.913  19.514  0.00  0.00    +0.000 A 
ATOM      3  C   UNL     1       2.613   7.477  18.230  0.00  0.00    +0.000 A 
ATOM      4  C   UNL     1       1.908   8.628  17.871  0.00  0.00    +0.000 A 
ATOM      5  C   UNL     1       1.100   9.267  18.810  0.00  0.00    +0.000 A 
ATOM      6  C   UNL     1       0.228  10.303  18.405  0.00  0.00    +0.000 A 
ATOM      7  C   UNL     1      -0.591  10.933  19.337  0.00  0.00    +0.000 A 
ATOM      8  C   UNL     1      -0.402  10.691  20.693  0.00  0.00    +0.000 A 
ATOM      9  C   UNL     1       0.428   9.638  21.098  0.00  0.00    +0.000 A 
ATOM     10  C   UNL     1       1.097   8.857  20.148  0.00  0.00    +0.000 A 
ATOM     11  C   UNL     1       1.757   7.648  20.471  0.00  0.00    +0.000 A 
ENDBRANCH   1   2
BRANCH   1  15
ATOM     12  C   UNL     1       0.985   2.616  18.684  0.00  0.00    +0.000 C 
ATOM     13  C   UNL     1       1.439   3.706  19.612  0.00  0.00    +0.000 C 
ATOM     14  O   UNL     1       0.948   3.899  20.715  0.00  0.00    +0.000 OA
ATOM     15  N   UNL     1       2.475   4.449  19.088  0.00  0.00    +0.000 N 
ATOM     16  H   UNL     1       2.728   4.333  18.108  0.00  0.00    +0.000 HD
ENDBRANCH   1  15
BRANCH   1  17
ATOM     17  C   UNL     1       4.630   5.531  19.469  0.00  0.00    +0.000 C 
BRANCH  17  18
ATOM     18  C   UNL     1       5.079   4.245  18.785  0.00  0.00    +0.000 C 
ATOM     19  O   UNL     1       5.001   3.149  19.341  0.00  0.00    +0.000 OA
BRANCH  18  20
ATOM     20  C   UNL     1       5.653   4.327  17.413  0.00  0.00    +0.000 A 
ATOM     21  C   UNL     1       7.003   4.620  17.181  0.00  0.00    +0.000 A 
ATOM     22  C   UNL     1       7.458   4.826  15.877  0.00  0.00    +0.000 A 
ATOM     23  C   UNL     1       6.577   4.716  14.803  0.00  0.00    +0.000 A 
ATOM     24  C   UNL     1       5.250   4.353  15.024  0.00  0.00    +0.000 A 
ATOM     25  C   UNL     1       4.790   4.148  16.325  0.00  0.00    +0.000 A 
ENDBRANCH  18  20
ENDBRANCH  17  18
ENDBRANCH   1  17
TORSDOF 5
ENDMDL
MODEL 3
REMARK VINA RESULT:      -8.2      1.791      4.399
REMARK  Name = 
REMARK  6 active torsions:
REMARK  status: ('A' for Active; 'I' for Inactive)
REMARK    1  A    between atoms: C_1  and  C_2
REMARK    2  A    between atoms: N_4  and  C_5
REMARK    3  A    between atoms: C_5  and  C_6
REMARK    4  A    between atoms: C_5  and  C_15
REMARK    5  A    between atoms: C_6  and  C_7
REMARK    6  A    between atoms: C_7  and  C_9
REMARK                            x       y       z     vdW  Elec       q    Type
REMARK                         _______ _______ _______ _____ _____    ______ ____
ROOT
ATOM      1  C   UNL     1       3.740   4.848  18.283  0.00  0.00    +0.000 C 
ENDROOT
BRANCH   1   2
ATOM      2  C   UNL     1       3.123   6.212  18.588  0.00  0.00    +0.000 A 
ATOM      3  C   UNL     1       3.259   7.232  17.625  0.00  0.00    +0.000 A 
ATOM      4  C   UNL     1       2.583   8.446  17.774  0.00  0.00    +0.000 A 
ATOM      5  C   UNL     1       1.821   8.679  18.918  0.00  0.00    +0.000 A 
ATOM      6  C   UNL     1       0.973   9.807  18.986  0.00  0.00    +0.000 A 
ATOM      7  C   UNL     1       0.200  10.035  20.121  0.00  0.00    +0.000 A 
ATOM      8  C   UNL     1       0.417   9.274  21.264  0.00  0.00    +0.000 A 
ATOM      9  C   UNL     1       1.223   8.131  21.192  0.00  0.00    +0.000 A 
ATOM     10  C   UNL     1       1.841   7.774  19.986  0.00  0.00    +0.000 A 
ATOM     11  C   UNL     1       2.469   6.524  19.783  0.00  0.00    +0.000 A 
ENDBRANCH   1   2
BRANCH   1  15
ATOM     12  C   UNL     1       1.044   2.230  18.828  0.00  0.00    +0.000 C 
ATOM     13  C   UNL     1       1.673   3.434  18.188  0.00  0.00    +0.000 C 
ATOM     14  O   UNL     1       1.134   4.089  17.308  0.00  0.00    +0.000 OA
ATOM     15  N   UNL     1       2.915   3.723  18.713  0.00  0.00    +0.000 N 
ATOM     16  H   UNL     1       3.366   3.049  19.329  0.00  0.00    +0.000 HD
ENDBRANCH   1  15
BRANCH   1  17
ATOM     17  C   UNL     1       4.096   4.652  16.789  0.00  0.00    +0.000 C 
BRANCH  17  18
ATOM     18  C   UNL     1       5.587   4.453  16.545  0.00  0.00    +0.000 C 
ATOM     19  O   UNL     1       6.014   3.574  15.796  0.00  0.00    +0.000 OA
BRANCH  18  20
ATOM     20  C   UNL     1       6.553   5.336  17.259  0.00  0.00    +0.000 A 
ATOM     21  C   UNL     1       7.226   4.928  18.417  0.00  0.00    +0.000 A 
ATOM     22  C   UNL     1       8.009   5.842  19.126  0.00  0.00    +0.000 A 
ATOM     23  C   UNL     1       8.143   7.152  18.670  0.00  0.00    +0.000 A 
ATOM     24  C   UNL     1       7.533   7.540  17.478  0.00  0.00    +0.000 A 
ATOM     25  C   UNL     1       6.748   6.632  16.767  0.00  0.00    +0.000 A 
ENDBRANCH  18  20
ENDBRANCH  17  18
ENDBRANCH   1  17
TORSDOF 5
ENDMDL
MODEL 4
REMARK VINA RESULT:      -8.2      3.322      5.758
REMARK  Name = 
REMARK  6 active torsions:
REMARK  status: ('A' for Active; 'I' for Inactive)
REMARK    1  A    between atoms: C_1  and  C_2
REMARK    2  A    between atoms: N_4  and  C_5
REMARK    3  A    between atoms: C_5  and  C_6
REMARK    4  A    between atoms: C_5  and  C_15
REMARK    5  A    between atoms: C_6  and  C_7
REMARK    6  A    between atoms: C_7  and  C_9
REMARK                            x       y       z     vdW  Elec       q    Type
REMARK                         _______ _______ _______ _____ _____    ______ ____
ROOT
ATOM      1  C   UNL     1       5.338   5.830  16.332  0.00  0.00    +0.000 C 
ENDROOT
BRANCH   1   2
ATOM      2  C   UNL     1       4.401   5.538  17.503  0.00  0.00    +0.000 A 
ATOM      3  C   UNL     1       3.581   6.584  17.972  0.00  0.00    +0.000 A 
ATOM      4  C   UNL     1       2.593   6.338  18.929  0.00  0.00    +0.000 A 
ATOM      5  C   UNL     1       2.460   5.062  19.477  0.00  0.00    +0.000 A 
ATOM      6  C   UNL     1       1.343   4.751  20.284  0.00  0.00    +0.000 A 
ATOM      7  C   UNL     1       1.201   3.475  20.820  0.00  0.00    +0.000 A 
ATOM      8  C   UNL     1       2.254   2.573  20.736  0.00  0.00    +0.000 A 
ATOM      9  C   UNL     1       3.345   2.857  19.904  0.00  0.00    +0.000 A 
ATOM     10  C   UNL     1       3.396   4.061  19.190  0.00  0.00    +0.000 A 
ATOM     11  C   UNL     1       4.339   4.310  18.166  0.00  0.00    +0.000 A 
ENDBRANCH   1   2
BRANCH   1  15
ATOM     12  C   UNL     1       7.980   8.245  17.599  0.00  0.00    +0.000 C 
ATOM     13  C   UNL     1       7.198   6.963  17.570  0.00  0.00    +0.000 C 
ATOM     14  O   UNL     1       7.382   6.044  18.355  0.00  0.00    +0.000 OA
ATOM     15  N   UNL     1       6.246   6.948  16.574  0.00  0.00    +0.000 N 
ATOM     16  H   UNL     1       6.254   7.678  15.863  0.00  0.00    +0.000 HD
ENDBRANCH   1  15
BRANCH   1  17
ATOM     17  C   UNL     1       6.175   4.605  15.890  0.00  0.00    +0.000 C 
BRANCH  17  18
ATOM     18  C   UNL     1       6.861   4.798  14.543  0.00  0.00    +0.000 C 
ATOM     19  O   UNL     1       7.828   5.548  14.404  0.00  0.00    +0.000 OA
BRANCH  18  20
ATOM     20  C   UNL     1       6.324   4.074  13.356  0.00  0.00    +0.000 A 
ATOM     21  C   UNL     1       4.951   3.972  13.098  0.00  0.00    +0.000 A 
ATOM     22  C   UNL     1       4.496   3.163  12.054  0.00  0.00    +0.000 A 
ATOM     23  C   UNL     1       5.407   2.477  11.253  0.00  0.00    +0.000 A 
ATOM     24  C   UNL     1       6.776   2.633  11.461  0.00  0.00    +0.000 A 
ATOM     25  C   UNL     1       7.235   3.439  12.503  0.00  0.00    +0.000 A 
ENDBRANCH  18  20
ENDBRANCH  17  18
ENDBRANCH   1  17
TORSDOF 5
ENDMDL
MODEL 5
REMARK VINA RESULT:      -8.2      3.637      6.081
REMARK  Name = 
REMARK  6 active torsions:
REMARK  status: ('A' for Active; 'I' for Inactive)
REMARK    1  A    between atoms: C_1  and  C_2
REMARK    2  A    between atoms: N_4  and  C_5
REMARK    3  A    between atoms: C_5  and  C_6
REMARK    4  A    between atoms: C_5  and  C_15
REMARK    5  A    between atoms: C_6  and  C_7
REMARK    6  A    between atoms: C_7  and  C_9
REMARK                            x       y       z     vdW  Elec       q    Type
REMARK                         _______ _______ _______ _____ _____    ______ ____
ROOT
ATOM      1  C   UNL     1       5.453   5.423  15.891  0.00  0.00    +0.000 C 
ENDROOT
BRANCH   1   2
ATOM      2  C   UNL     1       4.480   4.818  16.902  0.00  0.00    +0.000 A 
ATOM      3  C   UNL     1       4.292   3.420  16.887  0.00  0.00    +0.000 A 
ATOM      4  C   UNL     1       3.543   2.793  17.885  0.00  0.00    +0.000 A 
ATOM      5  C   UNL     1       2.918   3.559  18.867  0.00  0.00    +0.000 A 
ATOM      6  C   UNL     1       2.335   2.931  19.991  0.00  0.00    +0.000 A 
ATOM      7  C   UNL     1       1.722   3.693  20.980  0.00  0.00    +0.000 A 
ATOM      8  C   UNL     1       1.500   5.048  20.764  0.00  0.00    +0.000 A 
ATOM      9  C   UNL     1       2.109   5.685  19.676  0.00  0.00    +0.000 A 
ATOM     10  C   UNL     1       2.908   4.956  18.785  0.00  0.00    +0.000 A 
ATOM     11  C   UNL     1       3.732   5.568  17.812  0.00  0.00    +0.000 A 
ENDBRANCH   1   2
BRANCH   1  15
ATOM     12  C   UNL     1       7.777   7.889  17.606  0.00  0.00    +0.000 C 
ATOM     13  C   UNL     1       7.254   6.530  17.237  0.00  0.00    +0.000 C 
ATOM     14  O   UNL     1       7.737   5.487  17.651  0.00  0.00    +0.000 OA
ATOM     15  N   UNL     1       6.165   6.595  16.394  0.00  0.00    +0.000 N 
ATOM     16  H   UNL     1       5.915   7.486  15.967  0.00  0.00    +0.000 HD
ENDBRANCH   1  15
BRANCH   1  17
ATOM     17  C   UNL     1       6.493   4.411  15.352  0.00  0.00    +0.000 C 
BRANCH  17  18
ATOM     18  C   UNL     1       6.907   4.681  13.911  0.00  0.00    +0.000 C 
ATOM     19  O   UNL     1       7.665   5.604  13.611  0.00  0.00    +0.000 OA
BRANCH  18  20
ATOM     20  C   UNL     1       6.352   3.815  12.833  0.00  0.00    +0.000 A 
ATOM     21  C   UNL     1       4.986   3.779  12.528  0.00  0.00    +0.000 A 
ATOM     22  C   UNL     1       4.501   2.846  11.608  0.00  0.00    +0.000 A 
ATOM     23  C   UNL     1       5.377   1.968  10.975  0.00  0.00    +0.000 A 
ATOM     24  C   UNL     1       6.746   2.049  11.221  0.00  0.00    +0.000 A 
ATOM     25  C   UNL     1       7.236   2.978  12.140  0.00  0.00    +0.000 A 
ENDBRANCH  18  20
ENDBRANCH  17  18
ENDBRANCH   1  17
TORSDOF 5
ENDMDL
MODEL 6
REMARK VINA RESULT:      -8.1      1.544      4.129
REMARK  Name = 
REMARK  6 active torsions:
REMARK  status: ('A' for Active; 'I' for Inactive)
REMARK    1  A    between atoms: C_1  and  C_2
REMARK    2  A    between atoms: N_4  and  C_5
REMARK    3  A    between atoms: C_5  and  C_6
REMARK    4  A    between atoms: C_5  and  C_15
REMARK    5  A    between atoms: C_6  and  C_7
REMARK    6  A    between atoms: C_7  and  C_9
REMARK                            x       y       z     vdW  Elec       q    Type
REMARK                         _______ _______ _______ _____ _____    ______ ____
ROOT
ATOM      1  C   UNL     1       2.861   5.584  19.183  0.00  0.00    +0.000 C 
ENDROOT
BRANCH   1   2
ATOM      2  C   UNL     1       2.327   7.015  19.228  0.00  0.00    +0.000 A 
ATOM      3  C   UNL     1       2.472   7.813  18.074  0.00  0.00    +0.000 A 
ATOM      4  C   UNL     1       1.865   9.068  17.997  0.00  0.00    +0.000 A 
ATOM      5  C   UNL     1       1.166   9.569  19.095  0.00  0.00    +0.000 A 
ATOM      6  C   UNL     1       0.379  10.735  18.961  0.00  0.00    +0.000 A 
ATOM      7  C   UNL     1      -0.331  11.229  20.052  0.00  0.00    +0.000 A 
ATOM      8  C   UNL     1      -0.103  10.700  21.317  0.00  0.00    +0.000 A 
ATOM      9  C   UNL     1       0.641   9.521  21.451  0.00  0.00    +0.000 A 
ATOM     10  C   UNL     1       1.187   8.896  20.322  0.00  0.00    +0.000 A 
ATOM     11  C   UNL     1       1.742   7.596  20.356  0.00  0.00    +0.000 A 
ENDBRANCH   1   2
BRANCH   1  15
ATOM     12  C   UNL     1       1.546   2.678  21.245  0.00  0.00    +0.000 C 
ATOM     13  C   UNL     1       2.576   3.456  20.475  0.00  0.00    +0.000 C 
ATOM     14  O   UNL     1       3.722   3.069  20.302  0.00  0.00    +0.000 OA
ATOM     15  N   UNL     1       2.079   4.642  19.979  0.00  0.00    +0.000 N 
ATOM     16  H   UNL     1       1.168   4.973  20.293  0.00  0.00    +0.000 HD
ENDBRANCH   1  15
BRANCH   1  17
ATOM     17  C   UNL     1       2.996   5.019  17.749  0.00  0.00    +0.000 C 
BRANCH  17  18
ATOM     18  C   UNL     1       4.412   4.569  17.408  0.00  0.00    +0.000 C 
ATOM     19  O   UNL     1       4.642   3.479  16.883  0.00  0.00    +0.000 OA
BRANCH  18  20
ATOM     20  C   UNL     1       5.550   5.468  17.749  0.00  0.00    +0.000 A 
ATOM     21  C   UNL     1       5.820   6.640  17.031  0.00  0.00    +0.000 A 
ATOM     22  C   UNL     1       6.981   7.370  17.300  0.00  0.00    +0.000 A 
ATOM     23  C   UNL     1       7.858   6.948  18.297  0.00  0.00    +0.000 A 
ATOM     24  C   UNL     1       7.556   5.823  19.061  0.00  0.00    +0.000 A 
ATOM     25  C   UNL     1       6.399   5.090  18.796  0.00  0.00    +0.000 A 
ENDBRANCH  18  20
ENDBRANCH  17  18
ENDBRANCH   1  17
TORSDOF 5
ENDMDL
MODEL 7
REMARK VINA RESULT:      -8.1      0.642      1.541
REMARK  Name = 
REMARK  6 active torsions:
REMARK  status: ('A' for Active; 'I' for Inactive)
REMARK    1  A    between atoms: C_1  and  C_2
REMARK    2  A    between atoms: N_4  and  C_5
REMARK    3  A    between atoms: C_5  and  C_6
REMARK    4  A    between atoms: C_5  and  C_15
REMARK    5  A    between atoms: C_6  and  C_7
REMARK    6  A    between atoms: C_7  and  C_9
REMARK                            x       y       z     vdW  Elec       q    Type
REMARK                         _______ _______ _______ _____ _____    ______ ____
ROOT
ATOM      1  C   UNL     1       4.077   6.201  17.545  0.00  0.00    +0.000 C 
ENDROOT
BRANCH   1   2
ATOM      2  C   UNL     1       3.053   7.018  18.331  0.00  0.00    +0.000 A 
ATOM      3  C   UNL     1       2.713   6.583  19.629  0.00  0.00    +0.000 A 
ATOM      4  C   UNL     1       1.908   7.371  20.455  0.00  0.00    +0.000 A 
ATOM      5  C   UNL     1       1.379   8.567  19.971  0.00  0.00    +0.000 A 
ATOM      6  C   UNL     1       0.741   9.467  20.853  0.00  0.00    +0.000 A 
ATOM      7  C   UNL     1       0.225  10.668  20.375  0.00  0.00    +0.000 A 
ATOM      8  C   UNL     1       0.150  10.888  19.005  0.00  0.00    +0.000 A 
ATOM      9  C   UNL     1       0.816  10.022  18.128  0.00  0.00    +0.000 A 
ATOM     10  C   UNL     1       1.522   8.918  18.623  0.00  0.00    +0.000 A 
ATOM     11  C   UNL     1       2.400   8.145  17.827  0.00  0.00    +0.000 A 
ENDBRANCH   1   2
BRANCH   1  15
ATOM     12  C   UNL     1       7.649   5.879  18.794  0.00  0.00    +0.000 C 
ATOM     13  C   UNL     1       6.565   6.285  17.837  0.00  0.00    +0.000 C 
ATOM     14  O   UNL     1       6.780   6.849  16.775  0.00  0.00    +0.000 OA
ATOM     15  N   UNL     1       5.308   5.938  18.286  0.00  0.00    +0.000 N 
ATOM     16  H   UNL     1       5.192   5.613  19.244  0.00  0.00    +0.000 HD
ENDBRANCH   1  15
BRANCH   1  17
ATOM     17  C   UNL     1       3.523   4.854  17.022  0.00  0.00    +0.000 C 
BRANCH  17  18
ATOM     18  C   UNL     1       3.874   3.669  17.913  0.00  0.00    +0.000 C 
ATOM     19  O   UNL     1       4.895   3.003  17.741  0.00  0.00    +0.000 OA
BRANCH  18  20
ATOM     20  C   UNL     1       2.936   3.295  19.009  0.00  0.00    +0.000 A 
ATOM     21  C   UNL     1       1.545   3.308  18.842  0.00  0.00    +0.000 A 
ATOM     22  C   UNL     1       0.710   3.088  19.940  0.00  0.00    +0.000 A 
ATOM     23  C   UNL     1       1.257   2.831  21.195  0.00  0.00    +0.000 A 
ATOM     24  C   UNL     1       2.639   2.745  21.350  0.00  0.00    +0.000 A 
ATOM     25  C   UNL     1       3.478   2.965  20.257  0.00  0.00    +0.000 A 
ENDBRANCH  18  20
ENDBRANCH  17  18
ENDBRANCH   1  17
TORSDOF 5
ENDMDL
MODEL 8
REMARK VINA RESULT:      -8.1      2.784      5.216
REMARK  Name = 
REMARK  6 active torsions:
REMARK  status: ('A' for Active; 'I' for Inactive)
REMARK    1  A    between atoms: C_1  and  C_2
REMARK    2  A    between atoms: N_4  and  C_5
REMARK    3  A    between atoms: C_5  and  C_6
REMARK    4  A    between atoms: C_5  and  C_15
REMARK    5  A    between atoms: C_6  and  C_7
REMARK    6  A    between atoms: C_7  and  C_9
REMARK                            x       y       z     vdW  Elec       q    Type
REMARK                         _______ _______ _______ _____ _____    ______ ____
ROOT
ATOM      1  C   UNL     1       4.448   5.247  17.922  0.00  0.00    +0.000 C 
ENDROOT
BRANCH   1   2
ATOM      2  C   UNL     1       3.419   6.223  18.491  0.00  0.00    +0.000 A 
ATOM      3  C   UNL     1       2.764   5.872  19.689  0.00  0.00    +0.000 A 
ATOM      4  C   UNL     1       1.936   6.788  20.341  0.00  0.00    +0.000 A 
ATOM      5  C   UNL     1       1.697   8.037  19.769  0.00  0.00    +0.000 A 
ATOM      6  C   UNL     1       1.036   9.041  20.511  0.00  0.00    +0.000 A 
ATOM      7  C   UNL     1       0.809  10.293  19.949  0.00  0.00    +0.000 A 
ATOM      8  C   UNL     1       1.045  10.490  18.593  0.00  0.00    +0.000 A 
ATOM      9  C   UNL     1       1.738   9.516  17.863  0.00  0.00    +0.000 A 
ATOM     10  C   UNL     1       2.159   8.332  18.481  0.00  0.00    +0.000 A 
ATOM     11  C   UNL     1       3.054   7.422  17.874  0.00  0.00    +0.000 A 
ENDBRANCH   1   2
BRANCH   1  15
ATOM     12  C   UNL     1       3.614   1.562  18.308  0.00  0.00    +0.000 C 
ATOM     13  C   UNL     1       4.246   2.871  18.690  0.00  0.00    +0.000 C 
ATOM     14  O   UNL     1       4.952   3.015  19.677  0.00  0.00    +0.000 OA
ATOM     15  N   UNL     1       3.951   3.879  17.798  0.00  0.00    +0.000 N 
ATOM     16  H   UNL     1       3.235   3.727  17.090  0.00  0.00    +0.000 HD
ENDBRANCH   1  15
BRANCH   1  17
ATOM     17  C   UNL     1       5.024   5.685  16.553  0.00  0.00    +0.000 C 
BRANCH  17  18
ATOM     18  C   UNL     1       6.200   4.833  16.093  0.00  0.00    +0.000 C 
ATOM     19  O   UNL     1       6.999   4.339  16.888  0.00  0.00    +0.000 OA
BRANCH  18  20
ATOM     20  C   UNL     1       6.398   4.616  14.632  0.00  0.00    +0.000 A 
ATOM     21  C   UNL     1       5.607   3.728  13.891  0.00  0.00    +0.000 A 
ATOM     22  C   UNL     1       5.926   3.455  12.559  0.00  0.00    +0.000 A 
ATOM     23  C   UNL     1       7.014   4.083  11.957  0.00  0.00    +0.000 A 
ATOM     24  C   UNL     1       7.759   5.021  12.669  0.00  0.00    +0.000 A 
ATOM     25  C   UNL     1       7.446   5.297  14.000  0.00  0.00    +0.000 A 
ENDBRANCH  18  20
ENDBRANCH  17  18
ENDBRANCH   1  17
TORSDOF 5
ENDMDL
MODEL 9
REMARK VINA RESULT:      -8.0      1.439      1.754
REMARK  Name = 
REMARK  6 active torsions:
REMARK  status: ('A' for Active; 'I' for Inactive)
REMARK    1  A    between atoms: C_1  and  C_2
REMARK    2  A    between atoms: N_4  and  C_5
REMARK    3  A    between atoms: C_5  and  C_6
REMARK    4  A    between atoms: C_5  and  C_15
REMARK    5  A    between atoms: C_6  and  C_7
REMARK    6  A    between atoms: C_7  and  C_9
REMARK                            x       y       z     vdW  Elec       q    Type
REMARK                         _______ _______ _______ _____ _____    ______ ____
ROOT
ATOM      1  C   UNL     1       3.901   5.629  18.027  0.00  0.00    +0.000 C 
ENDROOT
BRANCH   1   2
ATOM      2  C   UNL     1       3.084   6.848  18.451  0.00  0.00    +0.000 A 
ATOM      3  C   UNL     1       3.005   7.936  17.558  0.00  0.00    +0.000 A 
ATOM      4  C   UNL     1       2.147   9.008  17.817  0.00  0.00    +0.000 A 
ATOM      5  C   UNL     1       1.412   9.037  19.001  0.00  0.00    +0.000 A 
ATOM      6  C   UNL     1       0.395  10.001  19.180  0.00  0.00    +0.000 A 
ATOM      7  C   UNL     1      -0.350  10.024  20.355  0.00  0.00    +0.000 A 
ATOM      8  C   UNL     1       0.042   9.238  21.432  0.00  0.00    +0.000 A 
ATOM      9  C   UNL     1       1.020   8.252  21.250  0.00  0.00    +0.000 A 
ATOM     10  C   UNL     1       1.630   8.082  20.001  0.00  0.00    +0.000 A 
ATOM     11  C   UNL     1       2.445   6.969  19.688  0.00  0.00    +0.000 A 
ENDBRANCH   1   2
BRANCH   1  15
ATOM     12  C   UNL     1       5.957   5.347  14.847  0.00  0.00    +0.000 C 
ATOM     13  C   UNL     1       5.150   4.834  16.005  0.00  0.00    +0.000 C 
ATOM     14  O   UNL     1       4.932   3.648  16.202  0.00  0.00    +0.000 OA
ATOM     15  N   UNL     1       4.698   5.848  16.823  0.00  0.00    +0.000 N 
ATOM     16  H   UNL     1       4.784   6.815  16.514  0.00  0.00    +0.000 HD
ENDBRANCH   1  15
BRANCH   1  17
ATOM     17  C   UNL     1       4.834   5.093  19.140  0.00  0.00    +0.000 C 
BRANCH  17  18
ATOM     18  C   UNL     1       4.513   3.664  19.560  0.00  0.00    +0.000 C 
ATOM     19  O   UNL     1       5.395   2.844  19.817  0.00  0.00    +0.000 OA
BRANCH  18  20
ATOM     20  C   UNL     1       3.085   3.243  19.635  0.00  0.00    +0.000 A 
ATOM     21  C   UNL     1       2.429   2.622  18.564  0.00  0.00    +0.000 A 
ATOM     22  C   UNL     1       1.055   2.379  18.635  0.00  0.00    +0.000 A 
ATOM     23  C   UNL     1       0.340   2.730  19.778  0.00  0.00    +0.000 A 
ATOM     24  C   UNL     1       1.003   3.281  20.873  0.00  0.00    +0.000 A 
ATOM     25  C   UNL     1       2.374   3.528  20.808  0.00  0.00    +0.000 A 
ENDBRANCH  18  20
ENDBRANCH  17  18
ENDBRANCH   1  17
TORSDOF 5
ENDMDL
