MODEL 1
REMARK VINA RESULT:      -8.3      0.000      0.000
REMARK  Name = 
REMARK  9 active torsions:
REMARK  status: ('A' for Active; 'I' for Inactive)
REMARK    1  A    between atoms: C_1  and  C_2
REMARK    2  A    between atoms: C_11  and  C_13
REMARK    3  A    between atoms: C_13  and  C_14
REMARK    4  A    between atoms: C_13  and  C_15
REMARK    5  A    between atoms: C_13  and  C_16
REMARK    6  A    between atoms: N_18  and  C_19
REMARK    7  A    between atoms: C_19  and  C_20
REMARK    8  A    between atoms: C_20  and  C_21
REMARK    9  A    between atoms: C_20  and  C_22
REMARK                            x       y       z     vdW  Elec       q    Type
REMARK                         _______ _______ _______ _____ _____    ______ ____
ROOT
ATOM      1  C   UNL     1       9.072   5.847  13.058  0.00  0.00    +0.000 C 
ATOM      2  C   UNL     1       7.803   5.035  13.096  0.00  0.00    +0.000 A 
ATOM      3  C   UNL     1       7.325   4.499  11.881  0.00  0.00    +0.000 A 
ATOM      4  C   UNL     1       6.171   3.731  11.849  0.00  0.00    +0.000 A 
ATOM      5  C   UNL     1       5.492   3.485  13.032  0.00  0.00    +0.000 A 
ATOM      6  C   UNL     1       5.947   4.032  14.241  0.00  0.00    +0.000 A 
ATOM      7  C   UNL     1       5.196   3.808  15.395  0.00  0.00    +0.000 A 
ATOM      8  C   UNL     1       5.593   4.450  16.571  0.00  0.00    +0.000 A 
ATOM      9  C   UNL     1       5.067   4.602  17.882  0.00  0.00    +0.000 A 
ATOM     10  N   UNL     1       3.858   4.044  18.272  0.00  0.00    +0.000 N 
ATOM     11  C   UNL     1       3.231   4.238  19.485  0.00  0.00    +0.000 C 
ATOM     12  O   UNL     1       3.682   4.870  20.437  0.00  0.00    +0.000 OA
ATOM     13  N   UNL     1       5.852   5.379  18.624  0.00  0.00    +0.000 NA
ATOM     14  N   UNL     1       6.867   5.733  17.801  0.00  0.00    +0.000 N 
ATOM     15  C   UNL     1       6.750   5.209  16.534  0.00  0.00    +0.000 A 
ATOM     16  N   UNL     1       7.548   5.408  15.460  0.00  0.00    +0.000 NA
ATOM     17  C   UNL     1       7.117   4.835  14.308  0.00  0.00    +0.000 A 
ATOM     18  H   UNL     1       3.391   3.508  17.563  0.00  0.00    +0.000 HD
ENDROOT
BRANCH  11  19
ATOM     19  C   UNL     1       1.835   3.567  19.564  0.00  0.00    +0.000 C 
ATOM     20  C   UNL     1       1.238   3.418  18.158  0.00  0.00    +0.000 C 
ATOM     21  C   UNL     1       1.973   2.166  20.190  0.00  0.00    +0.000 C 
ATOM     22  C   UNL     1       0.888   4.396  20.449  0.00  0.00    +0.000 C 
ENDBRANCH  11  19
BRANCH  14  23
ATOM     23  C   UNL     1       7.842   6.703  18.272  0.00  0.00    +0.000 C 
BRANCH  23  24
ATOM     24  C   UNL     1       7.785   8.073  17.564  0.00  0.00    +0.000 C 
ATOM     25  C   UNL     1       6.349   8.536  17.319  0.00  0.00    +0.000 C 
ATOM     26  C   UNL     1       8.528   9.128  18.388  0.00  0.00    +0.000 C 
ENDBRANCH  23  24
ENDBRANCH  14  23
TORSDOF 3
ENDMDL
MODEL 2
REMARK VINA RESULT:      -8.1      0.680      1.038
REMARK  Name = 
REMARK  9 active torsions:
REMARK  status: ('A' for Active; 'I' for Inactive)
REMARK    1  A    between atoms: C_1  and  C_2
REMARK    2  A    between atoms: C_11  and  C_13
REMARK    3  A    between atoms: C_13  and  C_14
REMARK    4  A    between atoms: C_13  and  C_15
REMARK    5  A    between atoms: C_13  and  C_16
REMARK    6  A    between atoms: N_18  and  C_19
REMARK    7  A    between atoms: C_19  and  C_20
REMARK    8  A    between atoms: C_20  and  C_21
REMARK    9  A    between atoms: C_20  and  C_22
REMARK                            x       y       z     vdW  Elec       q    Type
REMARK                         _______ _______ _______ _____ _____    ______ ____
ROOT
ATOM      1  C   UNL     1       8.590   6.137  12.571  0.00  0.00    +0.000 C 
ATOM      2  C   UNL     1       7.597   5.024  12.785  0.00  0.00    +0.000 A 
ATOM      3  C   UNL     1       7.378   4.121  11.723  0.00  0.00    +0.000 A 
ATOM      4  C   UNL     1       6.488   3.067  11.860  0.00  0.00    +0.000 A 
ATOM      5  C   UNL     1       5.819   2.901  13.063  0.00  0.00    +0.000 A 
ATOM      6  C   UNL     1       6.013   3.806  14.116  0.00  0.00    +0.000 A 
ATOM      7  C   UNL     1       5.272   3.633  15.286  0.00  0.00    +0.000 A 
ATOM      8  C   UNL     1       5.388   4.604  16.285  0.00  0.00    +0.000 A 
ATOM      9  C   UNL     1       4.745   4.882  17.521  0.00  0.00    +0.000 A 
ATOM     10  N   UNL     1       3.714   4.100  18.021  0.00  0.00    +0.000 N 
ATOM     11  C   UNL     1       2.971   4.366  19.151  0.00  0.00    +0.000 C 
ATOM     12  O   UNL     1       3.157   5.293  19.935  0.00  0.00    +0.000 OA
ATOM     13  N   UNL     1       5.227   5.995  18.070  0.00  0.00    +0.000 NA
ATOM     14  N   UNL     1       6.161   6.436  17.195  0.00  0.00    +0.000 N 
ATOM     15  C   UNL     1       6.288   5.636  16.083  0.00  0.00    +0.000 A 
ATOM     16  N   UNL     1       7.076   5.816  14.998  0.00  0.00    +0.000 NA
ATOM     17  C   UNL     1       6.907   4.905  14.006  0.00  0.00    +0.000 A 
ATOM     18  H   UNL     1       3.468   3.310  17.450  0.00  0.00    +0.000 HD
ENDROOT
BRANCH  11  19
ATOM     19  C   UNL     1       1.814   3.357  19.373  0.00  0.00    +0.000 C 
ATOM     20  C   UNL     1       0.794   3.461  18.229  0.00  0.00    +0.000 C 
ATOM     21  C   UNL     1       2.380   1.923  19.397  0.00  0.00    +0.000 C 
ATOM     22  C   UNL     1       1.118   3.620  20.719  0.00  0.00    +0.000 C 
ENDBRANCH  11  19
BRANCH  14  23
ATOM     23  C   UNL     1       6.791   7.724  17.437  0.00  0.00    +0.000 C 
BRANCH  23  24
ATOM     24  C   UNL     1       8.207   7.646  18.045  0.00  0.00    +0.000 C 
ATOM     25  C   UNL     1       8.657   8.984  18.632  0.00  0.00    +0.000 C 
ATOM     26  C   UNL     1       8.260   6.568  19.131  0.00  0.00    +0.000 C 
ENDBRANCH  23  24
ENDBRANCH  14  23
TORSDOF 3
ENDMDL
MODEL 3
REMARK VINA RESULT:      -8.0      3.750      6.640
REMARK  Name = 
REMARK  9 active torsions:
REMARK  status: ('A' for Active; 'I' for Inactive)
REMARK    1  A    between atoms: C_1  and  C_2
REMARK    2  A    between atoms: C_11  and  C_13
REMARK    3  A    between atoms: C_13  and  C_14
REMARK    4  A    between atoms: C_13  and  C_15
REMARK    5  A    between atoms: C_13  and  C_16
REMARK    6  A    between atoms: N_18  and  C_19
REMARK    7  A    between atoms: C_19  and  C_20
REMARK    8  A    between atoms: C_20  and  C_21
REMARK    9  A    between atoms: C_20  and  C_22
REMARK                            x       y       z     vdW  Elec       q    Type
REMARK                         _______ _______ _______ _____ _____    ______ ____
ROOT
ATOM      1  C   UNL     1       4.665   1.909  19.532  0.00  0.00    +0.000 C 
ATOM      2  C   UNL     1       3.507   2.628  20.172  0.00  0.00    +0.000 A 
ATOM      3  C   UNL     1       2.688   1.901  21.062  0.00  0.00    +0.000 A 
ATOM      4  C   UNL     1       1.614   2.508  21.696  0.00  0.00    +0.000 A 
ATOM      5  C   UNL     1       1.359   3.849  21.454  0.00  0.00    +0.000 A 
ATOM      6  C   UNL     1       2.153   4.574  20.554  0.00  0.00    +0.000 A 
ATOM      7  C   UNL     1       1.819   5.904  20.296  0.00  0.00    +0.000 A 
ATOM      8  C   UNL     1       2.546   6.584  19.315  0.00  0.00    +0.000 A 
ATOM      9  C   UNL     1       2.461   7.846  18.668  0.00  0.00    +0.000 A 
ATOM     10  N   UNL     1       1.462   8.766  18.953  0.00  0.00    +0.000 N 
ATOM     11  C   UNL     1       1.248   9.958  18.294  0.00  0.00    +0.000 C 
ATOM     12  O   UNL     1       1.954  10.428  17.405  0.00  0.00    +0.000 OA
ATOM     13  N   UNL     1       3.411   7.975  17.745  0.00  0.00    +0.000 NA
ATOM     14  N   UNL     1       4.096   6.808  17.787  0.00  0.00    +0.000 N 
ATOM     15  C   UNL     1       3.601   5.919  18.713  0.00  0.00    +0.000 A 
ATOM     16  N   UNL     1       4.006   4.654  18.971  0.00  0.00    +0.000 NA
ATOM     17  C   UNL     1       3.252   3.980  19.877  0.00  0.00    +0.000 A 
ATOM     18  H   UNL     1       0.815   8.480  19.665  0.00  0.00    +0.000 HD
ENDROOT
BRANCH  11  19
ATOM     19  C   UNL     1      -0.023  10.704  18.778  0.00  0.00    +0.000 C 
ATOM     20  C   UNL     1      -1.220  10.345  17.886  0.00  0.00    +0.000 C 
ATOM     21  C   UNL     1      -0.345  10.283  20.225  0.00  0.00    +0.000 C 
ATOM     22  C   UNL     1       0.204  12.225  18.761  0.00  0.00    +0.000 C 
ENDBRANCH  11  19
BRANCH  14  23
ATOM     23  C   UNL     1       5.132   6.570  16.796  0.00  0.00    +0.000 C 
BRANCH  23  24
ATOM     24  C   UNL     1       6.499   6.155  17.377  0.00  0.00    +0.000 C 
ATOM     25  C   UNL     1       7.169   5.058  16.550  0.00  0.00    +0.000 C 
ATOM     26  C   UNL     1       7.429   7.369  17.465  0.00  0.00    +0.000 C 
ENDBRANCH  23  24
ENDBRANCH  14  23
TORSDOF 3
ENDMDL
MODEL 4
REMARK VINA RESULT:      -8.0      3.529      7.881
REMARK  Name = 
REMARK  9 active torsions:
REMARK  status: ('A' for Active; 'I' for Inactive)
REMARK    1  A    between atoms: C_1  and  C_2
REMARK    2  A    between atoms: C_11  and  C_13
REMARK    3  A    between atoms: C_13  and  C_14
REMARK    4  A    between atoms: C_13  and  C_15
REMARK    5  A    between atoms: C_13  and  C_16
REMARK    6  A    between atoms: N_18  and  C_19
REMARK    7  A    between atoms: C_19  and  C_20
REMARK    8  A    between atoms: C_20  and  C_21
REMARK    9  A    between atoms: C_20  and  C_22
REMARK                            x       y       z     vdW  Elec       q    Type
REMARK                         _______ _______ _______ _____ _____    ______ ____
ROOT
ATOM      1  C   UNL     1      -0.493   9.071  21.911  0.00  0.00    +0.000 C 
ATOM      2  C   UNL     1       0.153   9.448  20.604  0.00  0.00    +0.000 A 
ATOM      3  C   UNL     1      -0.263  10.645  19.982  0.00  0.00    +0.000 A 
ATOM      4  C   UNL     1       0.302  11.057  18.785  0.00  0.00    +0.000 A 
ATOM      5  C   UNL     1       1.294  10.281  18.205  0.00  0.00    +0.000 A 
ATOM      6  C   UNL     1       1.698   9.078  18.804  0.00  0.00    +0.000 A 
ATOM      7  C   UNL     1       2.655   8.301  18.152  0.00  0.00    +0.000 A 
ATOM      8  C   UNL     1       2.968   7.052  18.696  0.00  0.00    +0.000 A 
ATOM      9  C   UNL     1       3.749   5.932  18.306  0.00  0.00    +0.000 A 
ATOM     10  N   UNL     1       4.446   5.887  17.106  0.00  0.00    +0.000 N 
ATOM     11  C   UNL     1       5.132   4.800  16.609  0.00  0.00    +0.000 C 
ATOM     12  O   UNL     1       5.300   3.727  17.185  0.00  0.00    +0.000 OA
ATOM     13  N   UNL     1       3.663   4.953  19.203  0.00  0.00    +0.000 NA
ATOM     14  N   UNL     1       2.829   5.430  20.157  0.00  0.00    +0.000 N 
ATOM     15  C   UNL     1       2.363   6.697  19.889  0.00  0.00    +0.000 A 
ATOM     16  N   UNL     1       1.478   7.438  20.595  0.00  0.00    +0.000 NA
ATOM     17  C   UNL     1       1.131   8.620  20.023  0.00  0.00    +0.000 A 
ATOM     18  H   UNL     1       4.371   6.715  16.543  0.00  0.00    +0.000 HD
ENDROOT
BRANCH  11  19
ATOM     19  C   UNL     1       5.705   5.037  15.187  0.00  0.00    +0.000 C 
ATOM     20  C   UNL     1       5.100   4.031  14.197  0.00  0.00    +0.000 C 
ATOM     21  C   UNL     1       5.345   6.461  14.720  0.00  0.00    +0.000 C 
ATOM     22  C   UNL     1       7.237   4.907  15.194  0.00  0.00    +0.000 C 
ENDBRANCH  11  19
BRANCH  14  23
ATOM     23  C   UNL     1       2.414   4.542  21.230  0.00  0.00    +0.000 C 
BRANCH  23  24
ATOM     24  C   UNL     1       1.900   3.164  20.765  0.00  0.00    +0.000 C 
ATOM     25  C   UNL     1       1.479   2.279  21.938  0.00  0.00    +0.000 C 
ATOM     26  C   UNL     1       0.719   3.333  19.804  0.00  0.00    +0.000 C 
ENDBRANCH  23  24
ENDBRANCH  14  23
TORSDOF 3
ENDMDL
MODEL 5
REMARK VINA RESULT:      -7.9      3.750      6.682
REMARK  Name = 
REMARK  9 active torsions:
REMARK  status: ('A' for Active; 'I' for Inactive)
REMARK    1  A    between atoms: C_1  and  C_2
REMARK    2  A    between atoms: C_11  and  C_13
REMARK    3  A    between atoms: C_13  and  C_14
REMARK    4  A    between atoms: C_13  and  C_15
REMARK    5  A    between atoms: C_13  and  C_16
REMARK    6  A    between atoms: N_18  and  C_19
REMARK    7  A    between atoms: C_19  and  C_20
REMARK    8  A    between atoms: C_20  and  C_21
REMARK    9  A    between atoms: C_20  and  C_22
REMARK                            x       y       z     vdW  Elec       q    Type
REMARK                         _______ _______ _______ _____ _____    ______ ____
ROOT
ATOM      1  C   UNL     1       4.170   1.737  18.897  0.00  0.00    +0.000 C 
ATOM      2  C   UNL     1       3.144   2.529  19.664  0.00  0.00    +0.000 A 
ATOM      3  C   UNL     1       2.322   1.836  20.578  0.00  0.00    +0.000 A 
ATOM      4  C   UNL     1       1.368   2.509  21.327  0.00  0.00    +0.000 A 
ATOM      5  C   UNL     1       1.236   3.880  21.176  0.00  0.00    +0.000 A 
ATOM      6  C   UNL     1       2.033   4.575  20.254  0.00  0.00    +0.000 A 
ATOM      7  C   UNL     1       1.822   5.944  20.092  0.00  0.00    +0.000 A 
ATOM      8  C   UNL     1       2.541   6.606  19.092  0.00  0.00    +0.000 A 
ATOM      9  C   UNL     1       2.539   7.906  18.521  0.00  0.00    +0.000 A 
ATOM     10  N   UNL     1       1.666   8.903  18.932  0.00  0.00    +0.000 N 
ATOM     11  C   UNL     1       1.530  10.148  18.355  0.00  0.00    +0.000 C 
ATOM     12  O   UNL     1       2.213  10.597  17.438  0.00  0.00    +0.000 OA
ATOM     13  N   UNL     1       3.427   7.994  17.532  0.00  0.00    +0.000 NA
ATOM     14  N   UNL     1       3.987   6.764  17.459  0.00  0.00    +0.000 N 
ATOM     15  C   UNL     1       3.472   5.875  18.375  0.00  0.00    +0.000 A 
ATOM     16  N   UNL     1       3.761   4.563  18.533  0.00  0.00    +0.000 NA
ATOM     17  C   UNL     1       3.010   3.915  19.461  0.00  0.00    +0.000 A 
ATOM     18  H   UNL     1       1.048   8.641  19.679  0.00  0.00    +0.000 HD
ENDROOT
BRANCH  11  19
ATOM     19  C   UNL     1       0.383  10.987  18.978  0.00  0.00    +0.000 C 
ATOM     20  C   UNL     1       0.263  10.687  20.479  0.00  0.00    +0.000 C 
ATOM     21  C   UNL     1       0.690  12.487  18.800  0.00  0.00    +0.000 C 
ATOM     22  C   UNL     1      -0.951  10.684  18.275  0.00  0.00    +0.000 C 
ENDBRANCH  11  19
BRANCH  14  23
ATOM     23  C   UNL     1       4.916   6.483  16.377  0.00  0.00    +0.000 C 
BRANCH  23  24
ATOM     24  C   UNL     1       6.256   5.862  16.821  0.00  0.00    +0.000 C 
ATOM     25  C   UNL     1       6.944   5.103  15.687  0.00  0.00    +0.000 C 
ATOM     26  C   UNL     1       7.196   6.950  17.351  0.00  0.00    +0.000 C 
ENDBRANCH  23  24
ENDBRANCH  14  23
TORSDOF 3
ENDMDL
MODEL 6
REMARK VINA RESULT:      -7.7      3.847      6.596
REMARK  Name = 
REMARK  9 active torsions:
REMARK  status: ('A' for Active; 'I' for Inactive)
REMARK    1  A    between atoms: C_1  and  C_2
REMARK    2  A    between atoms: C_11  and  C_13
REMARK    3  A    between atoms: C_13  and  C_14
REMARK    4  A    between atoms: C_13  and  C_15
REMARK    5  A    between atoms: C_13  and  C_16
REMARK    6  A    between atoms: N_18  and  C_19
REMARK    7  A    between atoms: C_19  and  C_20
REMARK    8  A    between atoms: C_20  and  C_21
REMARK    9  A    between atoms: C_20  and  C_22
REMARK                            x       y       z     vdW  Elec       q    Type
REMARK                         _______ _______ _______ _____ _____    ______ ____
ROOT
ATOM      1  C   UNL     1       3.850   1.858  18.049  0.00  0.00    +0.000 C 
ATOM      2  C   UNL     1       2.873   2.625  18.900  0.00  0.00    +0.000 A 
ATOM      3  C   UNL     1       2.015   1.891  19.748  0.00  0.00    +0.000 A 
ATOM      4  C   UNL     1       1.103   2.537  20.568  0.00  0.00    +0.000 A 
ATOM      5  C   UNL     1       1.047   3.922  20.555  0.00  0.00    +0.000 A 
ATOM      6  C   UNL     1       1.879   4.659  19.699  0.00  0.00    +0.000 A 
ATOM      7  C   UNL     1       1.744   6.048  19.677  0.00  0.00    +0.000 A 
ATOM      8  C   UNL     1       2.495   6.765  18.741  0.00  0.00    +0.000 A 
ATOM      9  C   UNL     1       2.565   8.114  18.302  0.00  0.00    +0.000 A 
ATOM     10  N   UNL     1       1.750   9.112  18.818  0.00  0.00    +0.000 N 
ATOM     11  C   UNL     1       1.682  10.413  18.368  0.00  0.00    +0.000 C 
ATOM     12  O   UNL     1       2.386  10.913  17.495  0.00  0.00    +0.000 OA
ATOM     13  N   UNL     1       3.453   8.251  17.319  0.00  0.00    +0.000 NA
ATOM     14  N   UNL     1       3.943   7.005  17.120  0.00  0.00    +0.000 N 
ATOM     15  C   UNL     1       3.382   6.059  17.947  0.00  0.00    +0.000 A 
ATOM     16  N   UNL     1       3.598   4.724  17.971  0.00  0.00    +0.000 NA
ATOM     17  C   UNL     1       2.815   4.029  18.837  0.00  0.00    +0.000 A 
ATOM     18  H   UNL     1       1.120   8.811  19.540  0.00  0.00    +0.000 HD
ENDROOT
BRANCH  11  19
ATOM     19  C   UNL     1       0.586  11.248  19.081  0.00  0.00    +0.000 C 
ATOM     20  C   UNL     1       0.733  12.733  18.719  0.00  0.00    +0.000 C 
ATOM     21  C   UNL     1      -0.805  10.767  18.624  0.00  0.00    +0.000 C 
ATOM     22  C   UNL     1       0.677  11.070  20.606  0.00  0.00    +0.000 C 
ENDBRANCH  11  19
BRANCH  14  23
ATOM     23  C   UNL     1       4.852   6.782  16.007  0.00  0.00    +0.000 C 
BRANCH  23  24
ATOM     24  C   UNL     1       5.779   5.560  16.165  0.00  0.00    +0.000 C 
ATOM     25  C   UNL     1       6.057   4.870  14.829  0.00  0.00    +0.000 C 
ATOM     26  C   UNL     1       7.104   5.978  16.809  0.00  0.00    +0.000 C 
ENDBRANCH  23  24
ENDBRANCH  14  23
TORSDOF 3
ENDMDL
MODEL 7
REMARK VINA RESULT:      -7.6      3.194      7.615
REMARK  Name = 
REMARK  9 active torsions:
REMARK  status: ('A' for Active; 'I' for Inactive)
REMARK    1  A    between atoms: C_1  and  C_2
REMARK    2  A    between atoms: C_11  and  C_13
REMARK    3  A    between atoms: C_13  and  C_14
REMARK    4  A    between atoms: C_13  and  C_15
REMARK    5  A    between atoms: C_13  and  C_16
REMARK    6  A    between atoms: N_18  and  C_19
REMARK    7  A    between atoms: C_19  and  C_20
REMARK    8  A    between atoms: C_20  and  C_21
REMARK    9  A    between atoms: C_20  and  C_22
REMARK                            x       y       z     vdW  Elec       q    Type
REMARK                         _______ _______ _______ _____ _____    ______ ____
ROOT
ATOM      1  C   UNL     1       0.104   8.500  21.729  0.00  0.00    +0.000 C 
ATOM      2  C   UNL     1       0.676   8.937  20.406  0.00  0.00    +0.000 A 
ATOM      3  C   UNL     1       0.239  10.168  19.871  0.00  0.00    +0.000 A 
ATOM      4  C   UNL     1       0.737  10.635  18.664  0.00  0.00    +0.000 A 
ATOM      5  C   UNL     1       1.684   9.881  17.989  0.00  0.00    +0.000 A 
ATOM      6  C   UNL     1       2.108   8.646  18.501  0.00  0.00    +0.000 A 
ATOM      7  C   UNL     1       3.016   7.895  17.754  0.00  0.00    +0.000 A 
ATOM      8  C   UNL     1       3.345   6.617  18.216  0.00  0.00    +0.000 A 
ATOM      9  C   UNL     1       4.089   5.511  17.723  0.00  0.00    +0.000 A 
ATOM     10  N   UNL     1       4.712   5.521  16.484  0.00  0.00    +0.000 N 
ATOM     11  C   UNL     1       5.355   4.455  15.892  0.00  0.00    +0.000 C 
ATOM     12  O   UNL     1       5.544   3.353  16.402  0.00  0.00    +0.000 OA
ATOM     13  N   UNL     1       4.044   4.488  18.574  0.00  0.00    +0.000 NA
ATOM     14  N   UNL     1       3.273   4.924  19.599  0.00  0.00    +0.000 N 
ATOM     15  C   UNL     1       2.808   6.207  19.423  0.00  0.00    +0.000 A 
ATOM     16  N   UNL     1       1.974   6.919  20.217  0.00  0.00    +0.000 NA
ATOM     17  C   UNL     1       1.608   8.131  19.727  0.00  0.00    +0.000 A 
ATOM     18  H   UNL     1       4.615   6.378  15.969  0.00  0.00    +0.000 HD
ENDROOT
BRANCH  11  19
ATOM     19  C   UNL     1       5.846   4.759  14.453  0.00  0.00    +0.000 C 
ATOM     20  C   UNL     1       5.299   6.115  13.983  0.00  0.00    +0.000 C 
ATOM     21  C   UNL     1       7.386   4.818  14.437  0.00  0.00    +0.000 C 
ATOM     22  C   UNL     1       5.399   3.651  13.484  0.00  0.00    +0.000 C 
ENDBRANCH  11  19
BRANCH  14  23
ATOM     23  C   UNL     1       2.911   3.986  20.648  0.00  0.00    +0.000 C 
BRANCH  23  24
ATOM     24  C   UNL     1       1.422   3.584  20.671  0.00  0.00    +0.000 C 
ATOM     25  C   UNL     1       0.989   2.899  19.375  0.00  0.00    +0.000 C 
ATOM     26  C   UNL     1       1.139   2.658  21.857  0.00  0.00    +0.000 C 
ENDBRANCH  23  24
ENDBRANCH  14  23
TORSDOF 3
ENDMDL
MODEL 8
REMARK VINA RESULT:      -7.5      0.277      1.194
REMARK  Name = 
REMARK  9 active torsions:
REMARK  status: ('A' for Active; 'I' for Inactive)
REMARK    1  A    between atoms: C_1  and  C_2
REMARK    2  A    between atoms: C_11  and  C_13
REMARK    3  A    between atoms: C_13  and  C_14
REMARK    4  A    between atoms: C_13  and  C_15
REMARK    5  A    between atoms: C_13  and  C_16
REMARK    6  A    between atoms: N_18  and  C_19
REMARK    7  A    between atoms: C_19  and  C_20
REMARK    8  A    between atoms: C_20  and  C_21
REMARK    9  A    between atoms: C_20  and  C_22
REMARK                            x       y       z     vdW  Elec       q    Type
REMARK                         _______ _______ _______ _____ _____    ______ ____
ROOT
ATOM      1  C   UNL     1       9.108   5.867  12.949  0.00  0.00    +0.000 C 
ATOM      2  C   UNL     1       7.846   5.045  12.977  0.00  0.00    +0.000 A 
ATOM      3  C   UNL     1       7.373   4.518  11.756  0.00  0.00    +0.000 A 
ATOM      4  C   UNL     1       6.225   3.742  11.715  0.00  0.00    +0.000 A 
ATOM      5  C   UNL     1       5.548   3.477  12.895  0.00  0.00    +0.000 A 
ATOM      6  C   UNL     1       5.997   4.015  14.110  0.00  0.00    +0.000 A 
ATOM      7  C   UNL     1       5.248   3.771  15.261  0.00  0.00    +0.000 A 
ATOM      8  C   UNL     1       5.639   4.403  16.445  0.00  0.00    +0.000 A 
ATOM      9  C   UNL     1       5.112   4.537  17.757  0.00  0.00    +0.000 A 
ATOM     10  N   UNL     1       3.907   3.965  18.140  0.00  0.00    +0.000 N 
ATOM     11  C   UNL     1       3.278   4.141  19.354  0.00  0.00    +0.000 C 
ATOM     12  O   UNL     1       3.723   4.766  20.314  0.00  0.00    +0.000 OA
ATOM     13  N   UNL     1       5.890   5.313  18.508  0.00  0.00    +0.000 NA
ATOM     14  N   UNL     1       6.903   5.684  17.689  0.00  0.00    +0.000 N 
ATOM     15  C   UNL     1       6.790   5.172  16.417  0.00  0.00    +0.000 A 
ATOM     16  N   UNL     1       7.587   5.390  15.345  0.00  0.00    +0.000 NA
ATOM     17  C   UNL     1       7.161   4.826  14.186  0.00  0.00    +0.000 A 
ATOM     18  H   UNL     1       3.445   3.433  17.425  0.00  0.00    +0.000 HD
ENDROOT
BRANCH  11  19
ATOM     19  C   UNL     1       1.887   3.458  19.426  0.00  0.00    +0.000 C 
ATOM     20  C   UNL     1       1.082   4.019  20.607  0.00  0.00    +0.000 C 
ATOM     21  C   UNL     1       1.110   3.737  18.125  0.00  0.00    +0.000 C 
ATOM     22  C   UNL     1       2.041   1.934  19.575  0.00  0.00    +0.000 C 
ENDBRANCH  11  19
BRANCH  14  23
ATOM     23  C   UNL     1       7.870   6.657  18.171  0.00  0.00    +0.000 C 
BRANCH  23  24
ATOM     24  C   UNL     1       7.369   8.115  18.180  0.00  0.00    +0.000 C 
ATOM     25  C   UNL     1       8.515   9.120  18.067  0.00  0.00    +0.000 C 
ATOM     26  C   UNL     1       6.375   8.343  17.036  0.00  0.00    +0.000 C 
ENDBRANCH  23  24
ENDBRANCH  14  23
TORSDOF 3
ENDMDL
MODEL 9
REMARK VINA RESULT:      -7.1      0.689      1.304
REMARK  Name = 
REMARK  9 active torsions:
REMARK  status: ('A' for Active; 'I' for Inactive)
REMARK    1  A    between atoms: C_1  and  C_2
REMARK    2  A    between atoms: C_11  and  C_13
REMARK    3  A    between atoms: C_13  and  C_14
REMARK    4  A    between atoms: C_13  and  C_15
REMARK    5  A    between atoms: C_13  and  C_16
REMARK    6  A    between atoms: N_18  and  C_19
REMARK    7  A    between atoms: C_19  and  C_20
REMARK    8  A    between atoms: C_20  and  C_21
REMARK    9  A    between atoms: C_20  and  C_22
REMARK                            x       y       z     vdW  Elec       q    Type
REMARK                         _______ _______ _______ _____ _____    ______ ____
ROOT
ATOM      1  C   UNL     1       8.536   5.901  12.280  0.00  0.00    +0.000 C 
ATOM      2  C   UNL     1       7.472   4.875  12.569  0.00  0.00    +0.000 A 
ATOM      3  C   UNL     1       7.107   3.991  11.532  0.00  0.00    +0.000 A 
ATOM      4  C   UNL     1       6.144   3.014  11.737  0.00  0.00    +0.000 A 
ATOM      5  C   UNL     1       5.547   2.907  12.983  0.00  0.00    +0.000 A 
ATOM      6  C   UNL     1       5.886   3.797  14.013  0.00  0.00    +0.000 A 
ATOM      7  C   UNL     1       5.213   3.689  15.231  0.00  0.00    +0.000 A 
ATOM      8  C   UNL     1       5.476   4.649  16.212  0.00  0.00    +0.000 A 
ATOM      9  C   UNL     1       4.944   4.983  17.486  0.00  0.00    +0.000 A 
ATOM     10  N   UNL     1       3.887   4.291  18.060  0.00  0.00    +0.000 N 
ATOM     11  C   UNL     1       3.246   4.621  19.235  0.00  0.00    +0.000 C 
ATOM     12  O   UNL     1       3.561   5.531  19.997  0.00  0.00    +0.000 OA
ATOM     13  N   UNL     1       5.552   6.054  17.993  0.00  0.00    +0.000 NA
ATOM     14  N   UNL     1       6.458   6.413  17.053  0.00  0.00    +0.000 N 
ATOM     15  C   UNL     1       6.443   5.603  15.942  0.00  0.00    +0.000 A 
ATOM     16  N   UNL     1       7.168   5.714  14.805  0.00  0.00    +0.000 NA
ATOM     17  C   UNL     1       6.858   4.817  13.834  0.00  0.00    +0.000 A 
ATOM     18  H   UNL     1       3.539   3.523  17.514  0.00  0.00    +0.000 HD
ENDROOT
BRANCH  11  19
ATOM     19  C   UNL     1       2.027   3.712  19.542  0.00  0.00    +0.000 C 
ATOM     20  C   UNL     1       1.054   4.432  20.486  0.00  0.00    +0.000 C 
ATOM     21  C   UNL     1       1.287   3.385  18.230  0.00  0.00    +0.000 C 
ATOM     22  C   UNL     1       2.487   2.388  20.176  0.00  0.00    +0.000 C 
ENDBRANCH  11  19
BRANCH  14  23
ATOM     23  C   UNL     1       7.207   7.645  17.242  0.00  0.00    +0.000 C 
BRANCH  23  24
ATOM     24  C   UNL     1       7.796   7.833  18.655  0.00  0.00    +0.000 C 
ATOM     25  C   UNL     1       8.459   6.559  19.178  0.00  0.00    +0.000 C 
ATOM     26  C   UNL     1       8.815   8.977  18.658  0.00  0.00    +0.000 C 
ENDBRANCH  23  24
ENDBRANCH  14  23
TORSDOF 3
ENDMDL
