MODEL 1
REMARK VINA RESULT:      -6.8      0.000      0.000
REMARK  Name = 
REMARK  9 active torsions:
REMARK  status: ('A' for Active; 'I' for Inactive)
REMARK    1  A    between atoms: C_1  and  C_2
REMARK    2  A    between atoms: C_3  and  C_4
REMARK    3  A    between atoms: C_4  and  N_5
REMARK    4  A    between atoms: N_5  and  C_6
REMARK    5  A    between atoms: N_5  and  C_7
REMARK    6  A    between atoms: C_7  and  C_8
REMARK    7  A    between atoms: N_11  and  C_12
REMARK    8  A    between atoms: C_13  and  C_14
REMARK    9  A    between atoms: N_19  and  C_20
REMARK                            x       y       z     vdW  Elec       q    Type
REMARK                         _______ _______ _______ _____ _____    ______ ____
ROOT
ATOM      1  N   UNL     1       4.678   4.739  17.365  0.00  0.00    +0.000 NA
ATOM      2  C   UNL     1       5.422   4.455  18.590  0.00  0.00    +0.000 C 
ENDROOT
BRANCH   1   3
ATOM      3  C   UNL     1       3.233   4.916  17.612  0.00  0.00    +0.000 C 
BRANCH   3   6
ATOM      4  C   UNL     1       2.108   5.372  20.686  0.00  0.00    +0.000 C 
ATOM      5  C   UNL     1       2.191   4.141  19.861  0.00  0.00    +0.000 A 
ATOM      6  C   UNL     1       2.663   3.930  18.572  0.00  0.00    +0.000 A 
ATOM      7  C   UNL     1       2.448   2.551  18.347  0.00  0.00    +0.000 A 
ATOM      8  N   UNL     1       1.935   1.928  19.406  0.00  0.00    +0.000 NA
ATOM      9  N   UNL     1       1.793   2.909  20.313  0.00  0.00    +0.000 N 
ATOM     10  C   UNL     1       1.271   2.592  21.622  0.00  0.00    +0.000 C 
ENDBRANCH   3   6
ENDBRANCH   1   3
BRANCH   1  11
ATOM     11  C   UNL     1       5.011   3.769  16.311  0.00  0.00    +0.000 C 
BRANCH  11  12
ATOM     12  C   UNL     1       6.012   4.329  15.345  0.00  0.00    +0.000 A 
ATOM     13  C   UNL     1       7.101   5.170  15.670  0.00  0.00    +0.000 A 
ATOM     14  N   UNL     1       7.805   5.543  14.607  0.00  0.00    +0.000 NA
ATOM     15  N   UNL     1       7.196   4.919  13.578  0.00  0.00    +0.000 N 
ATOM     16  C   UNL     1       7.748   5.136  12.265  0.00  0.00    +0.000 C 
ATOM     17  C   UNL     1       6.123   4.152  13.969  0.00  0.00    +0.000 A 
BRANCH  17  18
ATOM     18  C   UNL     1       5.180   3.263  13.154  0.00  0.00    +0.000 C 
ATOM     19  C   UNL     1       5.639   2.580  11.886  0.00  0.00    +0.000 C 
ATOM     20  C   UNL     1       4.684   3.721  11.802  0.00  0.00    +0.000 C 
ENDBRANCH  17  18
ENDBRANCH  11  12
ENDBRANCH   1  11
TORSDOF 5
ENDMDL
MODEL 2
REMARK VINA RESULT:      -6.8      1.698      2.478
REMARK  Name = 
REMARK  9 active torsions:
REMARK  status: ('A' for Active; 'I' for Inactive)
REMARK    1  A    between atoms: C_1  and  C_2
REMARK    2  A    between atoms: C_3  and  C_4
REMARK    3  A    between atoms: C_4  and  N_5
REMARK    4  A    between atoms: N_5  and  C_6
REMARK    5  A    between atoms: N_5  and  C_7
REMARK    6  A    between atoms: C_7  and  C_8
REMARK    7  A    between atoms: N_11  and  C_12
REMARK    8  A    between atoms: C_13  and  C_14
REMARK    9  A    between atoms: N_19  and  C_20
REMARK                            x       y       z     vdW  Elec       q    Type
REMARK                         _______ _______ _______ _____ _____    ______ ____
ROOT
ATOM      1  N   UNL     1       4.465   4.383  17.519  0.00  0.00    +0.000 NA
ATOM      2  C   UNL     1       4.989   3.855  18.777  0.00  0.00    +0.000 C 
ENDROOT
BRANCH   1   3
ATOM      3  C   UNL     1       3.017   4.663  17.585  0.00  0.00    +0.000 C 
BRANCH   3   6
ATOM      4  C   UNL     1       1.839   5.057  20.648  0.00  0.00    +0.000 C 
ATOM      5  C   UNL     1       2.188   6.060  19.611  0.00  0.00    +0.000 A 
ATOM      6  C   UNL     1       2.679   5.914  18.321  0.00  0.00    +0.000 A 
ATOM      7  C   UNL     1       2.828   7.240  17.855  0.00  0.00    +0.000 A 
ATOM      8  N   UNL     1       2.424   8.147  18.742  0.00  0.00    +0.000 NA
ATOM      9  N   UNL     1       2.035   7.410  19.796  0.00  0.00    +0.000 N 
ATOM     10  C   UNL     1       1.506   8.072  20.965  0.00  0.00    +0.000 C 
ENDBRANCH   3   6
ENDBRANCH   1   3
BRANCH   1  11
ATOM     11  C   UNL     1       4.882   3.547  16.384  0.00  0.00    +0.000 C 
BRANCH  11  12
ATOM     12  C   UNL     1       5.916   4.236  15.545  0.00  0.00    +0.000 A 
ATOM     13  C   UNL     1       6.890   5.151  16.009  0.00  0.00    +0.000 A 
ATOM     14  N   UNL     1       7.657   5.633  15.037  0.00  0.00    +0.000 NA
ATOM     15  N   UNL     1       7.207   5.009  13.929  0.00  0.00    +0.000 N 
ATOM     16  C   UNL     1       7.859   5.335  12.686  0.00  0.00    +0.000 C 
ATOM     17  C   UNL     1       6.174   4.136  14.181  0.00  0.00    +0.000 A 
BRANCH  17  18
ATOM     18  C   UNL     1       5.396   3.210  13.242  0.00  0.00    +0.000 C 
ATOM     19  C   UNL     1       5.985   2.742  11.931  0.00  0.00    +0.000 C 
ATOM     20  C   UNL     1       4.871   3.732  11.924  0.00  0.00    +0.000 C 
ENDBRANCH  17  18
ENDBRANCH  11  12
ENDBRANCH   1  11
TORSDOF 5
ENDMDL
MODEL 3
REMARK VINA RESULT:      -6.7      3.372      7.384
REMARK  Name = 
REMARK  9 active torsions:
REMARK  status: ('A' for Active; 'I' for Inactive)
REMARK    1  A    between atoms: C_1  and  C_2
REMARK    2  A    between atoms: C_3  and  C_4
REMARK    3  A    between atoms: C_4  and  N_5
REMARK    4  A    between atoms: N_5  and  C_6
REMARK    5  A    between atoms: N_5  and  C_7
REMARK    6  A    between atoms: C_7  and  C_8
REMARK    7  A    between atoms: N_11  and  C_12
REMARK    8  A    between atoms: C_13  and  C_14
REMARK    9  A    between atoms: N_19  and  C_20
REMARK                            x       y       z     vdW  Elec       q    Type
REMARK                         _______ _______ _______ _____ _____    ______ ____
ROOT
ATOM      1  N   UNL     1       1.835   5.321  19.076  0.00  0.00    +0.000 NA
ATOM      2  C   UNL     1       1.302   4.453  20.124  0.00  0.00    +0.000 C 
ENDROOT
BRANCH   1   3
ATOM      3  C   UNL     1       2.517   4.564  18.009  0.00  0.00    +0.000 C 
BRANCH   3   6
ATOM      4  C   UNL     1       4.924   6.037  16.290  0.00  0.00    +0.000 C 
ATOM      5  C   UNL     1       4.993   5.113  17.450  0.00  0.00    +0.000 A 
ATOM      6  C   UNL     1       3.995   4.483  18.181  0.00  0.00    +0.000 A 
ATOM      7  C   UNL     1       4.697   3.758  19.171  0.00  0.00    +0.000 A 
ATOM      8  N   UNL     1       6.019   3.872  19.055  0.00  0.00    +0.000 NA
ATOM      9  N   UNL     1       6.176   4.693  18.002  0.00  0.00    +0.000 N 
ATOM     10  C   UNL     1       7.509   5.032  17.561  0.00  0.00    +0.000 C 
ENDBRANCH   3   6
ENDBRANCH   1   3
BRANCH   1  11
ATOM     11  C   UNL     1       2.622   6.421  19.655  0.00  0.00    +0.000 C 
BRANCH  11  12
ATOM     12  C   UNL     1       2.156   7.754  19.152  0.00  0.00    +0.000 A 
ATOM     13  C   UNL     1       2.294   8.240  17.831  0.00  0.00    +0.000 A 
ATOM     14  N   UNL     1       1.819   9.471  17.677  0.00  0.00    +0.000 NA
ATOM     15  N   UNL     1       1.337   9.788  18.895  0.00  0.00    +0.000 N 
ATOM     16  C   UNL     1       0.745  11.093  19.044  0.00  0.00    +0.000 C 
ATOM     17  C   UNL     1       1.491   8.779  19.819  0.00  0.00    +0.000 A 
BRANCH  17  18
ATOM     18  C   UNL     1       1.068   8.694  21.287  0.00  0.00    +0.000 C 
ATOM     19  C   UNL     1      -0.389   8.631  21.686  0.00  0.00    +0.000 C 
ATOM     20  C   UNL     1       0.393   9.872  21.951  0.00  0.00    +0.000 C 
ENDBRANCH  17  18
ENDBRANCH  11  12
ENDBRANCH   1  11
TORSDOF 5
ENDMDL
MODEL 4
REMARK VINA RESULT:      -6.7      3.312      7.553
REMARK  Name = 
REMARK  9 active torsions:
REMARK  status: ('A' for Active; 'I' for Inactive)
REMARK    1  A    between atoms: C_1  and  C_2
REMARK    2  A    between atoms: C_3  and  C_4
REMARK    3  A    between atoms: C_4  and  N_5
REMARK    4  A    between atoms: N_5  and  C_6
REMARK    5  A    between atoms: N_5  and  C_7
REMARK    6  A    between atoms: C_7  and  C_8
REMARK    7  A    between atoms: N_11  and  C_12
REMARK    8  A    between atoms: C_13  and  C_14
REMARK    9  A    between atoms: N_19  and  C_20
REMARK                            x       y       z     vdW  Elec       q    Type
REMARK                         _______ _______ _______ _____ _____    ______ ____
ROOT
ATOM      1  N   UNL     1       2.512   5.152  18.131  0.00  0.00    +0.000 NA
ATOM      2  C   UNL     1       1.402   4.201  18.122  0.00  0.00    +0.000 C 
ENDROOT
BRANCH   1   3
ATOM      3  C   UNL     1       3.813   4.501  17.878  0.00  0.00    +0.000 C 
BRANCH   3   6
ATOM      4  C   UNL     1       6.543   5.490  19.455  0.00  0.00    +0.000 C 
ATOM      5  C   UNL     1       6.023   5.844  18.111  0.00  0.00    +0.000 A 
ATOM      6  C   UNL     1       4.879   5.443  17.435  0.00  0.00    +0.000 A 
ATOM      7  C   UNL     1       4.961   6.108  16.190  0.00  0.00    +0.000 A 
ATOM      8  N   UNL     1       6.029   6.899  16.097  0.00  0.00    +0.000 NA
ATOM      9  N   UNL     1       6.655   6.728  17.273  0.00  0.00    +0.000 N 
ATOM     10  C   UNL     1       7.869   7.462  17.542  0.00  0.00    +0.000 C 
ENDBRANCH   3   6
ENDBRANCH   1   3
BRANCH   1  11
ATOM     11  C   UNL     1       2.468   5.999  19.332  0.00  0.00    +0.000 C 
BRANCH  11  12
ATOM     12  C   UNL     1       2.132   7.420  18.991  0.00  0.00    +0.000 A 
ATOM     13  C   UNL     1       2.329   8.043  17.736  0.00  0.00    +0.000 A 
ATOM     14  N   UNL     1       1.971   9.322  17.729  0.00  0.00    +0.000 NA
ATOM     15  N   UNL     1       1.506   9.537  18.976  0.00  0.00    +0.000 N 
ATOM     16  C   UNL     1       1.034  10.864  19.277  0.00  0.00    +0.000 C 
ATOM     17  C   UNL     1       1.556   8.416  19.773  0.00  0.00    +0.000 A 
BRANCH  17  18
ATOM     18  C   UNL     1       1.111   8.199  21.221  0.00  0.00    +0.000 C 
ATOM     19  C   UNL     1      -0.271   8.596  21.689  0.00  0.00    +0.000 C 
ATOM     20  C   UNL     1       0.913   9.382  22.140  0.00  0.00    +0.000 C 
ENDBRANCH  17  18
ENDBRANCH  11  12
ENDBRANCH   1  11
TORSDOF 5
ENDMDL
MODEL 5
REMARK VINA RESULT:      -6.6      1.885      6.777
REMARK  Name = 
REMARK  9 active torsions:
REMARK  status: ('A' for Active; 'I' for Inactive)
REMARK    1  A    between atoms: C_1  and  C_2
REMARK    2  A    between atoms: C_3  and  C_4
REMARK    3  A    between atoms: C_4  and  N_5
REMARK    4  A    between atoms: N_5  and  C_6
REMARK    5  A    between atoms: N_5  and  C_7
REMARK    6  A    between atoms: C_7  and  C_8
REMARK    7  A    between atoms: N_11  and  C_12
REMARK    8  A    between atoms: C_13  and  C_14
REMARK    9  A    between atoms: N_19  and  C_20
REMARK                            x       y       z     vdW  Elec       q    Type
REMARK                         _______ _______ _______ _____ _____    ______ ____
ROOT
ATOM      1  N   UNL     1       5.097   5.250  19.625  0.00  0.00    +0.000 NA
ATOM      2  C   UNL     1       3.772   5.812  19.372  0.00  0.00    +0.000 C 
ENDROOT
BRANCH   1   3
ATOM      3  C   UNL     1       6.173   6.032  18.985  0.00  0.00    +0.000 C 
BRANCH   3   6
ATOM      4  C   UNL     1       5.055   6.549  15.918  0.00  0.00    +0.000 C 
ATOM      5  C   UNL     1       6.163   5.692  16.410  0.00  0.00    +0.000 A 
ATOM      6  C   UNL     1       6.643   5.460  17.692  0.00  0.00    +0.000 A 
ATOM      7  C   UNL     1       7.724   4.570  17.500  0.00  0.00    +0.000 A 
ATOM      8  N   UNL     1       7.889   4.225  16.225  0.00  0.00    +0.000 NA
ATOM      9  N   UNL     1       6.929   4.912  15.583  0.00  0.00    +0.000 N 
ATOM     10  C   UNL     1       6.789   4.765  14.153  0.00  0.00    +0.000 C 
ENDBRANCH   3   6
ENDBRANCH   1   3
BRANCH   1  11
ATOM     11  C   UNL     1       5.121   3.809  19.331  0.00  0.00    +0.000 C 
BRANCH  11  12
ATOM     12  C   UNL     1       3.808   3.338  18.780  0.00  0.00    +0.000 A 
ATOM     13  C   UNL     1       3.439   3.311  17.415  0.00  0.00    +0.000 A 
ATOM     14  N   UNL     1       2.199   2.876  17.220  0.00  0.00    +0.000 NA
ATOM     15  N   UNL     1       1.758   2.585  18.460  0.00  0.00    +0.000 N 
ATOM     16  C   UNL     1       0.413   2.080  18.572  0.00  0.00    +0.000 C 
ATOM     17  C   UNL     1       2.696   2.821  19.439  0.00  0.00    +0.000 A 
BRANCH  17  18
ATOM     18  C   UNL     1       2.637   2.606  20.953  0.00  0.00    +0.000 C 
ATOM     19  C   UNL     1       1.319   2.572  21.694  0.00  0.00    +0.000 C 
ATOM     20  C   UNL     1       2.229   3.741  21.865  0.00  0.00    +0.000 C 
ENDBRANCH  17  18
ENDBRANCH  11  12
ENDBRANCH   1  11
TORSDOF 5
ENDMDL
MODEL 6
REMARK VINA RESULT:      -6.5      1.644      2.258
REMARK  Name = 
REMARK  9 active torsions:
REMARK  status: ('A' for Active; 'I' for Inactive)
REMARK    1  A    between atoms: C_1  and  C_2
REMARK    2  A    between atoms: C_3  and  C_4
REMARK    3  A    between atoms: C_4  and  N_5
REMARK    4  A    between atoms: N_5  and  C_6
REMARK    5  A    between atoms: N_5  and  C_7
REMARK    6  A    between atoms: C_7  and  C_8
REMARK    7  A    between atoms: N_11  and  C_12
REMARK    8  A    between atoms: C_13  and  C_14
REMARK    9  A    between atoms: N_19  and  C_20
REMARK                            x       y       z     vdW  Elec       q    Type
REMARK                         _______ _______ _______ _____ _____    ______ ____
ROOT
ATOM      1  N   UNL     1       4.345   4.346  17.543  0.00  0.00    +0.000 NA
ATOM      2  C   UNL     1       4.882   3.858  18.811  0.00  0.00    +0.000 C 
ENDROOT
BRANCH   1   3
ATOM      3  C   UNL     1       2.880   4.528  17.584  0.00  0.00    +0.000 C 
BRANCH   3   6
ATOM      4  C   UNL     1       2.770   7.809  17.961  0.00  0.00    +0.000 C 
ATOM      5  C   UNL     1       2.366   6.718  18.882  0.00  0.00    +0.000 A 
ATOM      6  C   UNL     1       2.408   5.337  18.743  0.00  0.00    +0.000 A 
ATOM      7  C   UNL     1       1.861   4.850  19.952  0.00  0.00    +0.000 A 
ATOM      8  N   UNL     1       1.545   5.823  20.804  0.00  0.00    +0.000 NA
ATOM      9  N   UNL     1       1.864   6.946  20.138  0.00  0.00    +0.000 N 
ATOM     10  C   UNL     1       1.672   8.227  20.776  0.00  0.00    +0.000 C 
ENDBRANCH   3   6
ENDBRANCH   1   3
BRANCH   1  11
ATOM     11  C   UNL     1       4.836   3.536  16.418  0.00  0.00    +0.000 C 
BRANCH  11  12
ATOM     12  C   UNL     1       5.901   4.255  15.646  0.00  0.00    +0.000 A 
ATOM     13  C   UNL     1       6.802   5.214  16.166  0.00  0.00    +0.000 A 
ATOM     14  N   UNL     1       7.618   5.714  15.245  0.00  0.00    +0.000 NA
ATOM     15  N   UNL     1       7.275   5.060  14.117  0.00  0.00    +0.000 N 
ATOM     16  C   UNL     1       8.003   5.397  12.920  0.00  0.00    +0.000 C 
ATOM     17  C   UNL     1       6.261   4.149  14.306  0.00  0.00    +0.000 A 
BRANCH  17  18
ATOM     18  C   UNL     1       5.591   3.182  13.327  0.00  0.00    +0.000 C 
ATOM     19  C   UNL     1       6.137   2.965  11.934  0.00  0.00    +0.000 C 
ATOM     20  C   UNL     1       4.861   3.714  12.115  0.00  0.00    +0.000 C 
ENDBRANCH  17  18
ENDBRANCH  11  12
ENDBRANCH   1  11
TORSDOF 5
ENDMDL
MODEL 7
REMARK VINA RESULT:      -6.5      3.489      7.799
REMARK  Name = 
REMARK  9 active torsions:
REMARK  status: ('A' for Active; 'I' for Inactive)
REMARK    1  A    between atoms: C_1  and  C_2
REMARK    2  A    between atoms: C_3  and  C_4
REMARK    3  A    between atoms: C_4  and  N_5
REMARK    4  A    between atoms: N_5  and  C_6
REMARK    5  A    between atoms: N_5  and  C_7
REMARK    6  A    between atoms: C_7  and  C_8
REMARK    7  A    between atoms: N_11  and  C_12
REMARK    8  A    between atoms: C_13  and  C_14
REMARK    9  A    between atoms: N_19  and  C_20
REMARK                            x       y       z     vdW  Elec       q    Type
REMARK                         _______ _______ _______ _____ _____    ______ ____
ROOT
ATOM      1  N   UNL     1       3.063   5.797  18.798  0.00  0.00    +0.000 NA
ATOM      2  C   UNL     1       2.268   4.588  18.589  0.00  0.00    +0.000 C 
ENDROOT
BRANCH   1   3
ATOM      3  C   UNL     1       4.482   5.497  19.073  0.00  0.00    +0.000 C 
BRANCH   3   6
ATOM      4  C   UNL     1       4.858   3.530  16.444  0.00  0.00    +0.000 C 
ATOM      5  C   UNL     1       5.512   4.818  16.787  0.00  0.00    +0.000 A 
ATOM      6  C   UNL     1       5.370   5.654  17.887  0.00  0.00    +0.000 A 
ATOM      7  C   UNL     1       6.243   6.732  17.616  0.00  0.00    +0.000 A 
ATOM      8  N   UNL     1       6.917   6.577  16.478  0.00  0.00    +0.000 NA
ATOM      9  N   UNL     1       6.463   5.408  15.996  0.00  0.00    +0.000 N 
ATOM     10  C   UNL     1       6.998   4.898  14.755  0.00  0.00    +0.000 C 
ENDBRANCH   3   6
ENDBRANCH   1   3
BRANCH   1  11
ATOM     11  C   UNL     1       2.418   6.687  19.776  0.00  0.00    +0.000 C 
BRANCH  11  12
ATOM     12  C   UNL     1       2.042   8.000  19.158  0.00  0.00    +0.000 A 
ATOM     13  C   UNL     1       2.450   8.471  17.888  0.00  0.00    +0.000 A 
ATOM     14  N   UNL     1       1.992   9.686  17.612  0.00  0.00    +0.000 NA
ATOM     15  N   UNL     1       1.251  10.008  18.692  0.00  0.00    +0.000 N 
ATOM     16  C   UNL     1       0.611  11.299  18.684  0.00  0.00    +0.000 C 
ATOM     17  C   UNL     1       1.225   9.016  19.646  0.00  0.00    +0.000 A 
BRANCH  17  18
ATOM     18  C   UNL     1       0.497   8.941  20.990  0.00  0.00    +0.000 C 
ATOM     19  C   UNL     1       0.345  10.159  21.874  0.00  0.00    +0.000 C 
ATOM     20  C   UNL     1       1.274   9.066  22.281  0.00  0.00    +0.000 C 
ENDBRANCH  17  18
ENDBRANCH  11  12
ENDBRANCH   1  11
TORSDOF 5
ENDMDL
MODEL 8
REMARK VINA RESULT:      -6.3      2.329      3.840
REMARK  Name = 
REMARK  9 active torsions:
REMARK  status: ('A' for Active; 'I' for Inactive)
REMARK    1  A    between atoms: C_1  and  C_2
REMARK    2  A    between atoms: C_3  and  C_4
REMARK    3  A    between atoms: C_4  and  N_5
REMARK    4  A    between atoms: N_5  and  C_6
REMARK    5  A    between atoms: N_5  and  C_7
REMARK    6  A    between atoms: C_7  and  C_8
REMARK    7  A    between atoms: N_11  and  C_12
REMARK    8  A    between atoms: C_13  and  C_14
REMARK    9  A    between atoms: N_19  and  C_20
REMARK                            x       y       z     vdW  Elec       q    Type
REMARK                         _______ _______ _______ _____ _____    ______ ____
ROOT
ATOM      1  N   UNL     1       3.060   3.093  18.329  0.00  0.00    +0.000 NA
ATOM      2  C   UNL     1       2.377   1.805  18.433  0.00  0.00    +0.000 C 
ENDROOT
BRANCH   1   3
ATOM      3  C   UNL     1       2.225   4.122  17.679  0.00  0.00    +0.000 C 
BRANCH   3   6
ATOM      4  C   UNL     1       1.337   4.791  20.791  0.00  0.00    +0.000 C 
ATOM      5  C   UNL     1       1.831   5.686  19.715  0.00  0.00    +0.000 A 
ATOM      6  C   UNL     1       2.204   5.424  18.403  0.00  0.00    +0.000 A 
ATOM      7  C   UNL     1       2.605   6.683  17.900  0.00  0.00    +0.000 A 
ATOM      8  N   UNL     1       2.455   7.665  18.787  0.00  0.00    +0.000 NA
ATOM      9  N   UNL     1       1.980   7.039  19.877  0.00  0.00    +0.000 N 
ATOM     10  C   UNL     1       1.672   7.811  21.058  0.00  0.00    +0.000 C 
ENDBRANCH   3   6
ENDBRANCH   1   3
BRANCH   1  11
ATOM     11  C   UNL     1       4.403   2.930  17.751  0.00  0.00    +0.000 C 
BRANCH  11  12
ATOM     12  C   UNL     1       5.323   4.034  18.179  0.00  0.00    +0.000 A 
ATOM     13  C   UNL     1       5.433   4.566  19.486  0.00  0.00    +0.000 A 
ATOM     14  N   UNL     1       6.307   5.563  19.569  0.00  0.00    +0.000 NA
ATOM     15  N   UNL     1       6.799   5.669  18.319  0.00  0.00    +0.000 N 
ATOM     16  C   UNL     1       7.792   6.689  18.092  0.00  0.00    +0.000 C 
ATOM     17  C   UNL     1       6.259   4.754  17.444  0.00  0.00    +0.000 A 
BRANCH  17  18
ATOM     18  C   UNL     1       6.545   4.498  15.962  0.00  0.00    +0.000 C 
ATOM     19  C   UNL     1       6.233   5.537  14.908  0.00  0.00    +0.000 C 
ATOM     20  C   UNL     1       5.402   4.302  14.992  0.00  0.00    +0.000 C 
ENDBRANCH  17  18
ENDBRANCH  11  12
ENDBRANCH   1  11
TORSDOF 5
ENDMDL
MODEL 9
REMARK VINA RESULT:      -6.2      2.428      3.749
REMARK  Name = 
REMARK  9 active torsions:
REMARK  status: ('A' for Active; 'I' for Inactive)
REMARK    1  A    between atoms: C_1  and  C_2
REMARK    2  A    between atoms: C_3  and  C_4
REMARK    3  A    between atoms: C_4  and  N_5
REMARK    4  A    between atoms: N_5  and  C_6
REMARK    5  A    between atoms: N_5  and  C_7
REMARK    6  A    between atoms: C_7  and  C_8
REMARK    7  A    between atoms: N_11  and  C_12
REMARK    8  A    between atoms: C_13  and  C_14
REMARK    9  A    between atoms: N_19  and  C_20
REMARK                            x       y       z     vdW  Elec       q    Type
REMARK                         _______ _______ _______ _____ _____    ______ ____
ROOT
ATOM      1  N   UNL     1       3.553   3.091  18.031  0.00  0.00    +0.000 NA
ATOM      2  C   UNL     1       3.337   1.647  17.979  0.00  0.00    +0.000 C 
ENDROOT
BRANCH   1   3
ATOM      3  C   UNL     1       2.308   3.856  17.818  0.00  0.00    +0.000 C 
BRANCH   3   6
ATOM      4  C   UNL     1       2.908   7.103  17.953  0.00  0.00    +0.000 C 
ATOM      5  C   UNL     1       2.268   6.198  18.940  0.00  0.00    +0.000 A 
ATOM      6  C   UNL     1       2.011   4.833  18.902  0.00  0.00    +0.000 A 
ATOM      7  C   UNL     1       1.360   4.570  20.129  0.00  0.00    +0.000 A 
ATOM      8  N   UNL     1       1.254   5.651  20.900  0.00  0.00    +0.000 NA
ATOM      9  N   UNL     1       1.815   6.624  20.162  0.00  0.00    +0.000 N 
ATOM     10  C   UNL     1       1.899   7.961  20.701  0.00  0.00    +0.000 C 
ENDBRANCH   3   6
ENDBRANCH   1   3
BRANCH   1  11
ATOM     11  C   UNL     1       4.676   3.486  17.167  0.00  0.00    +0.000 C 
BRANCH  11  12
ATOM     12  C   UNL     1       5.615   4.415  17.876  0.00  0.00    +0.000 A 
ATOM     13  C   UNL     1       5.788   4.515  19.277  0.00  0.00    +0.000 A 
ATOM     14  N   UNL     1       6.664   5.450  19.627  0.00  0.00    +0.000 NA
ATOM     15  N   UNL     1       7.096   5.948  18.451  0.00  0.00    +0.000 N 
ATOM     16  C   UNL     1       8.076   7.003  18.510  0.00  0.00    +0.000 C 
ATOM     17  C   UNL     1       6.515   5.343  17.360  0.00  0.00    +0.000 A 
BRANCH  17  18
ATOM     18  C   UNL     1       6.730   5.566  15.861  0.00  0.00    +0.000 C 
ATOM     19  C   UNL     1       5.631   5.294  14.858  0.00  0.00    +0.000 C 
ATOM     20  C   UNL     1       6.811   4.385  14.922  0.00  0.00    +0.000 C 
ENDBRANCH  17  18
ENDBRANCH  11  12
ENDBRANCH   1  11
TORSDOF 5
ENDMDL
