MODEL 1
REMARK VINA RESULT:      -7.2      0.000      0.000
REMARK  Name = 
REMARK  5 active torsions:
REMARK  status: ('A' for Active; 'I' for Inactive)
REMARK    1  A    between atoms: C_1  and  N_2
REMARK    2  A    between atoms: C_3  and  C_5
REMARK    3  A    between atoms: C_6  and  C_7
REMARK    4  A    between atoms: C_7  and  C_8
REMARK    5  A    between atoms: C_7  and  C_9
REMARK                            x       y       z     vdW  Elec       q    Type
REMARK                         _______ _______ _______ _____ _____    ______ ____
ROOT
ATOM      1  C   UNL     1       4.084   5.226  18.160  0.00  0.00    +0.000 A 
ATOM      2  C   UNL     1       4.631   5.851  17.047  0.00  0.00    +0.000 A 
ATOM      3  O   UNL     1       4.109   7.107  16.908  0.00  0.00    +0.000 OA
ATOM      4  C   UNL     1       3.242   7.312  17.937  0.00  0.00    +0.000 A 
ATOM      5  N   UNL     1       2.596   8.474  18.131  0.00  0.00    +0.000 NA
ATOM      6  C   UNL     1       1.789   8.519  19.211  0.00  0.00    +0.000 A 
ATOM      7  N   UNL     1       1.154   9.710  19.502  0.00  0.00    +0.000 N 
ATOM      8  C   UNL     1      -0.117   9.808  20.202  0.00  0.00    +0.000 C 
ATOM      9  C   UNL     1      -0.852  10.913  19.452  0.00  0.00    +0.000 C 
ATOM     10  C   UNL     1       0.268  11.840  19.011  0.00  0.00    +0.000 C 
ATOM     11  C   UNL     1       1.421  10.893  18.687  0.00  0.00    +0.000 C 
ATOM     12  C   UNL     1       1.627   7.418  20.058  0.00  0.00    +0.000 A 
ATOM     13  C   UNL     1       2.320   6.225  19.837  0.00  0.00    +0.000 A 
ATOM     14  C   UNL     1       3.169   6.170  18.723  0.00  0.00    +0.000 A 
ENDROOT
BRANCH   1  17
ATOM     15  C   UNL     1       3.780   1.550  18.733  0.00  0.00    +0.000 C 
ATOM     16  N   UNL     1       3.591   2.902  18.276  0.00  0.00    +0.000 N 
ATOM     17  C   UNL     1       4.453   3.907  18.655  0.00  0.00    +0.000 C 
ATOM     18  O   UNL     1       5.440   3.712  19.348  0.00  0.00    +0.000 OA
ATOM     19  H   UNL     1       2.960   3.072  17.507  0.00  0.00    +0.000 HD
ENDBRANCH   1  17
BRANCH   2  20
ATOM     20  C   UNL     1       5.638   5.433  16.015  0.00  0.00    +0.000 C 
ATOM     21  C   UNL     1       7.032   5.292  16.626  0.00  0.00    +0.000 C 
ATOM     22  C   UNL     1       5.220   4.137  15.323  0.00  0.00    +0.000 C 
ENDBRANCH   2  20
TORSDOF 2
ENDMDL
MODEL 2
REMARK VINA RESULT:      -7.2      1.884      3.308
REMARK  Name = 
REMARK  5 active torsions:
REMARK  status: ('A' for Active; 'I' for Inactive)
REMARK    1  A    between atoms: C_1  and  N_2
REMARK    2  A    between atoms: C_3  and  C_5
REMARK    3  A    between atoms: C_6  and  C_7
REMARK    4  A    between atoms: C_7  and  C_8
REMARK    5  A    between atoms: C_7  and  C_9
REMARK                            x       y       z     vdW  Elec       q    Type
REMARK                         _______ _______ _______ _____ _____    ______ ____
ROOT
ATOM      1  C   UNL     1       3.324   5.283  18.565  0.00  0.00    +0.000 A 
ATOM      2  C   UNL     1       2.814   4.711  19.723  0.00  0.00    +0.000 A 
ATOM      3  O   UNL     1       2.091   5.634  20.425  0.00  0.00    +0.000 OA
ATOM      4  C   UNL     1       2.109   6.799  19.720  0.00  0.00    +0.000 A 
ATOM      5  N   UNL     1       1.442   7.900  20.105  0.00  0.00    +0.000 NA
ATOM      6  C   UNL     1       1.547   8.963  19.282  0.00  0.00    +0.000 A 
ATOM      7  N   UNL     1       0.826  10.099  19.588  0.00  0.00    +0.000 N 
ATOM      8  C   UNL     1       1.224  11.446  19.208  0.00  0.00    +0.000 C 
ATOM      9  C   UNL     1       0.890  12.278  20.441  0.00  0.00    +0.000 C 
ATOM     10  C   UNL     1      -0.334  11.581  21.010  0.00  0.00    +0.000 C 
ATOM     11  C   UNL     1      -0.071  10.101  20.740  0.00  0.00    +0.000 C 
ATOM     12  C   UNL     1       2.316   8.919  18.114  0.00  0.00    +0.000 A 
ATOM     13  C   UNL     1       2.991   7.756  17.733  0.00  0.00    +0.000 A 
ATOM     14  C   UNL     1       2.881   6.642  18.576  0.00  0.00    +0.000 A 
ENDROOT
BRANCH   1  17
ATOM     15  C   UNL     1       6.316   4.315  16.552  0.00  0.00    +0.000 C 
ATOM     16  N   UNL     1       5.433   4.878  17.540  0.00  0.00    +0.000 N 
ATOM     17  C   UNL     1       4.087   4.581  17.542  0.00  0.00    +0.000 C 
ATOM     18  O   UNL     1       3.576   3.800  16.753  0.00  0.00    +0.000 OA
ATOM     19  H   UNL     1       5.831   5.313  18.358  0.00  0.00    +0.000 HD
ENDBRANCH   1  17
BRANCH   2  20
ATOM     20  C   UNL     1       2.898   3.338  20.325  0.00  0.00    +0.000 C 
ATOM     21  C   UNL     1       2.332   3.319  21.745  0.00  0.00    +0.000 C 
ATOM     22  C   UNL     1       2.193   2.303  19.450  0.00  0.00    +0.000 C 
ENDBRANCH   2  20
TORSDOF 2
ENDMDL
MODEL 3
REMARK VINA RESULT:      -7.0      1.692      3.162
REMARK  Name = 
REMARK  5 active torsions:
REMARK  status: ('A' for Active; 'I' for Inactive)
REMARK    1  A    between atoms: C_1  and  N_2
REMARK    2  A    between atoms: C_3  and  C_5
REMARK    3  A    between atoms: C_6  and  C_7
REMARK    4  A    between atoms: C_7  and  C_8
REMARK    5  A    between atoms: C_7  and  C_9
REMARK                            x       y       z     vdW  Elec       q    Type
REMARK                         _______ _______ _______ _____ _____    ______ ____
ROOT
ATOM      1  C   UNL     1       4.062   5.107  18.084  0.00  0.00    +0.000 A 
ATOM      2  C   UNL     1       3.697   4.325  19.171  0.00  0.00    +0.000 A 
ATOM      3  O   UNL     1       2.879   5.032  20.007  0.00  0.00    +0.000 OA
ATOM      4  C   UNL     1       2.692   6.265  19.459  0.00  0.00    +0.000 A 
ATOM      5  N   UNL     1       1.889   7.194  20.002  0.00  0.00    +0.000 NA
ATOM      6  C   UNL     1       1.797   8.355  19.322  0.00  0.00    +0.000 A 
ATOM      7  N   UNL     1       0.931   9.322  19.794  0.00  0.00    +0.000 N 
ATOM      8  C   UNL     1       1.108  10.750  19.582  0.00  0.00    +0.000 C 
ATOM      9  C   UNL     1       0.713  11.361  20.922  0.00  0.00    +0.000 C 
ATOM     10  C   UNL     1      -0.367  10.420  21.429  0.00  0.00    +0.000 C 
ATOM     11  C   UNL     1       0.099   9.043  20.961  0.00  0.00    +0.000 C 
ATOM     12  C   UNL     1       2.509   8.575  18.138  0.00  0.00    +0.000 A 
ATOM     13  C   UNL     1       3.329   7.586  17.590  0.00  0.00    +0.000 A 
ATOM     14  C   UNL     1       3.425   6.372  18.284  0.00  0.00    +0.000 A 
ENDROOT
BRANCH   1  17
ATOM     15  C   UNL     1       7.113   4.738  15.963  0.00  0.00    +0.000 C 
ATOM     16  N   UNL     1       6.193   5.045  17.027  0.00  0.00    +0.000 N 
ATOM     17  C   UNL     1       4.871   4.664  16.956  0.00  0.00    +0.000 C 
ATOM     18  O   UNL     1       4.414   4.012  16.029  0.00  0.00    +0.000 OA
ATOM     19  H   UNL     1       6.561   5.344  17.918  0.00  0.00    +0.000 HD
ENDBRANCH   1  17
BRANCH   2  20
ATOM     20  C   UNL     1       4.011   2.916  19.586  0.00  0.00    +0.000 C 
ATOM     21  C   UNL     1       3.480   2.620  20.988  0.00  0.00    +0.000 C 
ATOM     22  C   UNL     1       3.466   1.905  18.579  0.00  0.00    +0.000 C 
ENDBRANCH   2  20
TORSDOF 2
ENDMDL
MODEL 4
REMARK VINA RESULT:      -6.9      1.229      1.467
REMARK  Name = 
REMARK  5 active torsions:
REMARK  status: ('A' for Active; 'I' for Inactive)
REMARK    1  A    between atoms: C_1  and  N_2
REMARK    2  A    between atoms: C_3  and  C_5
REMARK    3  A    between atoms: C_6  and  C_7
REMARK    4  A    between atoms: C_7  and  C_8
REMARK    5  A    between atoms: C_7  and  C_9
REMARK                            x       y       z     vdW  Elec       q    Type
REMARK                         _______ _______ _______ _____ _____    ______ ____
ROOT
ATOM      1  C   UNL     1       3.988   4.217  18.087  0.00  0.00    +0.000 A 
ATOM      2  C   UNL     1       4.694   4.702  16.994  0.00  0.00    +0.000 A 
ATOM      3  O   UNL     1       4.393   6.019  16.786  0.00  0.00    +0.000 OA
ATOM      4  C   UNL     1       3.512   6.401  17.752  0.00  0.00    +0.000 A 
ATOM      5  N   UNL     1       3.054   7.658  17.871  0.00  0.00    +0.000 NA
ATOM      6  C   UNL     1       2.203   7.875  18.895  0.00  0.00    +0.000 A 
ATOM      7  N   UNL     1       1.756   9.162  19.111  0.00  0.00    +0.000 N 
ATOM      8  C   UNL     1       0.478   9.491  19.725  0.00  0.00    +0.000 C 
ATOM      9  C   UNL     1      -0.022  10.670  18.898  0.00  0.00    +0.000 C 
ATOM     10  C   UNL     1       1.259  11.387  18.504  0.00  0.00    +0.000 C 
ATOM     11  C   UNL     1       2.259  10.254  18.281  0.00  0.00    +0.000 C 
ATOM     12  C   UNL     1       1.815   6.847  19.761  0.00  0.00    +0.000 A 
ATOM     13  C   UNL     1       2.315   5.551  19.619  0.00  0.00    +0.000 A 
ATOM     14  C   UNL     1       3.208   5.317  18.564  0.00  0.00    +0.000 A 
ENDROOT
BRANCH   1  17
ATOM     15  C   UNL     1       5.053   1.561  20.484  0.00  0.00    +0.000 C 
ATOM     16  N   UNL     1       4.795   2.819  19.835  0.00  0.00    +0.000 N 
ATOM     17  C   UNL     1       4.107   2.876  18.642  0.00  0.00    +0.000 C 
ATOM     18  O   UNL     1       3.639   1.889  18.096  0.00  0.00    +0.000 OA
ATOM     19  H   UNL     1       4.924   3.673  20.358  0.00  0.00    +0.000 HD
ENDBRANCH   1  17
BRANCH   2  20
ATOM     20  C   UNL     1       5.678   4.088  16.041  0.00  0.00    +0.000 C 
ATOM     21  C   UNL     1       5.388   4.507  14.599  0.00  0.00    +0.000 C 
ATOM     22  C   UNL     1       7.115   4.437  16.424  0.00  0.00    +0.000 C 
ENDBRANCH   2  20
TORSDOF 2
ENDMDL
MODEL 5
REMARK VINA RESULT:      -6.9      2.535      7.632
REMARK  Name = 
REMARK  5 active torsions:
REMARK  status: ('A' for Active; 'I' for Inactive)
REMARK    1  A    between atoms: C_1  and  N_2
REMARK    2  A    between atoms: C_3  and  C_5
REMARK    3  A    between atoms: C_6  and  C_7
REMARK    4  A    between atoms: C_7  and  C_8
REMARK    5  A    between atoms: C_7  and  C_9
REMARK                            x       y       z     vdW  Elec       q    Type
REMARK                         _______ _______ _______ _____ _____    ______ ____
ROOT
ATOM      1  C   UNL     1       0.654  10.173  19.579  0.00  0.00    +0.000 A 
ATOM      2  C   UNL     1       0.310   9.691  20.835  0.00  0.00    +0.000 A 
ATOM      3  O   UNL     1       0.864   8.458  21.034  0.00  0.00    +0.000 OA
ATOM      4  C   UNL     1       1.584   8.142  19.923  0.00  0.00    +0.000 A 
ATOM      5  N   UNL     1       2.306   7.014  19.812  0.00  0.00    +0.000 NA
ATOM      6  C   UNL     1       2.979   6.864  18.653  0.00  0.00    +0.000 A 
ATOM      7  N   UNL     1       3.796   5.760  18.511  0.00  0.00    +0.000 N 
ATOM      8  C   UNL     1       4.113   5.138  17.235  0.00  0.00    +0.000 C 
ATOM      9  C   UNL     1       4.064   3.646  17.543  0.00  0.00    +0.000 C 
ATOM     10  C   UNL     1       4.540   3.572  18.984  0.00  0.00    +0.000 C 
ATOM     11  C   UNL     1       3.960   4.831  19.626  0.00  0.00    +0.000 C 
ATOM     12  C   UNL     1       2.911   7.817  17.631  0.00  0.00    +0.000 A 
ATOM     13  C   UNL     1       2.160   8.986  17.778  0.00  0.00    +0.000 A 
ATOM     14  C   UNL     1       1.464   9.157  18.982  0.00  0.00    +0.000 A 
ENDROOT
BRANCH   1  17
ATOM     15  C   UNL     1       1.137  13.746  18.611  0.00  0.00    +0.000 C 
ATOM     16  N   UNL     1       1.337  12.389  19.046  0.00  0.00    +0.000 N 
ATOM     17  C   UNL     1       0.299  11.483  19.050  0.00  0.00    +0.000 C 
ATOM     18  O   UNL     1      -0.823  11.753  18.647  0.00  0.00    +0.000 OA
ATOM     19  H   UNL     1       2.280  12.041  19.139  0.00  0.00    +0.000 HD
ENDBRANCH   1  17
BRANCH   2  20
ATOM     20  C   UNL     1      -0.513  10.239  21.965  0.00  0.00    +0.000 C 
ATOM     21  C   UNL     1      -0.172   9.547  23.286  0.00  0.00    +0.000 C 
ATOM     22  C   UNL     1      -0.346  11.752  22.092  0.00  0.00    +0.000 C 
ENDBRANCH   2  20
TORSDOF 2
ENDMDL
MODEL 6
REMARK VINA RESULT:      -6.8      2.187      6.810
REMARK  Name = 
REMARK  5 active torsions:
REMARK  status: ('A' for Active; 'I' for Inactive)
REMARK    1  A    between atoms: C_1  and  N_2
REMARK    2  A    between atoms: C_3  and  C_5
REMARK    3  A    between atoms: C_6  and  C_7
REMARK    4  A    between atoms: C_7  and  C_8
REMARK    5  A    between atoms: C_7  and  C_9
REMARK                            x       y       z     vdW  Elec       q    Type
REMARK                         _______ _______ _______ _____ _____    ______ ____
ROOT
ATOM      1  C   UNL     1       1.190   8.545  20.035  0.00  0.00    +0.000 A 
ATOM      2  C   UNL     1       1.167   9.479  19.008  0.00  0.00    +0.000 A 
ATOM      3  O   UNL     1       2.044   9.118  18.024  0.00  0.00    +0.000 OA
ATOM      4  C   UNL     1       2.622   7.942  18.394  0.00  0.00    +0.000 A 
ATOM      5  N   UNL     1       3.496   7.279  17.619  0.00  0.00    +0.000 NA
ATOM      6  C   UNL     1       3.960   6.118  18.125  0.00  0.00    +0.000 A 
ATOM      7  N   UNL     1       4.805   5.357  17.343  0.00  0.00    +0.000 N 
ATOM      8  C   UNL     1       5.813   4.451  17.873  0.00  0.00    +0.000 C 
ATOM      9  C   UNL     1       7.009   4.670  16.952  0.00  0.00    +0.000 C 
ATOM     10  C   UNL     1       6.364   4.982  15.612  0.00  0.00    +0.000 C 
ATOM     11  C   UNL     1       5.120   5.787  15.983  0.00  0.00    +0.000 C 
ATOM     12  C   UNL     1       3.563   5.650  19.382  0.00  0.00    +0.000 A 
ATOM     13  C   UNL     1       2.644   6.356  20.162  0.00  0.00    +0.000 A 
ATOM     14  C   UNL     1       2.149   7.560  19.642  0.00  0.00    +0.000 A 
ENDROOT
BRANCH   1  17
ATOM     15  C   UNL     1       0.057   9.542  23.450  0.00  0.00    +0.000 C 
ATOM     16  N   UNL     1       0.755   9.444  22.195  0.00  0.00    +0.000 N 
ATOM     17  C   UNL     1       0.338   8.567  21.217  0.00  0.00    +0.000 C 
ATOM     18  O   UNL     1      -0.657   7.867  21.329  0.00  0.00    +0.000 OA
ATOM     19  H   UNL     1       1.412  10.168  21.945  0.00  0.00    +0.000 HD
ENDBRANCH   1  17
BRANCH   2  20
ATOM     20  C   UNL     1       0.400  10.750  18.780  0.00  0.00    +0.000 C 
ATOM     21  C   UNL     1      -1.105  10.524  18.929  0.00  0.00    +0.000 C 
ATOM     22  C   UNL     1       0.873  11.860  19.716  0.00  0.00    +0.000 C 
ENDBRANCH   2  20
TORSDOF 2
ENDMDL
MODEL 7
REMARK VINA RESULT:      -6.7      2.537      7.548
REMARK  Name = 
REMARK  5 active torsions:
REMARK  status: ('A' for Active; 'I' for Inactive)
REMARK    1  A    between atoms: C_1  and  N_2
REMARK    2  A    between atoms: C_3  and  C_5
REMARK    3  A    between atoms: C_6  and  C_7
REMARK    4  A    between atoms: C_7  and  C_8
REMARK    5  A    between atoms: C_7  and  C_9
REMARK                            x       y       z     vdW  Elec       q    Type
REMARK                         _______ _______ _______ _____ _____    ______ ____
ROOT
ATOM      1  C   UNL     1       1.037  10.151  19.763  0.00  0.00    +0.000 A 
ATOM      2  C   UNL     1       0.761   9.748  21.063  0.00  0.00    +0.000 A 
ATOM      3  O   UNL     1       1.171   8.458  21.252  0.00  0.00    +0.000 OA
ATOM      4  C   UNL     1       1.732   8.026  20.089  0.00  0.00    +0.000 A 
ATOM      5  N   UNL     1       2.291   6.812  19.951  0.00  0.00    +0.000 NA
ATOM      6  C   UNL     1       2.822   6.549  18.740  0.00  0.00    +0.000 A 
ATOM      7  N   UNL     1       3.474   5.346  18.560  0.00  0.00    +0.000 N 
ATOM      8  C   UNL     1       3.583   4.659  17.282  0.00  0.00    +0.000 C 
ATOM      9  C   UNL     1       3.376   3.193  17.647  0.00  0.00    +0.000 C 
ATOM     10  C   UNL     1       3.979   3.092  19.038  0.00  0.00    +0.000 C 
ATOM     11  C   UNL     1       3.630   4.429  19.687  0.00  0.00    +0.000 C 
ATOM     12  C   UNL     1       2.775   7.479  17.695  0.00  0.00    +0.000 A 
ATOM     13  C   UNL     1       2.196   8.738  17.871  0.00  0.00    +0.000 A 
ATOM     14  C   UNL     1       1.649   9.026  19.129  0.00  0.00    +0.000 A 
ENDROOT
BRANCH   1  17
ATOM     15  C   UNL     1      -0.699  12.827  17.822  0.00  0.00    +0.000 C 
ATOM     16  N   UNL     1      -0.352  11.592  18.476  0.00  0.00    +0.000 N 
ATOM     17  C   UNL     1       0.800  11.484  19.224  0.00  0.00    +0.000 C 
ATOM     18  O   UNL     1       1.559  12.421  19.418  0.00  0.00    +0.000 OA
ATOM     19  H   UNL     1      -1.056  10.875  18.568  0.00  0.00    +0.000 HD
ENDBRANCH   1  17
BRANCH   2  20
ATOM     20  C   UNL     1       0.129  10.423  22.246  0.00  0.00    +0.000 C 
ATOM     21  C   UNL     1      -1.164  11.137  21.851  0.00  0.00    +0.000 C 
ATOM     22  C   UNL     1      -0.128   9.433  23.380  0.00  0.00    +0.000 C 
ENDBRANCH   2  20
TORSDOF 2
ENDMDL
MODEL 8
REMARK VINA RESULT:      -6.6      1.576      3.054
REMARK  Name = 
REMARK  5 active torsions:
REMARK  status: ('A' for Active; 'I' for Inactive)
REMARK    1  A    between atoms: C_1  and  N_2
REMARK    2  A    between atoms: C_3  and  C_5
REMARK    3  A    between atoms: C_6  and  C_7
REMARK    4  A    between atoms: C_7  and  C_8
REMARK    5  A    between atoms: C_7  and  C_9
REMARK                            x       y       z     vdW  Elec       q    Type
REMARK                         _______ _______ _______ _____ _____    ______ ____
ROOT
ATOM      1  C   UNL     1       4.078   5.676  17.469  0.00  0.00    +0.000 A 
ATOM      2  C   UNL     1       3.826   4.642  18.361  0.00  0.00    +0.000 A 
ATOM      3  O   UNL     1       3.010   5.077  19.368  0.00  0.00    +0.000 OA
ATOM      4  C   UNL     1       2.711   6.383  19.124  0.00  0.00    +0.000 A 
ATOM      5  N   UNL     1       1.879   7.102  19.896  0.00  0.00    +0.000 NA
ATOM      6  C   UNL     1       1.673   8.375  19.504  0.00  0.00    +0.000 A 
ATOM      7  N   UNL     1       0.772   9.140  20.217  0.00  0.00    +0.000 N 
ATOM      8  C   UNL     1       0.841  10.589  20.330  0.00  0.00    +0.000 C 
ATOM      9  C   UNL     1       0.480  10.850  21.789  0.00  0.00    +0.000 C 
ATOM     10  C   UNL     1      -0.505   9.737  22.108  0.00  0.00    +0.000 C 
ATOM     11  C   UNL     1       0.025   8.542  21.320  0.00  0.00    +0.000 C 
ATOM     12  C   UNL     1       2.302   8.911  18.375  0.00  0.00    +0.000 A 
ATOM     13  C   UNL     1       3.155   8.137  17.584  0.00  0.00    +0.000 A 
ATOM     14  C   UNL     1       3.370   6.809  17.978  0.00  0.00    +0.000 A 
ENDROOT
BRANCH   1  17
ATOM     15  C   UNL     1       5.980   3.986  14.737  0.00  0.00    +0.000 C 
ATOM     16  N   UNL     1       5.168   4.267  15.892  0.00  0.00    +0.000 N 
ATOM     17  C   UNL     1       4.852   5.562  16.240  0.00  0.00    +0.000 C 
ATOM     18  O   UNL     1       5.192   6.532  15.579  0.00  0.00    +0.000 OA
ATOM     19  H   UNL     1       4.650   3.513  16.318  0.00  0.00    +0.000 HD
ENDBRANCH   1  17
BRANCH   2  20
ATOM     20  C   UNL     1       4.256   3.205  18.431  0.00  0.00    +0.000 C 
ATOM     21  C   UNL     1       4.574   2.791  19.868  0.00  0.00    +0.000 C 
ATOM     22  C   UNL     1       3.204   2.280  17.824  0.00  0.00    +0.000 C 
ENDBRANCH   2  20
TORSDOF 2
ENDMDL
MODEL 9
REMARK VINA RESULT:      -6.5      1.266      1.474
REMARK  Name = 
REMARK  5 active torsions:
REMARK  status: ('A' for Active; 'I' for Inactive)
REMARK    1  A    between atoms: C_1  and  N_2
REMARK    2  A    between atoms: C_3  and  C_5
REMARK    3  A    between atoms: C_6  and  C_7
REMARK    4  A    between atoms: C_7  and  C_8
REMARK    5  A    between atoms: C_7  and  C_9
REMARK                            x       y       z     vdW  Elec       q    Type
REMARK                         _______ _______ _______ _____ _____    ______ ____
ROOT
ATOM      1  C   UNL     1       3.344   5.497  19.087  0.00  0.00    +0.000 A 
ATOM      2  C   UNL     1       3.889   5.918  17.882  0.00  0.00    +0.000 A 
ATOM      3  O   UNL     1       3.436   7.170  17.572  0.00  0.00    +0.000 OA
ATOM      4  C   UNL     1       2.615   7.575  18.580  0.00  0.00    +0.000 A 
ATOM      5  N   UNL     1       2.043   8.790  18.617  0.00  0.00    +0.000 NA
ATOM      6  C   UNL     1       1.274   9.041  19.696  0.00  0.00    +0.000 A 
ATOM      7  N   UNL     1       0.718  10.298  19.824  0.00  0.00    +0.000 N 
ATOM      8  C   UNL     1      -0.523  10.573  20.532  0.00  0.00    +0.000 C 
ATOM      9  C   UNL     1      -1.218  11.601  19.645  0.00  0.00    +0.000 C 
ATOM     10  C   UNL     1      -0.061  12.383  19.047  0.00  0.00    +0.000 C 
ATOM     11  C   UNL     1       1.025  11.331  18.838  0.00  0.00    +0.000 C 
ATOM     12  C   UNL     1       1.078   8.086  20.700  0.00  0.00    +0.000 A 
ATOM     13  C   UNL     1       1.694   6.834  20.641  0.00  0.00    +0.000 A 
ATOM     14  C   UNL     1       2.502   6.566  19.527  0.00  0.00    +0.000 A 
ENDROOT
BRANCH   1  17
ATOM     15  C   UNL     1       2.757   2.506  21.243  0.00  0.00    +0.000 C 
ATOM     16  N   UNL     1       2.599   3.710  20.470  0.00  0.00    +0.000 N 
ATOM     17  C   UNL     1       3.653   4.244  19.762  0.00  0.00    +0.000 C 
ATOM     18  O   UNL     1       4.753   3.715  19.705  0.00  0.00    +0.000 OA
ATOM     19  H   UNL     1       1.667   4.041  20.270  0.00  0.00    +0.000 HD
ENDBRANCH   1  17
BRANCH   2  20
ATOM     20  C   UNL     1       4.837   5.294  16.899  0.00  0.00    +0.000 C 
ATOM     21  C   UNL     1       4.259   4.006  16.312  0.00  0.00    +0.000 C 
ATOM     22  C   UNL     1       5.208   6.273  15.786  0.00  0.00    +0.000 C 
ENDBRANCH   2  20
TORSDOF 2
ENDMDL
