MODEL 1
REMARK VINA RESULT:      -7.9      0.000      0.000
REMARK  Name = 
REMARK  2 active torsions:
REMARK  status: ('A' for Active; 'I' for Inactive)
REMARK    1  A    between atoms: C_2  and  C_10
REMARK    2  A    between atoms: N_3  and  C_4
REMARK                            x       y       z     vdW  Elec       q    Type
REMARK                         _______ _______ _______ _____ _____    ______ ____
ROOT
ATOM      1  C   UNL     1       2.591   8.243  18.189  0.00  0.00    +0.000 A 
ATOM      2  C   UNL     1       3.609   7.988  17.261  0.00  0.00    +0.000 A 
ATOM      3  C   UNL     1       4.342   6.796  17.325  0.00  0.00    +0.000 A 
ATOM      4  C   UNL     1       4.026   5.858  18.319  0.00  0.00    +0.000 A 
ATOM      5  N   UNL     1       4.572   4.629  18.548  0.00  0.00    +0.000 NA
ATOM      6  C   UNL     1       3.862   4.085  19.524  0.00  0.00    +0.000 A 
ATOM      7  N   UNL     1       2.950   4.995  20.004  0.00  0.00    +0.000 N 
ATOM      8  C   UNL     1       3.010   6.129  19.227  0.00  0.00    +0.000 A 
ATOM      9  C   UNL     1       2.286   7.326  19.209  0.00  0.00    +0.000 A 
ATOM     10  C   UNL     1       2.051   4.767  21.112  0.00  0.00    +0.000 C 
ATOM     11  C   UNL     1       1.128   3.589  20.846  0.00  0.00    +0.000 C 
ATOM     12  C   UNL     1       1.835   2.264  21.069  0.00  0.00    +0.000 C 
ATOM     13  N   UNL     1       2.908   1.933  20.158  0.00  0.00    +0.000 N 
ATOM     14  C   UNL     1       4.032   2.693  19.899  0.00  0.00    +0.000 C 
ATOM     15  O   UNL     1       5.108   2.096  19.885  0.00  0.00    +0.000 OA
ATOM     16  H   UNL     1       3.205   0.965  20.214  0.00  0.00    +0.000 HD
ENDROOT
BRANCH   1  18
ATOM     17  O   UNL     1       2.210  10.413  17.430  0.00  0.00    +0.000 OA
ATOM     18  C   UNL     1       1.795   9.498  18.132  0.00  0.00    +0.000 C 
ATOM     19  N   UNL     1       0.687   9.521  18.959  0.00  0.00    +0.000 N 
ATOM     20  H   UNL     1       0.589   8.761  19.620  0.00  0.00    +0.000 HD
BRANCH  19  21
ATOM     21  C   UNL     1      -0.225  10.589  19.096  0.00  0.00    +0.000 A 
ATOM     22  C   UNL     1      -1.405  10.706  18.367  0.00  0.00    +0.000 A 
ATOM     23  C   UNL     1      -2.230  11.814  18.553  0.00  0.00    +0.000 A 
ATOM     24  C   UNL     1      -1.849  12.774  19.474  0.00  0.00    +0.000 A 
ATOM     25  N   UNL     1      -0.728  12.690  20.221  0.00  0.00    +0.000 NA
ATOM     26  C   UNL     1       0.051  11.600  20.017  0.00  0.00    +0.000 A 
ENDBRANCH  19  21
ENDBRANCH   1  18
TORSDOF 2
ENDMDL
MODEL 2
REMARK VINA RESULT:      -7.8      2.907      3.676
REMARK  Name = 
REMARK  2 active torsions:
REMARK  status: ('A' for Active; 'I' for Inactive)
REMARK    1  A    between atoms: C_2  and  C_10
REMARK    2  A    between atoms: N_3  and  C_4
REMARK                            x       y       z     vdW  Elec       q    Type
REMARK                         _______ _______ _______ _____ _____    ______ ____
ROOT
ATOM      1  C   UNL     1       0.765   9.610  20.995  0.00  0.00    +0.000 A 
ATOM      2  C   UNL     1       0.999  10.230  19.761  0.00  0.00    +0.000 A 
ATOM      3  C   UNL     1       1.609   9.522  18.717  0.00  0.00    +0.000 A 
ATOM      4  C   UNL     1       1.963   8.181  18.925  0.00  0.00    +0.000 A 
ATOM      5  N   UNL     1       2.526   7.295  18.053  0.00  0.00    +0.000 NA
ATOM      6  C   UNL     1       2.560   6.130  18.681  0.00  0.00    +0.000 A 
ATOM      7  N   UNL     1       2.140   6.286  19.981  0.00  0.00    +0.000 N 
ATOM      8  C   UNL     1       1.719   7.584  20.155  0.00  0.00    +0.000 A 
ATOM      9  C   UNL     1       1.144   8.276  21.226  0.00  0.00    +0.000 A 
ATOM     10  C   UNL     1       2.108   5.238  20.976  0.00  0.00    +0.000 C 
ATOM     11  C   UNL     1       1.208   4.091  20.547  0.00  0.00    +0.000 C 
ATOM     12  C   UNL     1       1.895   3.191  19.536  0.00  0.00    +0.000 C 
ATOM     13  N   UNL     1       2.181   3.763  18.239  0.00  0.00    +0.000 N 
ATOM     14  C   UNL     1       2.915   4.906  17.988  0.00  0.00    +0.000 C 
ATOM     15  O   UNL     1       3.752   4.834  17.088  0.00  0.00    +0.000 OA
ATOM     16  H   UNL     1       2.443   3.076  17.540  0.00  0.00    +0.000 HD
ENDROOT
BRANCH   1  18
ATOM     17  O   UNL     1       0.280   9.929  23.252  0.00  0.00    +0.000 OA
ATOM     18  C   UNL     1       0.110  10.342  22.112  0.00  0.00    +0.000 C 
ATOM     19  N   UNL     1      -0.702  11.391  21.720  0.00  0.00    +0.000 N 
ATOM     20  H   UNL     1      -0.889  11.485  20.730  0.00  0.00    +0.000 HD
BRANCH  19  21
ATOM     21  C   UNL     1      -1.437  12.237  22.578  0.00  0.00    +0.000 A 
ATOM     22  C   UNL     1      -2.697  11.930  23.084  0.00  0.00    +0.000 A 
ATOM     23  C   UNL     1      -3.358  12.844  23.903  0.00  0.00    +0.000 A 
ATOM     24  C   UNL     1      -2.731  14.042  24.198  0.00  0.00    +0.000 A 
ATOM     25  N   UNL     1      -1.501  14.371  23.750  0.00  0.00    +0.000 NA
ATOM     26  C   UNL     1      -0.885  13.460  22.957  0.00  0.00    +0.000 A 
ENDBRANCH  19  21
ENDBRANCH   1  18
TORSDOF 2
ENDMDL
MODEL 3
REMARK VINA RESULT:      -7.8      2.438      2.912
REMARK  Name = 
REMARK  2 active torsions:
REMARK  status: ('A' for Active; 'I' for Inactive)
REMARK    1  A    between atoms: C_2  and  C_10
REMARK    2  A    between atoms: N_3  and  C_4
REMARK                            x       y       z     vdW  Elec       q    Type
REMARK                         _______ _______ _______ _____ _____    ______ ____
ROOT
ATOM      1  C   UNL     1       1.342   8.888  20.552  0.00  0.00    +0.000 A 
ATOM      2  C   UNL     1       1.578   9.339  19.247  0.00  0.00    +0.000 A 
ATOM      3  C   UNL     1       2.062   8.459  18.271  0.00  0.00    +0.000 A 
ATOM      4  C   UNL     1       2.289   7.119  18.619  0.00  0.00    +0.000 A 
ATOM      5  N   UNL     1       2.717   6.087  17.836  0.00  0.00    +0.000 NA
ATOM      6  C   UNL     1       2.662   5.002  18.593  0.00  0.00    +0.000 A 
ATOM      7  N   UNL     1       2.323   5.345  19.881  0.00  0.00    +0.000 N 
ATOM      8  C   UNL     1       2.044   6.692  19.918  0.00  0.00    +0.000 A 
ATOM      9  C   UNL     1       1.595   7.556  20.922  0.00  0.00    +0.000 A 
ATOM     10  C   UNL     1       2.233   4.424  20.990  0.00  0.00    +0.000 C 
ATOM     11  C   UNL     1       1.201   3.338  20.730  0.00  0.00    +0.000 C 
ATOM     12  C   UNL     1       1.744   2.263  19.805  0.00  0.00    +0.000 C 
ATOM     13  N   UNL     1       2.024   2.654  18.441  0.00  0.00    +0.000 N 
ATOM     14  C   UNL     1       2.857   3.677  18.033  0.00  0.00    +0.000 C 
ATOM     15  O   UNL     1       3.639   3.418  17.119  0.00  0.00    +0.000 OA
ATOM     16  H   UNL     1       2.182   1.870  17.818  0.00  0.00    +0.000 HD
ENDROOT
BRANCH   1  18
ATOM     17  O   UNL     1       1.078   9.553  22.770  0.00  0.00    +0.000 OA
ATOM     18  C   UNL     1       0.819   9.806  21.600  0.00  0.00    +0.000 C 
ATOM     19  N   UNL     1       0.013  10.825  21.128  0.00  0.00    +0.000 N 
ATOM     20  H   UNL     1      -0.261  10.784  20.154  0.00  0.00    +0.000 HD
BRANCH  19  21
ATOM     21  C   UNL     1      -0.611  11.821  21.910  0.00  0.00    +0.000 A 
ATOM     22  C   UNL     1      -1.716  11.595  22.725  0.00  0.00    +0.000 A 
ATOM     23  C   UNL     1      -2.280  12.651  23.439  0.00  0.00    +0.000 A 
ATOM     24  C   UNL     1      -1.711  13.908  23.321  0.00  0.00    +0.000 A 
ATOM     25  N   UNL     1      -0.625  14.167  22.564  0.00  0.00    +0.000 NA
ATOM     26  C   UNL     1      -0.101  13.119  21.882  0.00  0.00    +0.000 A 
ENDBRANCH  19  21
ENDBRANCH   1  18
TORSDOF 2
ENDMDL
MODEL 4
REMARK VINA RESULT:      -7.7      1.791      2.191
REMARK  Name = 
REMARK  2 active torsions:
REMARK  status: ('A' for Active; 'I' for Inactive)
REMARK    1  A    between atoms: C_2  and  C_10
REMARK    2  A    between atoms: N_3  and  C_4
REMARK                            x       y       z     vdW  Elec       q    Type
REMARK                         _______ _______ _______ _____ _____    ______ ____
ROOT
ATOM      1  C   UNL     1       1.414   9.077  19.141  0.00  0.00    +0.000 A 
ATOM      2  C   UNL     1       2.118   9.210  17.937  0.00  0.00    +0.000 A 
ATOM      3  C   UNL     1       2.933   8.168  17.476  0.00  0.00    +0.000 A 
ATOM      4  C   UNL     1       3.017   6.988  18.230  0.00  0.00    +0.000 A 
ATOM      5  N   UNL     1       3.708   5.843  17.961  0.00  0.00    +0.000 NA
ATOM      6  C   UNL     1       3.378   4.981  18.911  0.00  0.00    +0.000 A 
ATOM      7  N   UNL     1       2.583   5.598  19.848  0.00  0.00    +0.000 N 
ATOM      8  C   UNL     1       2.307   6.876  19.419  0.00  0.00    +0.000 A 
ATOM      9  C   UNL     1       1.514   7.913  19.921  0.00  0.00    +0.000 A 
ATOM     10  C   UNL     1       2.088   4.979  21.057  0.00  0.00    +0.000 C 
ATOM     11  C   UNL     1       1.230   3.763  20.747  0.00  0.00    +0.000 C 
ATOM     12  C   UNL     1       2.081   2.553  20.405  0.00  0.00    +0.000 C 
ATOM     13  N   UNL     1       2.848   2.618  19.181  0.00  0.00    +0.000 N 
ATOM     14  C   UNL     1       3.770   3.586  18.838  0.00  0.00    +0.000 C 
ATOM     15  O   UNL     1       4.837   3.188  18.370  0.00  0.00    +0.000 OA
ATOM     16  H   UNL     1       3.228   1.723  18.892  0.00  0.00    +0.000 HD
ENDROOT
BRANCH   1  18
ATOM     17  O   UNL     1      -0.169  10.760  18.834  0.00  0.00    +0.000 OA
ATOM     18  C   UNL     1       0.536  10.169  19.643  0.00  0.00    +0.000 C 
ATOM     19  N   UNL     1       0.676  10.452  20.989  0.00  0.00    +0.000 N 
ATOM     20  H   UNL     1       1.440  10.004  21.479  0.00  0.00    +0.000 HD
BRANCH  19  21
ATOM     21  C   UNL     1      -0.032  11.440  21.707  0.00  0.00    +0.000 A 
ATOM     22  C   UNL     1      -1.069  11.167  22.595  0.00  0.00    +0.000 A 
ATOM     23  C   UNL     1      -1.727  12.215  23.237  0.00  0.00    +0.000 A 
ATOM     24  C   UNL     1      -1.319  13.511  22.975  0.00  0.00    +0.000 A 
ATOM     25  N   UNL     1      -0.303  13.821  22.143  0.00  0.00    +0.000 NA
ATOM     26  C   UNL     1       0.316  12.780  21.535  0.00  0.00    +0.000 A 
ENDBRANCH  19  21
ENDBRANCH   1  18
TORSDOF 2
ENDMDL
MODEL 5
REMARK VINA RESULT:      -7.6      2.820      8.586
REMARK  Name = 
REMARK  2 active torsions:
REMARK  status: ('A' for Active; 'I' for Inactive)
REMARK    1  A    between atoms: C_2  and  C_10
REMARK    2  A    between atoms: N_3  and  C_4
REMARK                            x       y       z     vdW  Elec       q    Type
REMARK                         _______ _______ _______ _____ _____    ______ ____
ROOT
ATOM      1  C   UNL     1       1.125   8.876  20.594  0.00  0.00    +0.000 A 
ATOM      2  C   UNL     1       1.228   8.594  21.962  0.00  0.00    +0.000 A 
ATOM      3  C   UNL     1       0.528   9.367  22.898  0.00  0.00    +0.000 A 
ATOM      4  C   UNL     1      -0.288  10.412  22.440  0.00  0.00    +0.000 A 
ATOM      5  N   UNL     1      -1.081  11.261  23.156  0.00  0.00    +0.000 NA
ATOM      6  C   UNL     1      -1.736  11.991  22.267  0.00  0.00    +0.000 A 
ATOM      7  N   UNL     1      -1.284  11.705  21.000  0.00  0.00    +0.000 N 
ATOM      8  C   UNL     1      -0.379  10.671  21.079  0.00  0.00    +0.000 A 
ATOM      9  C   UNL     1       0.335   9.940  20.125  0.00  0.00    +0.000 A 
ATOM     10  C   UNL     1      -1.729  12.359  19.791  0.00  0.00    +0.000 C 
ATOM     11  C   UNL     1      -3.223  12.181  19.580  0.00  0.00    +0.000 C 
ATOM     12  C   UNL     1      -4.027  13.125  20.456  0.00  0.00    +0.000 C 
ATOM     13  N   UNL     1      -3.963  12.906  21.884  0.00  0.00    +0.000 N 
ATOM     14  C   UNL     1      -2.822  12.870  22.661  0.00  0.00    +0.000 C 
ATOM     15  O   UNL     1      -2.854  13.504  23.715  0.00  0.00    +0.000 OA
ATOM     16  H   UNL     1      -4.667  13.417  22.406  0.00  0.00    +0.000 HD
ENDROOT
BRANCH   1  18
ATOM     17  O   UNL     1       2.049   8.552  18.479  0.00  0.00    +0.000 OA
ATOM     18  C   UNL     1       1.852   8.062  19.584  0.00  0.00    +0.000 C 
ATOM     19  N   UNL     1       2.166   6.778  19.992  0.00  0.00    +0.000 N 
ATOM     20  H   UNL     1       1.765   6.460  20.865  0.00  0.00    +0.000 HD
BRANCH  19  21
ATOM     21  C   UNL     1       2.846   5.806  19.226  0.00  0.00    +0.000 A 
ATOM     22  C   UNL     1       2.265   5.087  18.185  0.00  0.00    +0.000 A 
ATOM     23  C   UNL     1       3.010   4.126  17.505  0.00  0.00    +0.000 A 
ATOM     24  C   UNL     1       4.325   3.918  17.884  0.00  0.00    +0.000 A 
ATOM     25  N   UNL     1       4.936   4.609  18.870  0.00  0.00    +0.000 NA
ATOM     26  C   UNL     1       4.184   5.536  19.511  0.00  0.00    +0.000 A 
ENDBRANCH  19  21
ENDBRANCH   1  18
TORSDOF 2
ENDMDL
MODEL 6
REMARK VINA RESULT:      -7.5      2.857      7.757
REMARK  Name = 
REMARK  2 active torsions:
REMARK  status: ('A' for Active; 'I' for Inactive)
REMARK    1  A    between atoms: C_2  and  C_10
REMARK    2  A    between atoms: N_3  and  C_4
REMARK                            x       y       z     vdW  Elec       q    Type
REMARK                         _______ _______ _______ _____ _____    ______ ____
ROOT
ATOM      1  C   UNL     1       3.323   5.345  18.537  0.00  0.00    +0.000 A 
ATOM      2  C   UNL     1       2.953   4.671  19.708  0.00  0.00    +0.000 A 
ATOM      3  C   UNL     1       2.222   5.331  20.704  0.00  0.00    +0.000 A 
ATOM      4  C   UNL     1       1.853   6.669  20.500  0.00  0.00    +0.000 A 
ATOM      5  N   UNL     1       1.118   7.492  21.303  0.00  0.00    +0.000 NA
ATOM      6  C   UNL     1       0.947   8.615  20.623  0.00  0.00    +0.000 A 
ATOM      7  N   UNL     1       1.664   8.567  19.450  0.00  0.00    +0.000 N 
ATOM      8  C   UNL     1       2.227   7.318  19.329  0.00  0.00    +0.000 A 
ATOM      9  C   UNL     1       2.987   6.694  18.334  0.00  0.00    +0.000 A 
ATOM     10  C   UNL     1       1.761   9.643  18.491  0.00  0.00    +0.000 C 
ATOM     11  C   UNL     1       0.396  10.028  17.947  0.00  0.00    +0.000 C 
ATOM     12  C   UNL     1      -0.373  10.895  18.929  0.00  0.00    +0.000 C 
ATOM     13  N   UNL     1      -0.780  10.273  20.169  0.00  0.00    +0.000 N 
ATOM     14  C   UNL     1       0.042   9.650  21.087  0.00  0.00    +0.000 C 
ATOM     15  O   UNL     1      -0.139   9.935  22.270  0.00  0.00    +0.000 OA
ATOM     16  H   UNL     1      -1.459  10.816  20.692  0.00  0.00    +0.000 HD
ENDROOT
BRANCH   1  18
ATOM     17  O   UNL     1       4.137   3.433  17.481  0.00  0.00    +0.000 OA
ATOM     18  C   UNL     1       4.091   4.658  17.464  0.00  0.00    +0.000 C 
ATOM     19  N   UNL     1       4.747   5.503  16.589  0.00  0.00    +0.000 N 
ATOM     20  H   UNL     1       4.766   6.487  16.824  0.00  0.00    +0.000 HD
BRANCH  19  21
ATOM     21  C   UNL     1       5.545   5.108  15.493  0.00  0.00    +0.000 A 
ATOM     22  C   UNL     1       5.107   4.268  14.473  0.00  0.00    +0.000 A 
ATOM     23  C   UNL     1       5.979   3.911  13.446  0.00  0.00    +0.000 A 
ATOM     24  C   UNL     1       7.268   4.415  13.467  0.00  0.00    +0.000 A 
ATOM     25  N   UNL     1       7.727   5.252  14.422  0.00  0.00    +0.000 NA
ATOM     26  C   UNL     1       6.854   5.580  15.406  0.00  0.00    +0.000 A 
ENDBRANCH  19  21
ENDBRANCH   1  18
TORSDOF 2
ENDMDL
MODEL 7
REMARK VINA RESULT:      -7.5      2.039      2.450
REMARK  Name = 
REMARK  2 active torsions:
REMARK  status: ('A' for Active; 'I' for Inactive)
REMARK    1  A    between atoms: C_2  and  C_10
REMARK    2  A    between atoms: N_3  and  C_4
REMARK                            x       y       z     vdW  Elec       q    Type
REMARK                         _______ _______ _______ _____ _____    ______ ____
ROOT
ATOM      1  C   UNL     1       1.362   8.995  20.074  0.00  0.00    +0.000 A 
ATOM      2  C   UNL     1       1.714   9.315  18.756  0.00  0.00    +0.000 A 
ATOM      3  C   UNL     1       2.290   8.346  17.923  0.00  0.00    +0.000 A 
ATOM      4  C   UNL     1       2.489   7.052  18.426  0.00  0.00    +0.000 A 
ATOM      5  N   UNL     1       2.991   5.951  17.794  0.00  0.00    +0.000 NA
ATOM      6  C   UNL     1       2.871   4.948  18.650  0.00  0.00    +0.000 A 
ATOM      7  N   UNL     1       2.414   5.416  19.860  0.00  0.00    +0.000 N 
ATOM      8  C   UNL     1       2.127   6.755  19.734  0.00  0.00    +0.000 A 
ATOM      9  C   UNL     1       1.584   7.711  20.599  0.00  0.00    +0.000 A 
ATOM     10  C   UNL     1       2.226   4.611  21.045  0.00  0.00    +0.000 C 
ATOM     11  C   UNL     1       1.227   3.491  20.804  0.00  0.00    +0.000 C 
ATOM     12  C   UNL     1       1.857   2.335  20.047  0.00  0.00    +0.000 C 
ATOM     13  N   UNL     1       2.259   2.589  18.682  0.00  0.00    +0.000 N 
ATOM     14  C   UNL     1       3.122   3.577  18.249  0.00  0.00    +0.000 C 
ATOM     15  O   UNL     1       3.986   3.236  17.440  0.00  0.00    +0.000 OA
ATOM     16  H   UNL     1       2.477   1.747  18.159  0.00  0.00    +0.000 HD
ENDROOT
BRANCH   1  18
ATOM     17  O   UNL     1       1.238  10.182  22.076  0.00  0.00    +0.000 OA
ATOM     18  C   UNL     1       0.741  10.007  20.970  0.00  0.00    +0.000 C 
ATOM     19  N   UNL     1      -0.405  10.599  20.471  0.00  0.00    +0.000 N 
ATOM     20  H   UNL     1      -0.795  10.207  19.623  0.00  0.00    +0.000 HD
BRANCH  19  21
ATOM     21  C   UNL     1      -1.184  11.580  21.121  0.00  0.00    +0.000 A 
ATOM     22  C   UNL     1      -1.776  12.662  20.474  0.00  0.00    +0.000 A 
ATOM     23  C   UNL     1      -2.505  13.596  21.208  0.00  0.00    +0.000 A 
ATOM     24  C   UNL     1      -2.627  13.413  22.575  0.00  0.00    +0.000 A 
ATOM     25  N   UNL     1      -2.093  12.367  23.239  0.00  0.00    +0.000 NA
ATOM     26  C   UNL     1      -1.390  11.477  22.497  0.00  0.00    +0.000 A 
ENDBRANCH  19  21
ENDBRANCH   1  18
TORSDOF 2
ENDMDL
MODEL 8
REMARK VINA RESULT:      -7.4      2.130      2.688
REMARK  Name = 
REMARK  2 active torsions:
REMARK  status: ('A' for Active; 'I' for Inactive)
REMARK    1  A    between atoms: C_2  and  C_10
REMARK    2  A    between atoms: N_3  and  C_4
REMARK                            x       y       z     vdW  Elec       q    Type
REMARK                         _______ _______ _______ _____ _____    ______ ____
ROOT
ATOM      1  C   UNL     1       1.315   8.503  19.767  0.00  0.00    +0.000 A 
ATOM      2  C   UNL     1       1.695   9.104  18.560  0.00  0.00    +0.000 A 
ATOM      3  C   UNL     1       2.608   8.467  17.710  0.00  0.00    +0.000 A 
ATOM      4  C   UNL     1       3.119   7.214  18.081  0.00  0.00    +0.000 A 
ATOM      5  N   UNL     1       3.981   6.402  17.403  0.00  0.00    +0.000 NA
ATOM      6  C   UNL     1       4.068   5.285  18.110  0.00  0.00    +0.000 A 
ATOM      7  N   UNL     1       3.373   5.420  19.288  0.00  0.00    +0.000 N 
ATOM      8  C   UNL     1       2.726   6.634  19.280  0.00  0.00    +0.000 A 
ATOM      9  C   UNL     1       1.843   7.263  20.165  0.00  0.00    +0.000 A 
ATOM     10  C   UNL     1       3.303   4.423  20.331  0.00  0.00    +0.000 C 
ATOM     11  C   UNL     1       2.701   3.125  19.821  0.00  0.00    +0.000 C 
ATOM     12  C   UNL     1       3.713   2.313  19.032  0.00  0.00    +0.000 C 
ATOM     13  N   UNL     1       4.164   2.872  17.777  0.00  0.00    +0.000 N 
ATOM     14  C   UNL     1       4.745   4.111  17.590  0.00  0.00    +0.000 C 
ATOM     15  O   UNL     1       5.749   4.146  16.879  0.00  0.00    +0.000 OA
ATOM     16  H   UNL     1       4.669   2.212  17.195  0.00  0.00    +0.000 HD
ENDROOT
BRANCH   1  18
ATOM     17  O   UNL     1      -0.213   8.469  21.528  0.00  0.00    +0.000 OA
ATOM     18  C   UNL     1       0.338   9.159  20.679  0.00  0.00    +0.000 C 
ATOM     19  N   UNL     1       0.099  10.493  20.408  0.00  0.00    +0.000 N 
ATOM     20  H   UNL     1       0.489  10.868  19.552  0.00  0.00    +0.000 HD
BRANCH  19  21
ATOM     21  C   UNL     1      -0.783  11.339  21.115  0.00  0.00    +0.000 A 
ATOM     22  C   UNL     1      -0.723  11.555  22.489  0.00  0.00    +0.000 A 
ATOM     23  C   UNL     1      -1.657  12.388  23.103  0.00  0.00    +0.000 A 
ATOM     24  C   UNL     1      -2.624  12.990  22.316  0.00  0.00    +0.000 A 
ATOM     25  N   UNL     1      -2.704  12.830  20.978  0.00  0.00    +0.000 NA
ATOM     26  C   UNL     1      -1.781  12.014  20.413  0.00  0.00    +0.000 A 
ENDBRANCH  19  21
ENDBRANCH   1  18
TORSDOF 2
ENDMDL
MODEL 9
REMARK VINA RESULT:      -7.4      1.919      3.260
REMARK  Name = 
REMARK  2 active torsions:
REMARK  status: ('A' for Active; 'I' for Inactive)
REMARK    1  A    between atoms: C_2  and  C_10
REMARK    2  A    between atoms: N_3  and  C_4
REMARK                            x       y       z     vdW  Elec       q    Type
REMARK                         _______ _______ _______ _____ _____    ______ ____
ROOT
ATOM      1  C   UNL     1       1.494   8.680  19.215  0.00  0.00    +0.000 A 
ATOM      2  C   UNL     1       1.141   8.111  20.446  0.00  0.00    +0.000 A 
ATOM      3  C   UNL     1       1.667   6.870  20.828  0.00  0.00    +0.000 A 
ATOM      4  C   UNL     1       2.564   6.220  19.968  0.00  0.00    +0.000 A 
ATOM      5  N   UNL     1       3.224   5.039  20.145  0.00  0.00    +0.000 NA
ATOM      6  C   UNL     1       4.037   4.911  19.108  0.00  0.00    +0.000 A 
ATOM      7  N   UNL     1       3.819   5.931  18.212  0.00  0.00    +0.000 N 
ATOM      8  C   UNL     1       2.904   6.804  18.754  0.00  0.00    +0.000 A 
ATOM      9  C   UNL     1       2.367   8.024  18.330  0.00  0.00    +0.000 A 
ATOM     10  C   UNL     1       4.483   6.074  16.937  0.00  0.00    +0.000 C 
ATOM     11  C   UNL     1       5.989   6.192  17.104  0.00  0.00    +0.000 C 
ATOM     12  C   UNL     1       6.630   4.838  17.353  0.00  0.00    +0.000 C 
ATOM     13  N   UNL     1       6.306   4.180  18.599  0.00  0.00    +0.000 N 
ATOM     14  C   UNL     1       5.042   3.866  19.059  0.00  0.00    +0.000 C 
ATOM     15  O   UNL     1       4.890   2.733  19.516  0.00  0.00    +0.000 OA
ATOM     16  H   UNL     1       6.909   3.393  18.812  0.00  0.00    +0.000 HD
ENDROOT
BRANCH   1  18
ATOM     17  O   UNL     1       0.228  10.041  17.808  0.00  0.00    +0.000 OA
ATOM     18  C   UNL     1       0.953  10.001  18.795  0.00  0.00    +0.000 C 
ATOM     19  N   UNL     1       1.402  11.075  19.541  0.00  0.00    +0.000 N 
ATOM     20  H   UNL     1       2.148  10.898  20.203  0.00  0.00    +0.000 HD
BRANCH  19  21
ATOM     21  C   UNL     1       1.047  12.427  19.347  0.00  0.00    +0.000 A 
ATOM     22  C   UNL     1      -0.208  12.954  19.636  0.00  0.00    +0.000 A 
ATOM     23  C   UNL     1      -0.472  14.299  19.383  0.00  0.00    +0.000 A 
ATOM     24  C   UNL     1       0.538  15.083  18.852  0.00  0.00    +0.000 A 
ATOM     25  N   UNL     1       1.777  14.621  18.581  0.00  0.00    +0.000 NA
ATOM     26  C   UNL     1       2.001  13.309  18.839  0.00  0.00    +0.000 A 
ENDBRANCH  19  21
ENDBRANCH   1  18
TORSDOF 2
ENDMDL
