MODEL 1
REMARK VINA RESULT:      -6.3      0.000      0.000
REMARK  Name = 
REMARK  8 active torsions:
REMARK  status: ('A' for Active; 'I' for Inactive)
REMARK    1  A    between atoms: C_1  and  C_2
REMARK    2  A    between atoms: C_2  and  C_3
REMARK    3  A    between atoms: C_3  and  O_4
REMARK    4  A    between atoms: O_4  and  C_5
REMARK    5  A    between atoms: C_8  and  C_9
REMARK    6  A    between atoms: C_9  and  C_10
REMARK    7  A    between atoms: C_10  and  C_11
REMARK    8  A    between atoms: C_11  and  O_13
REMARK                            x       y       z     vdW  Elec       q    Type
REMARK                         _______ _______ _______ _____ _____    ______ ____
ROOT
ATOM      1  C   UNL     1       2.436   4.320  17.696  0.00  0.00    +0.000 A 
ATOM      2  C   UNL     1       3.396   3.553  17.033  0.00  0.00    +0.000 A 
ATOM      3  C   UNL     1       4.628   4.098  16.685  0.00  0.00    +0.000 A 
ATOM      4  C   UNL     1       4.922   5.434  16.968  0.00  0.00    +0.000 A 
ATOM      5  C   UNL     1       3.964   6.205  17.637  0.00  0.00    +0.000 A 
ATOM      6  C   UNL     1       2.727   5.652  17.996  0.00  0.00    +0.000 A 
ENDROOT
BRANCH   1   7
ATOM      7  O   UNL     1       1.201   3.859  18.089  0.00  0.00    +0.000 OA
BRANCH   7   8
ATOM      8  C   UNL     1       1.241   2.866  19.117  0.00  0.00    +0.000 C 
BRANCH   8  10
ATOM      9  C   UNL     1       1.978   3.022  21.492  0.00  0.00    +0.000 C 
ATOM     10  C   UNL     1       0.936   3.472  20.479  0.00  0.00    +0.000 C 
ENDBRANCH   8  10
ENDBRANCH   7   8
ENDBRANCH   1   7
BRANCH   4  11
ATOM     11  C   UNL     1       6.265   6.001  16.569  0.00  0.00    +0.000 C 
BRANCH  11  12
ATOM     12  C   UNL     1       7.055   6.499  17.781  0.00  0.00    +0.000 C 
BRANCH  12  13
ATOM     13  C   UNL     1       7.413   5.372  18.712  0.00  0.00    +0.000 C 
ATOM     14  O   UNL     1       7.280   5.388  19.925  0.00  0.00    +0.000 OA
BRANCH  13  15
ATOM     15  O   UNL     1       7.903   4.297  18.052  0.00  0.00    +0.000 OA
ATOM     16  H   UNL     1       8.568   3.792  18.556  0.00  0.00    +0.000 HD
ENDBRANCH  13  15
ENDBRANCH  12  13
ENDBRANCH  11  12
ENDBRANCH   4  11
TORSDOF 7
ENDMDL
MODEL 2
REMARK VINA RESULT:      -6.3      0.217      1.505
REMARK  Name = 
REMARK  8 active torsions:
REMARK  status: ('A' for Active; 'I' for Inactive)
REMARK    1  A    between atoms: C_1  and  C_2
REMARK    2  A    between atoms: C_2  and  C_3
REMARK    3  A    between atoms: C_3  and  O_4
REMARK    4  A    between atoms: O_4  and  C_5
REMARK    5  A    between atoms: C_8  and  C_9
REMARK    6  A    between atoms: C_9  and  C_10
REMARK    7  A    between atoms: C_10  and  C_11
REMARK    8  A    between atoms: C_11  and  O_13
REMARK                            x       y       z     vdW  Elec       q    Type
REMARK                         _______ _______ _______ _____ _____    ______ ____
ROOT
ATOM      1  C   UNL     1       2.282   4.351  17.876  0.00  0.00    +0.000 A 
ATOM      2  C   UNL     1       2.590   5.689  18.126  0.00  0.00    +0.000 A 
ATOM      3  C   UNL     1       3.799   6.234  17.702  0.00  0.00    +0.000 A 
ATOM      4  C   UNL     1       4.742   5.446  17.041  0.00  0.00    +0.000 A 
ATOM      5  C   UNL     1       4.436   4.104  16.784  0.00  0.00    +0.000 A 
ATOM      6  C   UNL     1       3.214   3.559  17.202  0.00  0.00    +0.000 A 
ENDROOT
BRANCH   1   7
ATOM      7  O   UNL     1       1.109   3.735  18.245  0.00  0.00    +0.000 OA
BRANCH   7   8
ATOM      8  C   UNL     1       1.268   2.690  19.208  0.00  0.00    +0.000 C 
BRANCH   8  10
ATOM      9  C   UNL     1       2.317   3.003  21.447  0.00  0.00    +0.000 C 
ATOM     10  C   UNL     1       1.054   3.211  20.622  0.00  0.00    +0.000 C 
ENDBRANCH   8  10
ENDBRANCH   7   8
ENDBRANCH   1   7
BRANCH   4  11
ATOM     11  C   UNL     1       6.050   6.063  16.601  0.00  0.00    +0.000 C 
BRANCH  11  12
ATOM     12  C   UNL     1       6.896   6.515  17.793  0.00  0.00    +0.000 C 
BRANCH  12  13
ATOM     13  C   UNL     1       7.443   5.342  18.562  0.00  0.00    +0.000 C 
ATOM     14  O   UNL     1       8.012   4.380  18.072  0.00  0.00    +0.000 OA
BRANCH  13  15
ATOM     15  O   UNL     1       7.246   5.465  19.894  0.00  0.00    +0.000 OA
ATOM     16  H   UNL     1       6.787   6.286  20.153  0.00  0.00    +0.000 HD
ENDBRANCH  13  15
ENDBRANCH  12  13
ENDBRANCH  11  12
ENDBRANCH   4  11
TORSDOF 7
ENDMDL
MODEL 3
REMARK VINA RESULT:      -6.1      1.996      2.619
REMARK  Name = 
REMARK  8 active torsions:
REMARK  status: ('A' for Active; 'I' for Inactive)
REMARK    1  A    between atoms: C_1  and  C_2
REMARK    2  A    between atoms: C_2  and  C_3
REMARK    3  A    between atoms: C_3  and  O_4
REMARK    4  A    between atoms: O_4  and  C_5
REMARK    5  A    between atoms: C_8  and  C_9
REMARK    6  A    between atoms: C_9  and  C_10
REMARK    7  A    between atoms: C_10  and  C_11
REMARK    8  A    between atoms: C_11  and  O_13
REMARK                            x       y       z     vdW  Elec       q    Type
REMARK                         _______ _______ _______ _____ _____    ______ ____
ROOT
ATOM      1  C   UNL     1       2.165   4.031  17.776  0.00  0.00    +0.000 A 
ATOM      2  C   UNL     1       2.425   5.401  17.849  0.00  0.00    +0.000 A 
ATOM      3  C   UNL     1       3.689   5.903  17.552  0.00  0.00    +0.000 A 
ATOM      4  C   UNL     1       4.732   5.045  17.199  0.00  0.00    +0.000 A 
ATOM      5  C   UNL     1       4.475   3.672  17.120  0.00  0.00    +0.000 A 
ATOM      6  C   UNL     1       3.199   3.167  17.410  0.00  0.00    +0.000 A 
ENDROOT
BRANCH   1   7
ATOM      7  O   UNL     1       0.946   3.451  18.038  0.00  0.00    +0.000 OA
BRANCH   7   8
ATOM      8  C   UNL     1       0.941   2.570  19.164  0.00  0.00    +0.000 C 
BRANCH   8  10
ATOM      9  C   UNL     1       2.084   2.791  21.368  0.00  0.00    +0.000 C 
ATOM     10  C   UNL     1       0.990   3.351  20.470  0.00  0.00    +0.000 C 
ENDBRANCH   8  10
ENDBRANCH   7   8
ENDBRANCH   1   7
BRANCH   4  11
ATOM     11  C   UNL     1       6.096   5.620  16.891  0.00  0.00    +0.000 C 
BRANCH  11  12
ATOM     12  C   UNL     1       6.990   4.609  16.170  0.00  0.00    +0.000 C 
BRANCH  12  13
ATOM     13  C   UNL     1       6.905   4.760  14.674  0.00  0.00    +0.000 C 
ATOM     14  O   UNL     1       6.070   4.232  13.958  0.00  0.00    +0.000 OA
BRANCH  13  15
ATOM     15  O   UNL     1       7.867   5.576  14.185  0.00  0.00    +0.000 OA
ATOM     16  H   UNL     1       7.763   6.510  14.443  0.00  0.00    +0.000 HD
ENDBRANCH  13  15
ENDBRANCH  12  13
ENDBRANCH  11  12
ENDBRANCH   4  11
TORSDOF 7
ENDMDL
MODEL 4
REMARK VINA RESULT:      -6.1      1.647      5.432
REMARK  Name = 
REMARK  8 active torsions:
REMARK  status: ('A' for Active; 'I' for Inactive)
REMARK    1  A    between atoms: C_1  and  C_2
REMARK    2  A    between atoms: C_2  and  C_3
REMARK    3  A    between atoms: C_3  and  O_4
REMARK    4  A    between atoms: O_4  and  C_5
REMARK    5  A    between atoms: C_8  and  C_9
REMARK    6  A    between atoms: C_9  and  C_10
REMARK    7  A    between atoms: C_10  and  C_11
REMARK    8  A    between atoms: C_11  and  O_13
REMARK                            x       y       z     vdW  Elec       q    Type
REMARK                         _______ _______ _______ _____ _____    ______ ____
ROOT
ATOM      1  C   UNL     1       4.841   5.806  16.919  0.00  0.00    +0.000 A 
ATOM      2  C   UNL     1       4.815   4.441  16.627  0.00  0.00    +0.000 A 
ATOM      3  C   UNL     1       3.760   3.641  17.058  0.00  0.00    +0.000 A 
ATOM      4  C   UNL     1       2.718   4.181  17.815  0.00  0.00    +0.000 A 
ATOM      5  C   UNL     1       2.738   5.550  18.105  0.00  0.00    +0.000 A 
ATOM      6  C   UNL     1       3.795   6.357  17.662  0.00  0.00    +0.000 A 
ENDROOT
BRANCH   1   7
ATOM      7  O   UNL     1       5.833   6.673  16.521  0.00  0.00    +0.000 OA
BRANCH   7   8
ATOM      8  C   UNL     1       7.159   6.224  16.811  0.00  0.00    +0.000 C 
BRANCH   8  10
ATOM      9  C   UNL     1       7.741   5.804  19.197  0.00  0.00    +0.000 C 
ATOM     10  C   UNL     1       7.683   6.851  18.094  0.00  0.00    +0.000 C 
ENDBRANCH   8  10
ENDBRANCH   7   8
ENDBRANCH   1   7
BRANCH   4  11
ATOM     11  C   UNL     1       1.592   3.284  18.276  0.00  0.00    +0.000 C 
BRANCH  11  12
ATOM     12  C   UNL     1       2.018   2.388  19.441  0.00  0.00    +0.000 C 
BRANCH  12  13
ATOM     13  C   UNL     1       1.453   2.873  20.749  0.00  0.00    +0.000 C 
ATOM     14  O   UNL     1       1.802   2.490  21.854  0.00  0.00    +0.000 OA
BRANCH  13  15
ATOM     15  O   UNL     1       0.497   3.814  20.578  0.00  0.00    +0.000 OA
ATOM     16  H   UNL     1       0.133   4.165  21.412  0.00  0.00    +0.000 HD
ENDBRANCH  13  15
ENDBRANCH  12  13
ENDBRANCH  11  12
ENDBRANCH   4  11
TORSDOF 7
ENDMDL
MODEL 5
REMARK VINA RESULT:      -6.0      1.821      5.598
REMARK  Name = 
REMARK  8 active torsions:
REMARK  status: ('A' for Active; 'I' for Inactive)
REMARK    1  A    between atoms: C_1  and  C_2
REMARK    2  A    between atoms: C_2  and  C_3
REMARK    3  A    between atoms: C_3  and  O_4
REMARK    4  A    between atoms: O_4  and  C_5
REMARK    5  A    between atoms: C_8  and  C_9
REMARK    6  A    between atoms: C_9  and  C_10
REMARK    7  A    between atoms: C_10  and  C_11
REMARK    8  A    between atoms: C_11  and  O_13
REMARK                            x       y       z     vdW  Elec       q    Type
REMARK                         _______ _______ _______ _____ _____    ______ ____
ROOT
ATOM      1  C   UNL     1       4.815   6.020  16.797  0.00  0.00    +0.000 A 
ATOM      2  C   UNL     1       3.897   6.799  17.504  0.00  0.00    +0.000 A 
ATOM      3  C   UNL     1       2.809   6.213  18.144  0.00  0.00    +0.000 A 
ATOM      4  C   UNL     1       2.596   4.835  18.071  0.00  0.00    +0.000 A 
ATOM      5  C   UNL     1       3.517   4.049  17.368  0.00  0.00    +0.000 A 
ATOM      6  C   UNL     1       4.619   4.639  16.732  0.00  0.00    +0.000 A 
ENDROOT
BRANCH   1   7
ATOM      7  O   UNL     1       5.924   6.511  16.149  0.00  0.00    +0.000 OA
BRANCH   7   8
ATOM      8  C   UNL     1       7.171   6.081  16.702  0.00  0.00    +0.000 C 
BRANCH   8  10
ATOM      9  C   UNL     1       7.887   8.261  17.674  0.00  0.00    +0.000 C 
ATOM     10  C   UNL     1       7.485   6.827  17.991  0.00  0.00    +0.000 C 
ENDBRANCH   8  10
ENDBRANCH   7   8
ENDBRANCH   1   7
BRANCH   4  11
ATOM     11  C   UNL     1       1.400   4.228  18.769  0.00  0.00    +0.000 C 
BRANCH  11  12
ATOM     12  C   UNL     1       1.422   4.498  20.275  0.00  0.00    +0.000 C 
BRANCH  12  13
ATOM     13  C   UNL     1       1.787   3.262  21.054  0.00  0.00    +0.000 C 
ATOM     14  O   UNL     1       2.124   3.241  22.227  0.00  0.00    +0.000 OA
BRANCH  13  15
ATOM     15  O   UNL     1       1.691   2.138  20.308  0.00  0.00    +0.000 OA
ATOM     16  H   UNL     1       2.482   1.569  20.345  0.00  0.00    +0.000 HD
ENDBRANCH  13  15
ENDBRANCH  12  13
ENDBRANCH  11  12
ENDBRANCH   4  11
TORSDOF 7
ENDMDL
MODEL 6
REMARK VINA RESULT:      -6.0      0.627      1.402
REMARK  Name = 
REMARK  8 active torsions:
REMARK  status: ('A' for Active; 'I' for Inactive)
REMARK    1  A    between atoms: C_1  and  C_2
REMARK    2  A    between atoms: C_2  and  C_3
REMARK    3  A    between atoms: C_3  and  O_4
REMARK    4  A    between atoms: O_4  and  C_5
REMARK    5  A    between atoms: C_8  and  C_9
REMARK    6  A    between atoms: C_9  and  C_10
REMARK    7  A    between atoms: C_10  and  C_11
REMARK    8  A    between atoms: C_11  and  O_13
REMARK                            x       y       z     vdW  Elec       q    Type
REMARK                         _______ _______ _______ _____ _____    ______ ____
ROOT
ATOM      1  C   UNL     1       2.294   4.292  17.890  0.00  0.00    +0.000 A 
ATOM      2  C   UNL     1       2.608   5.624  18.168  0.00  0.00    +0.000 A 
ATOM      3  C   UNL     1       3.769   6.203  17.662  0.00  0.00    +0.000 A 
ATOM      4  C   UNL     1       4.658   5.457  16.887  0.00  0.00    +0.000 A 
ATOM      5  C   UNL     1       4.345   4.123  16.601  0.00  0.00    +0.000 A 
ATOM      6  C   UNL     1       3.171   3.543  17.103  0.00  0.00    +0.000 A 
ENDROOT
BRANCH   1   7
ATOM      7  O   UNL     1       1.165   3.645  18.334  0.00  0.00    +0.000 OA
BRANCH   7   8
ATOM      8  C   UNL     1       1.401   2.331  18.847  0.00  0.00    +0.000 C 
BRANCH   8  10
ATOM      9  C   UNL     1       1.230   3.132  21.200  0.00  0.00    +0.000 C 
ATOM     10  C   UNL     1       2.100   2.386  20.198  0.00  0.00    +0.000 C 
ENDBRANCH   8  10
ENDBRANCH   7   8
ENDBRANCH   1   7
BRANCH   4  11
ATOM     11  C   UNL     1       5.915   6.111  16.359  0.00  0.00    +0.000 C 
BRANCH  11  12
ATOM     12  C   UNL     1       6.896   6.448  17.484  0.00  0.00    +0.000 C 
BRANCH  12  13
ATOM     13  C   UNL     1       7.505   5.206  18.080  0.00  0.00    +0.000 C 
ATOM     14  O   UNL     1       7.541   4.940  19.270  0.00  0.00    +0.000 OA
BRANCH  13  15
ATOM     15  O   UNL     1       8.014   4.381  17.137  0.00  0.00    +0.000 OA
ATOM     16  H   UNL     1       7.401   4.195  16.401  0.00  0.00    +0.000 HD
ENDBRANCH  13  15
ENDBRANCH  12  13
ENDBRANCH  11  12
ENDBRANCH   4  11
TORSDOF 7
ENDMDL
MODEL 7
REMARK VINA RESULT:      -6.0      0.983      1.166
REMARK  Name = 
REMARK  8 active torsions:
REMARK  status: ('A' for Active; 'I' for Inactive)
REMARK    1  A    between atoms: C_1  and  C_2
REMARK    2  A    between atoms: C_2  and  C_3
REMARK    3  A    between atoms: C_3  and  O_4
REMARK    4  A    between atoms: O_4  and  C_5
REMARK    5  A    between atoms: C_8  and  C_9
REMARK    6  A    between atoms: C_9  and  C_10
REMARK    7  A    between atoms: C_10  and  C_11
REMARK    8  A    between atoms: C_11  and  O_13
REMARK                            x       y       z     vdW  Elec       q    Type
REMARK                         _______ _______ _______ _____ _____    ______ ____
ROOT
ATOM      1  C   UNL     1       2.354   3.670  17.888  0.00  0.00    +0.000 A 
ATOM      2  C   UNL     1       3.525   2.998  17.532  0.00  0.00    +0.000 A 
ATOM      3  C   UNL     1       4.707   3.698  17.306  0.00  0.00    +0.000 A 
ATOM      4  C   UNL     1       4.741   5.090  17.405  0.00  0.00    +0.000 A 
ATOM      5  C   UNL     1       3.571   5.767  17.766  0.00  0.00    +0.000 A 
ATOM      6  C   UNL     1       2.383   5.061  18.003  0.00  0.00    +0.000 A 
ENDROOT
BRANCH   1   7
ATOM      7  O   UNL     1       1.149   3.059  18.143  0.00  0.00    +0.000 OA
BRANCH   7   8
ATOM      8  C   UNL     1       0.677   3.221  19.483  0.00  0.00    +0.000 C 
BRANCH   8  10
ATOM      9  C   UNL     1       2.119   3.328  21.512  0.00  0.00    +0.000 C 
ATOM     10  C   UNL     1       1.514   2.409  20.461  0.00  0.00    +0.000 C 
ENDBRANCH   8  10
ENDBRANCH   7   8
ENDBRANCH   1   7
BRANCH   4  11
ATOM     11  C   UNL     1       6.038   5.823  17.145  0.00  0.00    +0.000 C 
BRANCH  11  12
ATOM     12  C   UNL     1       7.216   5.172  17.871  0.00  0.00    +0.000 C 
BRANCH  12  13
ATOM     13  C   UNL     1       7.817   6.098  18.895  0.00  0.00    +0.000 C 
ATOM     14  O   UNL     1       8.275   7.205  18.664  0.00  0.00    +0.000 OA
BRANCH  13  15
ATOM     15  O   UNL     1       7.789   5.572  20.141  0.00  0.00    +0.000 OA
ATOM     16  H   UNL     1       7.555   6.214  20.837  0.00  0.00    +0.000 HD
ENDBRANCH  13  15
ENDBRANCH  12  13
ENDBRANCH  11  12
ENDBRANCH   4  11
TORSDOF 7
ENDMDL
MODEL 8
REMARK VINA RESULT:      -5.8      2.229      2.478
REMARK  Name = 
REMARK  8 active torsions:
REMARK  status: ('A' for Active; 'I' for Inactive)
REMARK    1  A    between atoms: C_1  and  C_2
REMARK    2  A    between atoms: C_2  and  C_3
REMARK    3  A    between atoms: C_3  and  O_4
REMARK    4  A    between atoms: O_4  and  C_5
REMARK    5  A    between atoms: C_8  and  C_9
REMARK    6  A    between atoms: C_9  and  C_10
REMARK    7  A    between atoms: C_10  and  C_11
REMARK    8  A    between atoms: C_11  and  O_13
REMARK                            x       y       z     vdW  Elec       q    Type
REMARK                         _______ _______ _______ _____ _____    ______ ____
ROOT
ATOM      1  C   UNL     1       2.341   4.326  18.412  0.00  0.00    +0.000 A 
ATOM      2  C   UNL     1       3.324   3.501  17.861  0.00  0.00    +0.000 A 
ATOM      3  C   UNL     1       4.415   4.043  17.189  0.00  0.00    +0.000 A 
ATOM      4  C   UNL     1       4.539   5.424  17.027  0.00  0.00    +0.000 A 
ATOM      5  C   UNL     1       3.559   6.256  17.582  0.00  0.00    +0.000 A 
ATOM      6  C   UNL     1       2.464   5.709  18.267  0.00  0.00    +0.000 A 
ENDROOT
BRANCH   1   7
ATOM      7  O   UNL     1       1.240   3.878  19.103  0.00  0.00    +0.000 OA
BRANCH   7   8
ATOM      8  C   UNL     1       1.103   4.428  20.416  0.00  0.00    +0.000 C 
BRANCH   8  10
ATOM      9  C   UNL     1       1.620   2.430  21.813  0.00  0.00    +0.000 C 
ATOM     10  C   UNL     1       2.105   3.806  21.377  0.00  0.00    +0.000 C 
ENDBRANCH   8  10
ENDBRANCH   7   8
ENDBRANCH   1   7
BRANCH   4  11
ATOM     11  C   UNL     1       5.731   5.983  16.284  0.00  0.00    +0.000 C 
BRANCH  11  12
ATOM     12  C   UNL     1       6.786   4.910  16.012  0.00  0.00    +0.000 C 
BRANCH  12  13
ATOM     13  C   UNL     1       6.975   4.679  14.536  0.00  0.00    +0.000 C 
ATOM     14  O   UNL     1       6.403   3.827  13.876  0.00  0.00    +0.000 OA
BRANCH  13  15
ATOM     15  O   UNL     1       7.861   5.543  13.991  0.00  0.00    +0.000 OA
ATOM     16  H   UNL     1       7.455   6.211  13.407  0.00  0.00    +0.000 HD
ENDBRANCH  13  15
ENDBRANCH  12  13
ENDBRANCH  11  12
ENDBRANCH   4  11
TORSDOF 7
ENDMDL
MODEL 9
REMARK VINA RESULT:      -5.8      1.756      5.477
REMARK  Name = 
REMARK  8 active torsions:
REMARK  status: ('A' for Active; 'I' for Inactive)
REMARK    1  A    between atoms: C_1  and  C_2
REMARK    2  A    between atoms: C_2  and  C_3
REMARK    3  A    between atoms: C_3  and  O_4
REMARK    4  A    between atoms: O_4  and  C_5
REMARK    5  A    between atoms: C_8  and  C_9
REMARK    6  A    between atoms: C_9  and  C_10
REMARK    7  A    between atoms: C_10  and  C_11
REMARK    8  A    between atoms: C_11  and  O_13
REMARK                            x       y       z     vdW  Elec       q    Type
REMARK                         _______ _______ _______ _____ _____    ______ ____
ROOT
ATOM      1  C   UNL     1       4.698   5.078  17.217  0.00  0.00    +0.000 A 
ATOM      2  C   UNL     1       3.584   5.822  17.609  0.00  0.00    +0.000 A 
ATOM      3  C   UNL     1       2.472   5.199  18.170  0.00  0.00    +0.000 A 
ATOM      4  C   UNL     1       2.436   3.812  18.328  0.00  0.00    +0.000 A 
ATOM      5  C   UNL     1       3.553   3.063  17.941  0.00  0.00    +0.000 A 
ATOM      6  C   UNL     1       4.677   3.692  17.386  0.00  0.00    +0.000 A 
ENDROOT
BRANCH   1   7
ATOM      7  O   UNL     1       5.842   5.610  16.670  0.00  0.00    +0.000 OA
BRANCH   7   8
ATOM      8  C   UNL     1       6.073   6.981  17.004  0.00  0.00    +0.000 C 
BRANCH   8  10
ATOM      9  C   UNL     1       7.740   6.144  18.655  0.00  0.00    +0.000 C 
ATOM     10  C   UNL     1       7.470   7.179  17.572  0.00  0.00    +0.000 C 
ENDBRANCH   8  10
ENDBRANCH   7   8
ENDBRANCH   1   7
BRANCH   4  11
ATOM     11  C   UNL     1       1.212   3.163  18.931  0.00  0.00    +0.000 C 
BRANCH  11  12
ATOM     12  C   UNL     1       0.804   3.829  20.247  0.00  0.00    +0.000 C 
BRANCH  12  13
ATOM     13  C   UNL     1       1.819   3.584  21.331  0.00  0.00    +0.000 C 
ATOM     14  O   UNL     1       2.002   2.520  21.900  0.00  0.00    +0.000 OA
BRANCH  13  15
ATOM     15  O   UNL     1       2.543   4.690  21.617  0.00  0.00    +0.000 OA
ATOM     16  H   UNL     1       3.228   4.551  22.297  0.00  0.00    +0.000 HD
ENDBRANCH  13  15
ENDBRANCH  12  13
ENDBRANCH  11  12
ENDBRANCH   4  11
TORSDOF 7
ENDMDL
