MODEL 1
REMARK VINA RESULT:      -6.7      0.000      0.000
REMARK  Name = 
REMARK  12 active torsions:
REMARK  status: ('A' for Active; 'I' for Inactive)
REMARK    1  A    between atoms: C_1  and  C_2
REMARK    2  A    between atoms: C_2  and  C_3
REMARK    3  A    between atoms: N_5  and  C_6
REMARK    4  A    between atoms: N_5  and  C_12
REMARK    5  A    between atoms: C_12  and  C_13
REMARK    6  A    between atoms: C_13  and  O_15
REMARK    7  A    between atoms: O_15  and  C_16
REMARK    8  A    between atoms: N_19  and  C_20
REMARK    9  A    between atoms: C_20  and  C_21
REMARK   10  A    between atoms: C_21  and  N_22
REMARK   11  A    between atoms: N_25  and  C_26
REMARK   12  A    between atoms: C_26  and  C_27
REMARK                            x       y       z     vdW  Elec       q    Type
REMARK                         _______ _______ _______ _____ _____    ______ ____
ROOT
ATOM      1  C   UNL     1       3.841   4.320  18.905  0.00  0.00    +0.000 C 
ATOM      2  C   UNL     1       2.462   4.469  18.211  0.00  0.00    +0.000 C 
ATOM      3  C   UNL     1       2.391   5.799  17.483  0.00  0.00    +0.000 C 
ATOM      4  N   UNL     1       2.456   6.926  18.425  0.00  0.00    +0.000 NA
ATOM      5  C   UNL     1       3.593   6.852  19.357  0.00  0.00    +0.000 C 
ATOM      6  C   UNL     1       3.824   5.463  19.965  0.00  0.00    +0.000 C 
ENDROOT
BRANCH   1   9
ATOM      7  C   UNL     1       4.955   3.558  16.752  0.00  0.00    +0.000 C 
ATOM      8  O   UNL     1       4.160   2.621  16.644  0.00  0.00    +0.000 OA
ATOM      9  N   UNL     1       4.986   4.390  17.891  0.00  0.00    +0.000 N 
BRANCH   9  10
ATOM     10  C   UNL     1       6.007   5.376  18.033  0.00  0.00    +0.000 A 
ATOM     11  C   UNL     1       7.028   5.183  18.975  0.00  0.00    +0.000 A 
ATOM     12  C   UNL     1       8.037   6.124  19.155  0.00  0.00    +0.000 A 
ATOM     13  C   UNL     1       8.026   7.290  18.393  0.00  0.00    +0.000 A 
ATOM     14  C   UNL     1       7.016   7.497  17.454  0.00  0.00    +0.000 A 
ATOM     15  C   UNL     1       6.007   6.543  17.265  0.00  0.00    +0.000 A 
ENDBRANCH   9  10
BRANCH   7  17
ATOM     16  C   UNL     1       5.224   4.321  14.339  0.00  0.00    +0.000 C 
ATOM     17  C   UNL     1       5.923   3.875  15.611  0.00  0.00    +0.000 C 
ENDBRANCH   7  17
ENDBRANCH   1   9
BRANCH   1  18
ATOM     18  C   UNL     1       3.815   2.981  19.695  0.00  0.00    +0.000 C 
ATOM     19  O   UNL     1       4.833   2.378  20.037  0.00  0.00    +0.000 OA
BRANCH  18  20
ATOM     20  O   UNL     1       2.558   2.524  19.916  0.00  0.00    +0.000 OA
ATOM     21  C   UNL     1       2.144   2.561  21.285  0.00  0.00    +0.000 C 
ENDBRANCH  18  20
ENDBRANCH   1  18
BRANCH   4  22
ATOM     22  C   UNL     1       2.492   8.214  17.698  0.00  0.00    +0.000 C 
BRANCH  22  23
ATOM     23  C   UNL     1       1.214   9.042  17.885  0.00  0.00    +0.000 C 
BRANCH  23  24
ATOM     24  N   UNL     1       1.203   9.738  19.141  0.00  0.00    +0.000 N 
ATOM     25  N   UNL     1       0.868   9.137  20.322  0.00  0.00    +0.000 NA
ATOM     26  N   UNL     1       0.640  10.038  21.189  0.00  0.00    +0.000 NA
ATOM     27  N   UNL     1       0.781  11.262  20.597  0.00  0.00    +0.000 N 
ATOM     28  C   UNL     1       1.104  11.107  19.270  0.00  0.00    +0.000 A 
ATOM     29  O   UNL     1       1.227  11.960  18.409  0.00  0.00    +0.000 OA
BRANCH  27  30
ATOM     30  C   UNL     1       0.469  12.503  21.245  0.00  0.00    +0.000 C 
BRANCH  30  31
ATOM     31  C   UNL     1      -0.961  12.570  21.756  0.00  0.00    +0.000 C 
ATOM     32  N   UNL     1      -1.171  12.708  23.093  0.00  0.00    +0.000 N 
ATOM     33  O   UNL     1      -1.930  12.464  20.995  0.00  0.00    +0.000 OA
ATOM     34  H   UNL     1      -0.433  12.508  23.758  0.00  0.00    +0.000 HD
ATOM     35  H   UNL     1      -2.132  12.653  23.407  0.00  0.00    +0.000 HD
ENDBRANCH  30  31
ENDBRANCH  27  30
ENDBRANCH  23  24
ENDBRANCH  22  23
ENDBRANCH   4  22
TORSDOF 10
ENDMDL
MODEL 2
REMARK VINA RESULT:      -6.7      2.100      2.371
REMARK  Name = 
REMARK  12 active torsions:
REMARK  status: ('A' for Active; 'I' for Inactive)
REMARK    1  A    between atoms: C_1  and  C_2
REMARK    2  A    between atoms: C_2  and  C_3
REMARK    3  A    between atoms: N_5  and  C_6
REMARK    4  A    between atoms: N_5  and  C_12
REMARK    5  A    between atoms: C_12  and  C_13
REMARK    6  A    between atoms: C_13  and  O_15
REMARK    7  A    between atoms: O_15  and  C_16
REMARK    8  A    between atoms: N_19  and  C_20
REMARK    9  A    between atoms: C_20  and  C_21
REMARK   10  A    between atoms: C_21  and  N_22
REMARK   11  A    between atoms: N_25  and  C_26
REMARK   12  A    between atoms: C_26  and  C_27
REMARK                            x       y       z     vdW  Elec       q    Type
REMARK                         _______ _______ _______ _____ _____    ______ ____
ROOT
ATOM      1  C   UNL     1       3.936   4.555  18.663  0.00  0.00    +0.000 C 
ATOM      2  C   UNL     1       2.479   4.599  18.132  0.00  0.00    +0.000 C 
ATOM      3  C   UNL     1       2.172   5.978  17.579  0.00  0.00    +0.000 C 
ATOM      4  N   UNL     1       2.210   6.997  18.640  0.00  0.00    +0.000 NA
ATOM      5  C   UNL     1       3.445   6.971  19.440  0.00  0.00    +0.000 C 
ATOM      6  C   UNL     1       3.904   5.567  19.850  0.00  0.00    +0.000 C 
ENDROOT
BRANCH   1   9
ATOM      7  C   UNL     1       4.729   4.382  16.257  0.00  0.00    +0.000 C 
ATOM      8  O   UNL     1       3.887   3.515  16.015  0.00  0.00    +0.000 OA
ATOM      9  N   UNL     1       4.943   4.882  17.558  0.00  0.00    +0.000 N 
BRANCH   9  10
ATOM     10  C   UNL     1       6.017   5.786  17.813  0.00  0.00    +0.000 A 
ATOM     11  C   UNL     1       7.037   5.415  18.702  0.00  0.00    +0.000 A 
ATOM     12  C   UNL     1       8.096   6.270  18.988  0.00  0.00    +0.000 A 
ATOM     13  C   UNL     1       8.138   7.528  18.392  0.00  0.00    +0.000 A 
ATOM     14  C   UNL     1       7.130   7.912  17.509  0.00  0.00    +0.000 A 
ATOM     15  C   UNL     1       6.070   7.046  17.211  0.00  0.00    +0.000 A 
ENDBRANCH   9  10
BRANCH   7  17
ATOM     16  C   UNL     1       6.015   3.950  14.103  0.00  0.00    +0.000 C 
ATOM     17  C   UNL     1       5.556   4.982  15.118  0.00  0.00    +0.000 C 
ENDBRANCH   7  17
ENDBRANCH   1   9
BRANCH   1  18
ATOM     18  C   UNL     1       4.156   3.148  19.285  0.00  0.00    +0.000 C 
ATOM     19  O   UNL     1       5.155   2.847  19.941  0.00  0.00    +0.000 OA
BRANCH  18  20
ATOM     20  O   UNL     1       3.163   2.276  18.982  0.00  0.00    +0.000 OA
ATOM     21  C   UNL     1       3.611   1.025  18.454  0.00  0.00    +0.000 C 
ENDBRANCH  18  20
ENDBRANCH   1  18
BRANCH   4  22
ATOM     22  C   UNL     1       2.012   8.349  18.074  0.00  0.00    +0.000 C 
BRANCH  22  23
ATOM     23  C   UNL     1       1.408   9.337  19.081  0.00  0.00    +0.000 C 
BRANCH  23  24
ATOM     24  N   UNL     1       0.065   9.706  18.733  0.00  0.00    +0.000 N 
ATOM     25  N   UNL     1      -0.494   9.420  17.519  0.00  0.00    +0.000 NA
ATOM     26  N   UNL     1      -1.544  10.123  17.377  0.00  0.00    +0.000 NA
ATOM     27  N   UNL     1      -1.689  10.921  18.477  0.00  0.00    +0.000 N 
ATOM     28  C   UNL     1      -0.651  10.708  19.352  0.00  0.00    +0.000 A 
ATOM     29  O   UNL     1      -0.397  11.289  20.393  0.00  0.00    +0.000 OA
BRANCH  27  30
ATOM     30  C   UNL     1      -2.692  11.940  18.597  0.00  0.00    +0.000 C 
BRANCH  30  31
ATOM     31  C   UNL     1      -4.003  11.574  17.920  0.00  0.00    +0.000 C 
ATOM     32  N   UNL     1      -4.149  11.838  16.594  0.00  0.00    +0.000 N 
ATOM     33  O   UNL     1      -4.946  11.083  18.551  0.00  0.00    +0.000 OA
ATOM     34  H   UNL     1      -3.531  12.488  16.122  0.00  0.00    +0.000 HD
ATOM     35  H   UNL     1      -5.065  11.670  16.198  0.00  0.00    +0.000 HD
ENDBRANCH  30  31
ENDBRANCH  27  30
ENDBRANCH  23  24
ENDBRANCH  22  23
ENDBRANCH   4  22
TORSDOF 10
ENDMDL
MODEL 3
REMARK VINA RESULT:      -6.6      1.163      1.557
REMARK  Name = 
REMARK  12 active torsions:
REMARK  status: ('A' for Active; 'I' for Inactive)
REMARK    1  A    between atoms: C_1  and  C_2
REMARK    2  A    between atoms: C_2  and  C_3
REMARK    3  A    between atoms: N_5  and  C_6
REMARK    4  A    between atoms: N_5  and  C_12
REMARK    5  A    between atoms: C_12  and  C_13
REMARK    6  A    between atoms: C_13  and  O_15
REMARK    7  A    between atoms: O_15  and  C_16
REMARK    8  A    between atoms: N_19  and  C_20
REMARK    9  A    between atoms: C_20  and  C_21
REMARK   10  A    between atoms: C_21  and  N_22
REMARK   11  A    between atoms: N_25  and  C_26
REMARK   12  A    between atoms: C_26  and  C_27
REMARK                            x       y       z     vdW  Elec       q    Type
REMARK                         _______ _______ _______ _____ _____    ______ ____
ROOT
ATOM      1  C   UNL     1       3.775   4.297  18.983  0.00  0.00    +0.000 C 
ATOM      2  C   UNL     1       2.388   4.326  18.289  0.00  0.00    +0.000 C 
ATOM      3  C   UNL     1       2.244   5.600  17.478  0.00  0.00    +0.000 C 
ATOM      4  N   UNL     1       2.249   6.787  18.346  0.00  0.00    +0.000 NA
ATOM      5  C   UNL     1       3.390   6.835  19.273  0.00  0.00    +0.000 C 
ATOM      6  C   UNL     1       3.698   5.504  19.968  0.00  0.00    +0.000 C 
ENDROOT
BRANCH   1   9
ATOM      7  C   UNL     1       4.873   3.527  16.826  0.00  0.00    +0.000 C 
ATOM      8  O   UNL     1       4.079   2.589  16.727  0.00  0.00    +0.000 OA
ATOM      9  N   UNL     1       4.912   4.364  17.961  0.00  0.00    +0.000 N 
BRANCH   9  10
ATOM     10  C   UNL     1       5.934   5.351  18.091  0.00  0.00    +0.000 A 
ATOM     11  C   UNL     1       5.901   6.492  17.275  0.00  0.00    +0.000 A 
ATOM     12  C   UNL     1       6.883   7.474  17.360  0.00  0.00    +0.000 A 
ATOM     13  C   UNL     1       7.930   7.315  18.265  0.00  0.00    +0.000 A 
ATOM     14  C   UNL     1       7.977   6.185  19.081  0.00  0.00    +0.000 A 
ATOM     15  C   UNL     1       6.982   5.203  19.003  0.00  0.00    +0.000 A 
ENDBRANCH   9  10
BRANCH   7  17
ATOM     16  C   UNL     1       5.136   4.412  14.453  0.00  0.00    +0.000 C 
ATOM     17  C   UNL     1       5.832   3.840  15.676  0.00  0.00    +0.000 C 
ENDBRANCH   7  17
ENDBRANCH   1   9
BRANCH   1  18
ATOM     18  C   UNL     1       3.825   3.013  19.858  0.00  0.00    +0.000 C 
ATOM     19  O   UNL     1       4.873   2.443  20.164  0.00  0.00    +0.000 OA
BRANCH  18  20
ATOM     20  O   UNL     1       2.593   2.559  20.198  0.00  0.00    +0.000 OA
ATOM     21  C   UNL     1       2.318   2.581  21.602  0.00  0.00    +0.000 C 
ENDBRANCH  18  20
ENDBRANCH   1  18
BRANCH   4  22
ATOM     22  C   UNL     1       2.213   8.025  17.537  0.00  0.00    +0.000 C 
BRANCH  22  23
ATOM     23  C   UNL     1       2.280   9.300  18.391  0.00  0.00    +0.000 C 
BRANCH  23  24
ATOM     24  N   UNL     1       1.000   9.941  18.499  0.00  0.00    +0.000 N 
ATOM     25  N   UNL     1      -0.116   9.492  17.850  0.00  0.00    +0.000 NA
ATOM     26  N   UNL     1      -0.998  10.406  17.871  0.00  0.00    +0.000 NA
ATOM     27  N   UNL     1      -0.478  11.502  18.503  0.00  0.00    +0.000 N 
ATOM     28  C   UNL     1       0.818  11.252  18.885  0.00  0.00    +0.000 A 
ATOM     29  O   UNL     1       1.624  12.010  19.396  0.00  0.00    +0.000 OA
BRANCH  27  30
ATOM     30  C   UNL     1      -1.151  12.766  18.590  0.00  0.00    +0.000 C 
BRANCH  30  31
ATOM     31  C   UNL     1      -1.753  13.032  19.960  0.00  0.00    +0.000 C 
ATOM     32  N   UNL     1      -2.183  14.289  20.251  0.00  0.00    +0.000 N 
ATOM     33  O   UNL     1      -1.825  12.149  20.822  0.00  0.00    +0.000 OA
ATOM     34  H   UNL     1      -1.882  15.083  19.698  0.00  0.00    +0.000 HD
ATOM     35  H   UNL     1      -2.490  14.453  21.202  0.00  0.00    +0.000 HD
ENDBRANCH  30  31
ENDBRANCH  27  30
ENDBRANCH  23  24
ENDBRANCH  22  23
ENDBRANCH   4  22
TORSDOF 10
ENDMDL
MODEL 4
REMARK VINA RESULT:      -6.6      1.336      1.435
REMARK  Name = 
REMARK  12 active torsions:
REMARK  status: ('A' for Active; 'I' for Inactive)
REMARK    1  A    between atoms: C_1  and  C_2
REMARK    2  A    between atoms: C_2  and  C_3
REMARK    3  A    between atoms: N_5  and  C_6
REMARK    4  A    between atoms: N_5  and  C_12
REMARK    5  A    between atoms: C_12  and  C_13
REMARK    6  A    between atoms: C_13  and  O_15
REMARK    7  A    between atoms: O_15  and  C_16
REMARK    8  A    between atoms: N_19  and  C_20
REMARK    9  A    between atoms: C_20  and  C_21
REMARK   10  A    between atoms: C_21  and  N_22
REMARK   11  A    between atoms: N_25  and  C_26
REMARK   12  A    between atoms: C_26  and  C_27
REMARK                            x       y       z     vdW  Elec       q    Type
REMARK                         _______ _______ _______ _____ _____    ______ ____
ROOT
ATOM      1  C   UNL     1       3.759   4.587  18.791  0.00  0.00    +0.000 C 
ATOM      2  C   UNL     1       2.318   4.623  18.219  0.00  0.00    +0.000 C 
ATOM      3  C   UNL     1       2.068   5.953  17.533  0.00  0.00    +0.000 C 
ATOM      4  N   UNL     1       2.113   7.065  18.495  0.00  0.00    +0.000 NA
ATOM      5  C   UNL     1       3.327   7.077  19.327  0.00  0.00    +0.000 C 
ATOM      6  C   UNL     1       3.731   5.705  19.877  0.00  0.00    +0.000 C 
ENDROOT
BRANCH   1   9
ATOM      7  C   UNL     1       4.605   4.165  16.434  0.00  0.00    +0.000 C 
ATOM      8  O   UNL     1       3.742   3.303  16.252  0.00  0.00    +0.000 OA
ATOM      9  N   UNL     1       4.803   4.779  17.688  0.00  0.00    +0.000 N 
BRANCH   9  10
ATOM     10  C   UNL     1       5.897   5.672  17.887  0.00  0.00    +0.000 A 
ATOM     11  C   UNL     1       6.926   5.318  18.772  0.00  0.00    +0.000 A 
ATOM     12  C   UNL     1       8.007   6.164  19.004  0.00  0.00    +0.000 A 
ATOM     13  C   UNL     1       8.061   7.396  18.355  0.00  0.00    +0.000 A 
ATOM     14  C   UNL     1       7.044   7.762  17.475  0.00  0.00    +0.000 A 
ATOM     15  C   UNL     1       5.963   6.904  17.231  0.00  0.00    +0.000 A 
ENDBRANCH   9  10
BRANCH   7  17
ATOM     16  C   UNL     1       5.805   3.521  14.283  0.00  0.00    +0.000 C 
ATOM     17  C   UNL     1       5.478   4.631  15.267  0.00  0.00    +0.000 C 
ENDBRANCH   7  17
ENDBRANCH   1   9
BRANCH   1  18
ATOM     18  C   UNL     1       3.920   3.238  19.547  0.00  0.00    +0.000 C 
ATOM     19  O   UNL     1       5.012   2.713  19.770  0.00  0.00    +0.000 OA
BRANCH  18  20
ATOM     20  O   UNL     1       2.732   2.677  19.882  0.00  0.00    +0.000 OA
ATOM     21  C   UNL     1       2.488   2.596  21.289  0.00  0.00    +0.000 C 
ENDBRANCH  18  20
ENDBRANCH   1  18
BRANCH   4  22
ATOM     22  C   UNL     1       1.972   8.363  17.801  0.00  0.00    +0.000 C 
BRANCH  22  23
ATOM     23  C   UNL     1       2.004   9.561  18.760  0.00  0.00    +0.000 C 
BRANCH  23  24
ATOM     24  N   UNL     1       0.686   9.966  19.158  0.00  0.00    +0.000 N 
ATOM     25  N   UNL     1      -0.338  10.145  18.271  0.00  0.00    +0.000 NA
ATOM     26  N   UNL     1      -1.269  10.793  18.845  0.00  0.00    +0.000 NA
ATOM     27  N   UNL     1      -0.872  11.094  20.118  0.00  0.00    +0.000 N 
ATOM     28  C   UNL     1       0.395  10.613  20.341  0.00  0.00    +0.000 A 
ATOM     29  O   UNL     1       1.107  10.757  21.320  0.00  0.00    +0.000 OA
BRANCH  27  30
ATOM     30  C   UNL     1      -1.620  11.934  21.009  0.00  0.00    +0.000 C 
BRANCH  30  31
ATOM     31  C   UNL     1      -2.269  13.119  20.314  0.00  0.00    +0.000 C 
ATOM     32  N   UNL     1      -3.447  12.928  19.662  0.00  0.00    +0.000 N 
ATOM     33  O   UNL     1      -1.736  14.234  20.295  0.00  0.00    +0.000 OA
ATOM     34  H   UNL     1      -3.758  11.997  19.411  0.00  0.00    +0.000 HD
ATOM     35  H   UNL     1      -3.802  13.714  19.131  0.00  0.00    +0.000 HD
ENDBRANCH  30  31
ENDBRANCH  27  30
ENDBRANCH  23  24
ENDBRANCH  22  23
ENDBRANCH   4  22
TORSDOF 10
ENDMDL
MODEL 5
REMARK VINA RESULT:      -6.5      1.215      1.575
REMARK  Name = 
REMARK  12 active torsions:
REMARK  status: ('A' for Active; 'I' for Inactive)
REMARK    1  A    between atoms: C_1  and  C_2
REMARK    2  A    between atoms: C_2  and  C_3
REMARK    3  A    between atoms: N_5  and  C_6
REMARK    4  A    between atoms: N_5  and  C_12
REMARK    5  A    between atoms: C_12  and  C_13
REMARK    6  A    between atoms: C_13  and  O_15
REMARK    7  A    between atoms: O_15  and  C_16
REMARK    8  A    between atoms: N_19  and  C_20
REMARK    9  A    between atoms: C_20  and  C_21
REMARK   10  A    between atoms: C_21  and  N_22
REMARK   11  A    between atoms: N_25  and  C_26
REMARK   12  A    between atoms: C_26  and  C_27
REMARK                            x       y       z     vdW  Elec       q    Type
REMARK                         _______ _______ _______ _____ _____    ______ ____
ROOT
ATOM      1  C   UNL     1       3.721   4.560  18.590  0.00  0.00    +0.000 C 
ATOM      2  C   UNL     1       2.306   4.762  17.987  0.00  0.00    +0.000 C 
ATOM      3  C   UNL     1       2.167   6.178  17.459  0.00  0.00    +0.000 C 
ATOM      4  N   UNL     1       2.250   7.162  18.549  0.00  0.00    +0.000 NA
ATOM      5  C   UNL     1       3.432   6.994  19.408  0.00  0.00    +0.000 C 
ATOM      6  C   UNL     1       3.727   5.542  19.801  0.00  0.00    +0.000 C 
ENDROOT
BRANCH   1   9
ATOM      7  C   UNL     1       4.652   4.300  16.241  0.00  0.00    +0.000 C 
ATOM      8  O   UNL     1       3.777   3.478  15.959  0.00  0.00    +0.000 OA
ATOM      9  N   UNL     1       4.813   4.809  17.546  0.00  0.00    +0.000 N 
BRANCH   9  10
ATOM     10  C   UNL     1       5.920   5.653  17.857  0.00  0.00    +0.000 A 
ATOM     11  C   UNL     1       6.027   6.908  17.239  0.00  0.00    +0.000 A 
ATOM     12  C   UNL     1       7.096   7.758  17.504  0.00  0.00    +0.000 A 
ATOM     13  C   UNL     1       8.089   7.350  18.391  0.00  0.00    +0.000 A 
ATOM     14  C   UNL     1       7.997   6.105  19.011  0.00  0.00    +0.000 A 
ATOM     15  C   UNL     1       6.915   5.254  18.753  0.00  0.00    +0.000 A 
ENDBRANCH   9  10
BRANCH   7  17
ATOM     16  C   UNL     1       6.236   3.730  14.331  0.00  0.00    +0.000 C 
ATOM     17  C   UNL     1       5.582   4.831  15.149  0.00  0.00    +0.000 C 
ENDBRANCH   7  17
ENDBRANCH   1   9
BRANCH   1  18
ATOM     18  C   UNL     1       3.767   3.123  19.182  0.00  0.00    +0.000 C 
ATOM     19  O   UNL     1       4.769   2.643  19.715  0.00  0.00    +0.000 OA
BRANCH  18  20
ATOM     20  O   UNL     1       2.610   2.440  18.999  0.00  0.00    +0.000 OA
ATOM     21  C   UNL     1       1.857   2.216  20.193  0.00  0.00    +0.000 C 
ENDBRANCH  18  20
ENDBRANCH   1  18
BRANCH   4  22
ATOM     22  C   UNL     1       2.218   8.540  18.011  0.00  0.00    +0.000 C 
BRANCH  22  23
ATOM     23  C   UNL     1       0.907   9.275  18.325  0.00  0.00    +0.000 C 
BRANCH  23  24
ATOM     24  N   UNL     1       1.040  10.151  19.454  0.00  0.00    +0.000 N 
ATOM     25  N   UNL     1       1.237   9.700  20.729  0.00  0.00    +0.000 NA
ATOM     26  N   UNL     1       1.003  10.649  21.541  0.00  0.00    +0.000 NA
ATOM     27  N   UNL     1       0.607  11.747  20.829  0.00  0.00    +0.000 N 
ATOM     28  C   UNL     1       0.581  11.451  19.487  0.00  0.00    +0.000 A 
ATOM     29  O   UNL     1       0.204  12.145  18.559  0.00  0.00    +0.000 OA
BRANCH  27  30
ATOM     30  C   UNL     1       0.135  12.960  21.431  0.00  0.00    +0.000 C 
BRANCH  30  31
ATOM     31  C   UNL     1       1.115  14.114  21.304  0.00  0.00    +0.000 C 
ATOM     32  N   UNL     1       1.210  14.763  20.112  0.00  0.00    +0.000 N 
ATOM     33  O   UNL     1       1.850  14.450  22.240  0.00  0.00    +0.000 OA
ATOM     34  H   UNL     1       0.851  14.344  19.262  0.00  0.00    +0.000 HD
ATOM     35  H   UNL     1       1.939  15.462  20.035  0.00  0.00    +0.000 HD
ENDBRANCH  30  31
ENDBRANCH  27  30
ENDBRANCH  23  24
ENDBRANCH  22  23
ENDBRANCH   4  22
TORSDOF 10
ENDMDL
MODEL 6
REMARK VINA RESULT:      -6.5      1.200      1.205
REMARK  Name = 
REMARK  12 active torsions:
REMARK  status: ('A' for Active; 'I' for Inactive)
REMARK    1  A    between atoms: C_1  and  C_2
REMARK    2  A    between atoms: C_2  and  C_3
REMARK    3  A    between atoms: N_5  and  C_6
REMARK    4  A    between atoms: N_5  and  C_12
REMARK    5  A    between atoms: C_12  and  C_13
REMARK    6  A    between atoms: C_13  and  O_15
REMARK    7  A    between atoms: O_15  and  C_16
REMARK    8  A    between atoms: N_19  and  C_20
REMARK    9  A    between atoms: C_20  and  C_21
REMARK   10  A    between atoms: C_21  and  N_22
REMARK   11  A    between atoms: N_25  and  C_26
REMARK   12  A    between atoms: C_26  and  C_27
REMARK                            x       y       z     vdW  Elec       q    Type
REMARK                         _______ _______ _______ _____ _____    ______ ____
ROOT
ATOM      1  C   UNL     1       3.894   4.305  18.909  0.00  0.00    +0.000 C 
ATOM      2  C   UNL     1       2.490   4.251  18.252  0.00  0.00    +0.000 C 
ATOM      3  C   UNL     1       2.252   5.511  17.439  0.00  0.00    +0.000 C 
ATOM      4  N   UNL     1       2.212   6.701  18.303  0.00  0.00    +0.000 NA
ATOM      5  C   UNL     1       3.372   6.819  19.200  0.00  0.00    +0.000 C 
ATOM      6  C   UNL     1       3.773   5.511  19.891  0.00  0.00    +0.000 C 
ENDROOT
BRANCH   1   9
ATOM      7  C   UNL     1       4.953   3.622  16.704  0.00  0.00    +0.000 C 
ATOM      8  O   UNL     1       4.186   2.661  16.605  0.00  0.00    +0.000 OA
ATOM      9  N   UNL     1       4.999   4.432  17.857  0.00  0.00    +0.000 N 
BRANCH   9  10
ATOM     10  C   UNL     1       5.992   5.448  17.983  0.00  0.00    +0.000 A 
ATOM     11  C   UNL     1       7.043   5.279  18.896  0.00  0.00    +0.000 A 
ATOM     12  C   UNL     1       8.027   6.250  19.059  0.00  0.00    +0.000 A 
ATOM     13  C   UNL     1       7.959   7.422  18.309  0.00  0.00    +0.000 A 
ATOM     14  C   UNL     1       6.919   7.605  17.399  0.00  0.00    +0.000 A 
ATOM     15  C   UNL     1       5.936   6.622  17.226  0.00  0.00    +0.000 A 
ENDBRANCH   9  10
BRANCH   7  17
ATOM     16  C   UNL     1       5.128   4.141  14.218  0.00  0.00    +0.000 C 
ATOM     17  C   UNL     1       5.869   3.991  15.536  0.00  0.00    +0.000 C 
ENDBRANCH   7  17
ENDBRANCH   1   9
BRANCH   1  18
ATOM     18  C   UNL     1       4.039   3.031  19.787  0.00  0.00    +0.000 C 
ATOM     19  O   UNL     1       5.127   2.540  20.092  0.00  0.00    +0.000 OA
BRANCH  18  20
ATOM     20  O   UNL     1       2.845   2.489  20.132  0.00  0.00    +0.000 OA
ATOM     21  C   UNL     1       2.536   2.569  21.526  0.00  0.00    +0.000 C 
ENDBRANCH  18  20
ENDBRANCH   1  18
BRANCH   4  22
ATOM     22  C   UNL     1       2.084   7.931  17.491  0.00  0.00    +0.000 C 
BRANCH  22  23
ATOM     23  C   UNL     1       2.639   9.176  18.199  0.00  0.00    +0.000 C 
BRANCH  23  24
ATOM     24  N   UNL     1       1.594   9.989  18.753  0.00  0.00    +0.000 N 
ATOM     25  N   UNL     1       0.372   9.491  19.108  0.00  0.00    +0.000 NA
ATOM     26  N   UNL     1      -0.436  10.459  19.263  0.00  0.00    +0.000 NA
ATOM     27  N   UNL     1       0.218  11.625  18.978  0.00  0.00    +0.000 N 
ATOM     28  C   UNL     1       1.514  11.357  18.607  0.00  0.00    +0.000 A 
ATOM     29  O   UNL     1       2.369  12.128  18.206  0.00  0.00    +0.000 OA
BRANCH  27  30
ATOM     30  C   UNL     1      -0.424  12.907  18.919  0.00  0.00    +0.000 C 
BRANCH  30  31
ATOM     31  C   UNL     1      -1.754  12.946  19.654  0.00  0.00    +0.000 C 
ATOM     32  N   UNL     1      -2.860  12.459  19.029  0.00  0.00    +0.000 N 
ATOM     33  O   UNL     1      -1.860  13.443  20.781  0.00  0.00    +0.000 OA
ATOM     34  H   UNL     1      -2.871  12.319  18.026  0.00  0.00    +0.000 HD
ATOM     35  H   UNL     1      -3.742  12.588  19.508  0.00  0.00    +0.000 HD
ENDBRANCH  30  31
ENDBRANCH  27  30
ENDBRANCH  23  24
ENDBRANCH  22  23
ENDBRANCH   4  22
TORSDOF 10
ENDMDL
MODEL 7
REMARK VINA RESULT:      -6.5      1.124      1.228
REMARK  Name = 
REMARK  12 active torsions:
REMARK  status: ('A' for Active; 'I' for Inactive)
REMARK    1  A    between atoms: C_1  and  C_2
REMARK    2  A    between atoms: C_2  and  C_3
REMARK    3  A    between atoms: N_5  and  C_6
REMARK    4  A    between atoms: N_5  and  C_12
REMARK    5  A    between atoms: C_12  and  C_13
REMARK    6  A    between atoms: C_13  and  O_15
REMARK    7  A    between atoms: O_15  and  C_16
REMARK    8  A    between atoms: N_19  and  C_20
REMARK    9  A    between atoms: C_20  and  C_21
REMARK   10  A    between atoms: C_21  and  N_22
REMARK   11  A    between atoms: N_25  and  C_26
REMARK   12  A    between atoms: C_26  and  C_27
REMARK                            x       y       z     vdW  Elec       q    Type
REMARK                         _______ _______ _______ _____ _____    ______ ____
ROOT
ATOM      1  C   UNL     1       3.841   4.279  18.992  0.00  0.00    +0.000 C 
ATOM      2  C   UNL     1       2.442   4.405  18.336  0.00  0.00    +0.000 C 
ATOM      3  C   UNL     1       2.336   5.726  17.595  0.00  0.00    +0.000 C 
ATOM      4  N   UNL     1       2.415   6.864  18.524  0.00  0.00    +0.000 NA
ATOM      5  C   UNL     1       3.578   6.813  19.423  0.00  0.00    +0.000 C 
ATOM      6  C   UNL     1       3.842   5.434  20.039  0.00  0.00    +0.000 C 
ENDROOT
BRANCH   1   9
ATOM      7  C   UNL     1       4.900   3.510  16.815  0.00  0.00    +0.000 C 
ATOM      8  O   UNL     1       4.111   2.566  16.736  0.00  0.00    +0.000 OA
ATOM      9  N   UNL     1       4.957   4.351  17.946  0.00  0.00    +0.000 N 
BRANCH   9  10
ATOM     10  C   UNL     1       5.973   5.346  18.051  0.00  0.00    +0.000 A 
ATOM     11  C   UNL     1       7.019   5.171  18.969  0.00  0.00    +0.000 A 
ATOM     12  C   UNL     1       8.025   6.122  19.113  0.00  0.00    +0.000 A 
ATOM     13  C   UNL     1       7.985   7.280  18.339  0.00  0.00    +0.000 A 
ATOM     14  C   UNL     1       6.950   7.469  17.425  0.00  0.00    +0.000 A 
ATOM     15  C   UNL     1       5.944   6.505  17.271  0.00  0.00    +0.000 A 
ENDBRANCH   9  10
BRANCH   7  17
ATOM     16  C   UNL     1       5.118   4.455  14.461  0.00  0.00    +0.000 C 
ATOM     17  C   UNL     1       5.833   3.826  15.644  0.00  0.00    +0.000 C 
ENDBRANCH   7  17
ENDBRANCH   1   9
BRANCH   1  18
ATOM     18  C   UNL     1       3.853   2.949  19.797  0.00  0.00    +0.000 C 
ATOM     19  O   UNL     1       4.885   2.343  20.087  0.00  0.00    +0.000 OA
BRANCH  18  20
ATOM     20  O   UNL     1       2.608   2.503  20.095  0.00  0.00    +0.000 OA
ATOM     21  C   UNL     1       2.276   2.549  21.485  0.00  0.00    +0.000 C 
ENDBRANCH  18  20
ENDBRANCH   1  18
BRANCH   4  22
ATOM     22  C   UNL     1       2.415   8.144  17.782  0.00  0.00    +0.000 C 
BRANCH  22  23
ATOM     23  C   UNL     1       1.012   8.748  17.629  0.00  0.00    +0.000 C 
BRANCH  23  24
ATOM     24  N   UNL     1       0.988  10.143  17.967  0.00  0.00    +0.000 N 
ATOM     25  N   UNL     1       2.121  10.882  18.158  0.00  0.00    +0.000 NA
ATOM     26  N   UNL     1       1.809  11.966  18.743  0.00  0.00    +0.000 NA
ATOM     27  N   UNL     1       0.464  11.960  18.990  0.00  0.00    +0.000 N 
ATOM     28  C   UNL     1      -0.089  10.785  18.541  0.00  0.00    +0.000 A 
ATOM     29  O   UNL     1      -1.234  10.386  18.657  0.00  0.00    +0.000 OA
BRANCH  27  30
ATOM     30  C   UNL     1      -0.211  12.967  19.756  0.00  0.00    +0.000 C 
BRANCH  30  31
ATOM     31  C   UNL     1      -0.398  12.587  21.216  0.00  0.00    +0.000 C 
ATOM     32  N   UNL     1      -1.477  11.835  21.562  0.00  0.00    +0.000 N 
ATOM     33  O   UNL     1       0.381  12.976  22.094  0.00  0.00    +0.000 OA
ATOM     34  H   UNL     1      -2.272  11.748  20.939  0.00  0.00    +0.000 HD
ATOM     35  H   UNL     1      -1.622  11.682  22.552  0.00  0.00    +0.000 HD
ENDBRANCH  30  31
ENDBRANCH  27  30
ENDBRANCH  23  24
ENDBRANCH  22  23
ENDBRANCH   4  22
TORSDOF 10
ENDMDL
MODEL 8
REMARK VINA RESULT:      -6.5      0.723      1.278
REMARK  Name = 
REMARK  12 active torsions:
REMARK  status: ('A' for Active; 'I' for Inactive)
REMARK    1  A    between atoms: C_1  and  C_2
REMARK    2  A    between atoms: C_2  and  C_3
REMARK    3  A    between atoms: N_5  and  C_6
REMARK    4  A    between atoms: N_5  and  C_12
REMARK    5  A    between atoms: C_12  and  C_13
REMARK    6  A    between atoms: C_13  and  O_15
REMARK    7  A    between atoms: O_15  and  C_16
REMARK    8  A    between atoms: N_19  and  C_20
REMARK    9  A    between atoms: C_20  and  C_21
REMARK   10  A    between atoms: C_21  and  N_22
REMARK   11  A    between atoms: N_25  and  C_26
REMARK   12  A    between atoms: C_26  and  C_27
REMARK                            x       y       z     vdW  Elec       q    Type
REMARK                         _______ _______ _______ _____ _____    ______ ____
ROOT
ATOM      1  C   UNL     1       3.739   4.304  18.822  0.00  0.00    +0.000 C 
ATOM      2  C   UNL     1       2.383   4.559  18.114  0.00  0.00    +0.000 C 
ATOM      3  C   UNL     1       2.387   5.934  17.472  0.00  0.00    +0.000 C 
ATOM      4  N   UNL     1       2.482   6.995  18.485  0.00  0.00    +0.000 NA
ATOM      5  C   UNL     1       3.594   6.811  19.431  0.00  0.00    +0.000 C 
ATOM      6  C   UNL     1       3.751   5.378  19.953  0.00  0.00    +0.000 C 
ENDROOT
BRANCH   1   9
ATOM      7  C   UNL     1       4.889   3.589  16.673  0.00  0.00    +0.000 C 
ATOM      8  O   UNL     1       4.082   2.669  16.519  0.00  0.00    +0.000 OA
ATOM      9  N   UNL     1       4.907   4.386  17.837  0.00  0.00    +0.000 N 
BRANCH   9  10
ATOM     10  C   UNL     1       5.940   5.350  18.030  0.00  0.00    +0.000 A 
ATOM     11  C   UNL     1       5.962   6.508  17.239  0.00  0.00    +0.000 A 
ATOM     12  C   UNL     1       6.958   7.469  17.387  0.00  0.00    +0.000 A 
ATOM     13  C   UNL     1       7.964   7.271  18.330  0.00  0.00    +0.000 A 
ATOM     14  C   UNL     1       7.956   6.123  19.122  0.00  0.00    +0.000 A 
ATOM     15  C   UNL     1       6.946   5.162  18.982  0.00  0.00    +0.000 A 
ENDBRANCH   9  10
BRANCH   7  17
ATOM     16  C   UNL     1       5.222   4.395  14.282  0.00  0.00    +0.000 C 
ATOM     17  C   UNL     1       5.887   3.924  15.563  0.00  0.00    +0.000 C 
ENDBRANCH   7  17
ENDBRANCH   1   9
BRANCH   1  18
ATOM     18  C   UNL     1       3.637   2.921  19.525  0.00  0.00    +0.000 C 
ATOM     19  O   UNL     1       2.566   2.392  19.826  0.00  0.00    +0.000 OA
BRANCH  18  20
ATOM     20  O   UNL     1       4.849   2.389  19.819  0.00  0.00    +0.000 OA
ATOM     21  C   UNL     1       4.879   1.600  21.011  0.00  0.00    +0.000 C 
ENDBRANCH  18  20
ENDBRANCH   1  18
BRANCH   4  22
ATOM     22  C   UNL     1       2.590   8.323  17.843  0.00  0.00    +0.000 C 
BRANCH  22  23
ATOM     23  C   UNL     1       1.286   9.130  17.913  0.00  0.00    +0.000 C 
BRANCH  23  24
ATOM     24  N   UNL     1       1.172   9.860  19.143  0.00  0.00    +0.000 N 
ATOM     25  N   UNL     1       0.558   9.355  20.255  0.00  0.00    +0.000 NA
ATOM     26  N   UNL     1       0.328  10.307  21.065  0.00  0.00    +0.000 NA
ATOM     27  N   UNL     1       0.748  11.477  20.496  0.00  0.00    +0.000 N 
ATOM     28  C   UNL     1       1.260  11.232  19.244  0.00  0.00    +0.000 A 
ATOM     29  O   UNL     1       1.652  12.030  18.410  0.00  0.00    +0.000 OA
BRANCH  27  30
ATOM     30  C   UNL     1       0.523  12.771  21.073  0.00  0.00    +0.000 C 
BRANCH  30  31
ATOM     31  C   UNL     1      -0.598  12.783  22.099  0.00  0.00    +0.000 C 
ATOM     32  N   UNL     1      -1.839  12.378  21.717  0.00  0.00    +0.000 N 
ATOM     33  O   UNL     1      -0.418  13.187  23.254  0.00  0.00    +0.000 OA
ATOM     34  H   UNL     1      -2.088  12.322  20.737  0.00  0.00    +0.000 HD
ATOM     35  H   UNL     1      -2.580  12.489  22.398  0.00  0.00    +0.000 HD
ENDBRANCH  30  31
ENDBRANCH  27  30
ENDBRANCH  23  24
ENDBRANCH  22  23
ENDBRANCH   4  22
TORSDOF 10
ENDMDL
MODEL 9
REMARK VINA RESULT:      -6.4      1.512      1.893
REMARK  Name = 
REMARK  12 active torsions:
REMARK  status: ('A' for Active; 'I' for Inactive)
REMARK    1  A    between atoms: C_1  and  C_2
REMARK    2  A    between atoms: C_2  and  C_3
REMARK    3  A    between atoms: N_5  and  C_6
REMARK    4  A    between atoms: N_5  and  C_12
REMARK    5  A    between atoms: C_12  and  C_13
REMARK    6  A    between atoms: C_13  and  O_15
REMARK    7  A    between atoms: O_15  and  C_16
REMARK    8  A    between atoms: N_19  and  C_20
REMARK    9  A    between atoms: C_20  and  C_21
REMARK   10  A    between atoms: C_21  and  N_22
REMARK   11  A    between atoms: N_25  and  C_26
REMARK   12  A    between atoms: C_26  and  C_27
REMARK                            x       y       z     vdW  Elec       q    Type
REMARK                         _______ _______ _______ _____ _____    ______ ____
ROOT
ATOM      1  C   UNL     1       3.767   4.437  18.549  0.00  0.00    +0.000 C 
ATOM      2  C   UNL     1       2.334   4.714  18.027  0.00  0.00    +0.000 C 
ATOM      3  C   UNL     1       2.201   6.174  17.634  0.00  0.00    +0.000 C 
ATOM      4  N   UNL     1       2.346   7.055  18.802  0.00  0.00    +0.000 NA
ATOM      5  C   UNL     1       3.559   6.792  19.593  0.00  0.00    +0.000 C 
ATOM      6  C   UNL     1       3.842   5.306  19.842  0.00  0.00    +0.000 C 
ENDROOT
BRANCH   1   9
ATOM      7  C   UNL     1       4.632   4.310  16.164  0.00  0.00    +0.000 C 
ATOM      8  O   UNL     1       3.769   3.481  15.869  0.00  0.00    +0.000 OA
ATOM      9  N   UNL     1       4.821   4.762  17.487  0.00  0.00    +0.000 N 
BRANCH   9  10
ATOM     10  C   UNL     1       5.916   5.619  17.805  0.00  0.00    +0.000 A 
ATOM     11  C   UNL     1       5.980   6.899  17.236  0.00  0.00    +0.000 A 
ATOM     12  C   UNL     1       7.036   7.763  17.509  0.00  0.00    +0.000 A 
ATOM     13  C   UNL     1       8.060   7.343  18.354  0.00  0.00    +0.000 A 
ATOM     14  C   UNL     1       8.012   6.072  18.925  0.00  0.00    +0.000 A 
ATOM     15  C   UNL     1       6.942   5.207  18.659  0.00  0.00    +0.000 A 
ENDBRANCH   9  10
BRANCH   7  17
ATOM     16  C   UNL     1       6.449   3.904  14.427  0.00  0.00    +0.000 C 
ATOM     17  C   UNL     1       5.516   4.915  15.072  0.00  0.00    +0.000 C 
ENDBRANCH   7  17
ENDBRANCH   1   9
BRANCH   1  18
ATOM     18  C   UNL     1       3.810   2.953  19.009  0.00  0.00    +0.000 C 
ATOM     19  O   UNL     1       2.940   2.130  18.720  0.00  0.00    +0.000 OA
BRANCH  18  20
ATOM     20  O   UNL     1       4.874   2.678  19.804  0.00  0.00    +0.000 OA
ATOM     21  C   UNL     1       4.614   1.721  20.835  0.00  0.00    +0.000 C 
ENDBRANCH  18  20
ENDBRANCH   1  18
BRANCH   4  22
ATOM     22  C   UNL     1       2.319   8.476  18.392  0.00  0.00    +0.000 C 
BRANCH  22  23
ATOM     23  C   UNL     1       1.050   8.850  17.613  0.00  0.00    +0.000 C 
BRANCH  23  24
ATOM     24  N   UNL     1       0.352   9.949  18.219  0.00  0.00    +0.000 N 
ATOM     25  N   UNL     1       0.732  10.508  19.406  0.00  0.00    +0.000 NA
ATOM     26  N   UNL     1      -0.221  11.223  19.846  0.00  0.00    +0.000 NA
ATOM     27  N   UNL     1      -1.275  11.129  18.980  0.00  0.00    +0.000 N 
ATOM     28  C   UNL     1      -0.956  10.286  17.943  0.00  0.00    +0.000 A 
ATOM     29  O   UNL     1      -1.663   9.895  17.030  0.00  0.00    +0.000 OA
BRANCH  27  30
ATOM     30  C   UNL     1      -2.567  11.701  19.230  0.00  0.00    +0.000 C 
BRANCH  30  31
ATOM     31  C   UNL     1      -2.530  12.863  20.208  0.00  0.00    +0.000 C 
ATOM     32  N   UNL     1      -1.789  13.959  19.892  0.00  0.00    +0.000 N 
ATOM     33  O   UNL     1      -3.121  12.820  21.293  0.00  0.00    +0.000 OA
ATOM     34  H   UNL     1      -1.076  13.915  19.173  0.00  0.00    +0.000 HD
ATOM     35  H   UNL     1      -1.710  14.672  20.607  0.00  0.00    +0.000 HD
ENDBRANCH  30  31
ENDBRANCH  27  30
ENDBRANCH  23  24
ENDBRANCH  22  23
ENDBRANCH   4  22
TORSDOF 10
ENDMDL
