MODEL 1
REMARK VINA RESULT:      -8.2      0.000      0.000
REMARK  Name = 
REMARK  4 active torsions:
REMARK  status: ('A' for Active; 'I' for Inactive)
REMARK    1  A    between atoms: C_1  and  C_2
REMARK    2  A    between atoms: C_7  and  N_8
REMARK    3  A    between atoms: C_9  and  C_11
REMARK    4  A    between atoms: N_24  and  C_25
REMARK                            x       y       z     vdW  Elec       q    Type
REMARK                         _______ _______ _______ _____ _____    ______ ____
ROOT
ATOM      1  C   UNL     1       2.549   6.743  18.734  0.00  0.00    +0.000 A 
ATOM      2  C   UNL     1       2.274   8.040  18.316  0.00  0.00    +0.000 A 
ATOM      3  C   UNL     1       1.585   8.697  19.349  0.00  0.00    +0.000 A 
ATOM      4  C   UNL     1       1.042  10.026  19.449  0.00  0.00    +0.000 A 
ATOM      5  O   UNL     1       1.157  10.836  18.532  0.00  0.00    +0.000 OA
ATOM      6  N   UNL     1       0.392  10.271  20.668  0.00  0.00    +0.000 N 
ATOM      7  C   UNL     1      -0.194  11.517  20.856  0.00  0.00    +0.000 A 
ATOM      8  C   UNL     1      -0.829  11.843  21.987  0.00  0.00    +0.000 A 
ATOM      9  C   UNL     1      -0.911  10.890  23.060  0.00  0.00    +0.000 A 
ATOM     10  C   UNL     1      -0.368   9.670  22.935  0.00  0.00    +0.000 A 
ATOM     11  C   UNL     1       0.332   9.279  21.674  0.00  0.00    +0.000 A 
ATOM     12  N   UNL     1       0.837   8.074  21.580  0.00  0.00    +0.000 NA
ATOM     13  C   UNL     1       1.444   7.821  20.396  0.00  0.00    +0.000 A 
ATOM     14  N   UNL     1       2.024   6.630  20.022  0.00  0.00    +0.000 N 
ATOM     15  C   UNL     1       2.117   5.448  20.855  0.00  0.00    +0.000 C 
ENDROOT
BRANCH   1  17
ATOM     16  N   UNL     1       4.533   5.957  17.698  0.00  0.00    +0.000 N 
ATOM     17  C   UNL     1       3.211   5.685  17.987  0.00  0.00    +0.000 C 
ATOM     18  O   UNL     1       2.658   4.646  17.645  0.00  0.00    +0.000 OA
ATOM     19  H   UNL     1       4.924   6.828  18.027  0.00  0.00    +0.000 HD
BRANCH  16  26
ATOM     20  C   UNL     1       7.438   5.545  18.262  0.00  0.00    +0.000 C 
ATOM     21  C   UNL     1       6.833   5.603  16.857  0.00  0.00    +0.000 C 
ATOM     22  C   UNL     1       7.687   4.765  15.892  0.00  0.00    +0.000 C 
ATOM     23  C   UNL     1       7.132   4.805  14.473  0.00  0.00    +0.000 C 
ATOM     24  C   UNL     1       5.676   4.358  14.431  0.00  0.00    +0.000 C 
ATOM     25  C   UNL     1       4.810   5.162  15.399  0.00  0.00    +0.000 C 
ATOM     26  C   UNL     1       5.361   5.126  16.834  0.00  0.00    +0.000 C 
ENDBRANCH  16  26
ENDBRANCH   1  17
TORSDOF 2
ENDMDL
MODEL 2
REMARK VINA RESULT:      -7.6      1.576      2.338
REMARK  Name = 
REMARK  4 active torsions:
REMARK  status: ('A' for Active; 'I' for Inactive)
REMARK    1  A    between atoms: C_1  and  C_2
REMARK    2  A    between atoms: C_7  and  N_8
REMARK    3  A    between atoms: C_9  and  C_11
REMARK    4  A    between atoms: N_24  and  C_25
REMARK                            x       y       z     vdW  Elec       q    Type
REMARK                         _______ _______ _______ _____ _____    ______ ____
ROOT
ATOM      1  C   UNL     1       2.235   7.140  19.612  0.00  0.00    +0.000 A 
ATOM      2  C   UNL     1       1.671   7.379  20.860  0.00  0.00    +0.000 A 
ATOM      3  C   UNL     1       1.112   8.668  20.849  0.00  0.00    +0.000 A 
ATOM      4  C   UNL     1       0.433   9.430  21.864  0.00  0.00    +0.000 A 
ATOM      5  O   UNL     1       0.227   8.967  22.983  0.00  0.00    +0.000 OA
ATOM      6  N   UNL     1       0.055  10.712  21.436  0.00  0.00    +0.000 N 
ATOM      7  C   UNL     1      -0.582  11.543  22.351  0.00  0.00    +0.000 A 
ATOM      8  C   UNL     1      -0.985  12.778  22.032  0.00  0.00    +0.000 A 
ATOM      9  C   UNL     1      -0.768  13.278  20.701  0.00  0.00    +0.000 A 
ATOM     10  C   UNL     1      -0.155  12.523  19.778  0.00  0.00    +0.000 A 
ATOM     11  C   UNL     1       0.317  11.147  20.117  0.00  0.00    +0.000 A 
ATOM     12  N   UNL     1       0.928  10.444  19.195  0.00  0.00    +0.000 NA
ATOM     13  C   UNL     1       1.318   9.214  19.608  0.00  0.00    +0.000 A 
ATOM     14  N   UNL     1       2.007   8.290  18.856  0.00  0.00    +0.000 N 
ATOM     15  C   UNL     1       2.398   8.463  17.472  0.00  0.00    +0.000 C 
ENDROOT
BRANCH   1  17
ATOM     16  N   UNL     1       4.170   6.242  18.575  0.00  0.00    +0.000 N 
ATOM     17  C   UNL     1       2.957   5.958  19.171  0.00  0.00    +0.000 C 
ATOM     18  O   UNL     1       2.541   4.813  19.314  0.00  0.00    +0.000 OA
ATOM     19  H   UNL     1       4.454   7.208  18.506  0.00  0.00    +0.000 HD
BRANCH  16  26
ATOM     20  C   UNL     1       6.938   5.656  19.533  0.00  0.00    +0.000 C 
ATOM     21  C   UNL     1       6.503   5.592  18.067  0.00  0.00    +0.000 C 
ATOM     22  C   UNL     1       7.372   4.573  17.314  0.00  0.00    +0.000 C 
ATOM     23  C   UNL     1       6.987   4.485  15.842  0.00  0.00    +0.000 C 
ATOM     24  C   UNL     1       5.507   4.162  15.672  0.00  0.00    +0.000 C 
ATOM     25  C   UNL     1       4.623   5.150  16.430  0.00  0.00    +0.000 C 
ATOM     26  C   UNL     1       5.003   5.244  17.917  0.00  0.00    +0.000 C 
ENDBRANCH  16  26
ENDBRANCH   1  17
TORSDOF 2
ENDMDL
MODEL 3
REMARK VINA RESULT:      -7.6      3.315      4.643
REMARK  Name = 
REMARK  4 active torsions:
REMARK  status: ('A' for Active; 'I' for Inactive)
REMARK    1  A    between atoms: C_1  and  C_2
REMARK    2  A    between atoms: C_7  and  N_8
REMARK    3  A    between atoms: C_9  and  C_11
REMARK    4  A    between atoms: N_24  and  C_25
REMARK                            x       y       z     vdW  Elec       q    Type
REMARK                         _______ _______ _______ _____ _____    ______ ____
ROOT
ATOM      1  C   UNL     1       1.475   8.352  20.191  0.00  0.00    +0.000 A 
ATOM      2  C   UNL     1       1.002   8.685  21.454  0.00  0.00    +0.000 A 
ATOM      3  C   UNL     1       0.413   9.958  21.381  0.00  0.00    +0.000 A 
ATOM      4  C   UNL     1      -0.205  10.791  22.379  0.00  0.00    +0.000 A 
ATOM      5  O   UNL     1      -0.315  10.420  23.545  0.00  0.00    +0.000 OA
ATOM      6  N   UNL     1      -0.645  12.026  21.878  0.00  0.00    +0.000 N 
ATOM      7  C   UNL     1      -1.230  12.919  22.767  0.00  0.00    +0.000 A 
ATOM      8  C   UNL     1      -1.685  14.115  22.380  0.00  0.00    +0.000 A 
ATOM      9  C   UNL     1      -1.582  14.506  21.001  0.00  0.00    +0.000 A 
ATOM     10  C   UNL     1      -1.022  13.688  20.097  0.00  0.00    +0.000 A 
ATOM     11  C   UNL     1      -0.493  12.353  20.511  0.00  0.00    +0.000 A 
ATOM     12  N   UNL     1       0.062  11.586  19.605  0.00  0.00    +0.000 NA
ATOM     13  C   UNL     1       0.512  10.402  20.087  0.00  0.00    +0.000 A 
ATOM     14  N   UNL     1       1.164   9.430  19.362  0.00  0.00    +0.000 N 
ATOM     15  C   UNL     1       1.445   9.493  17.942  0.00  0.00    +0.000 C 
ENDROOT
BRANCH   1  17
ATOM     16  N   UNL     1       1.587   5.982  20.217  0.00  0.00    +0.000 N 
ATOM     17  C   UNL     1       2.191   7.149  19.793  0.00  0.00    +0.000 C 
ATOM     18  O   UNL     1       3.228   7.159  19.140  0.00  0.00    +0.000 OA
ATOM     19  H   UNL     1       0.725   6.052  20.738  0.00  0.00    +0.000 HD
BRANCH  16  26
ATOM     20  C   UNL     1       1.504   4.509  17.620  0.00  0.00    +0.000 C 
ATOM     21  C   UNL     1       1.453   3.835  18.994  0.00  0.00    +0.000 C 
ATOM     22  C   UNL     1       2.048   2.422  18.898  0.00  0.00    +0.000 C 
ATOM     23  C   UNL     1       2.006   1.703  20.242  0.00  0.00    +0.000 C 
ATOM     24  C   UNL     1       2.706   2.511  21.329  0.00  0.00    +0.000 C 
ATOM     25  C   UNL     1       2.146   3.928  21.428  0.00  0.00    +0.000 C 
ATOM     26  C   UNL     1       2.187   4.662  20.077  0.00  0.00    +0.000 C 
ENDBRANCH  16  26
ENDBRANCH   1  17
TORSDOF 2
ENDMDL
MODEL 4
REMARK VINA RESULT:      -7.5      2.501      3.935
REMARK  Name = 
REMARK  4 active torsions:
REMARK  status: ('A' for Active; 'I' for Inactive)
REMARK    1  A    between atoms: C_1  and  C_2
REMARK    2  A    between atoms: C_7  and  N_8
REMARK    3  A    between atoms: C_9  and  C_11
REMARK    4  A    between atoms: N_24  and  C_25
REMARK                            x       y       z     vdW  Elec       q    Type
REMARK                         _______ _______ _______ _____ _____    ______ ____
ROOT
ATOM      1  C   UNL     1       1.391   8.717  19.573  0.00  0.00    +0.000 A 
ATOM      2  C   UNL     1       1.261   8.808  20.954  0.00  0.00    +0.000 A 
ATOM      3  C   UNL     1       0.278   9.770  21.239  0.00  0.00    +0.000 A 
ATOM      4  C   UNL     1      -0.237  10.280  22.483  0.00  0.00    +0.000 A 
ATOM      5  O   UNL     1       0.166   9.858  23.565  0.00  0.00    +0.000 OA
ATOM      6  N   UNL     1      -1.211  11.276  22.315  0.00  0.00    +0.000 N 
ATOM      7  C   UNL     1      -1.753  11.856  23.456  0.00  0.00    +0.000 A 
ATOM      8  C   UNL     1      -2.691  12.807  23.395  0.00  0.00    +0.000 A 
ATOM      9  C   UNL     1      -3.174  13.252  22.116  0.00  0.00    +0.000 A 
ATOM     10  C   UNL     1      -2.685  12.732  20.980  0.00  0.00    +0.000 A 
ATOM     11  C   UNL     1      -1.626  11.679  21.025  0.00  0.00    +0.000 A 
ATOM     12  N   UNL     1      -1.160  11.205  19.896  0.00  0.00    +0.000 NA
ATOM     13  C   UNL     1      -0.200  10.261  20.050  0.00  0.00    +0.000 A 
ATOM     14  N   UNL     1       0.480   9.626  19.035  0.00  0.00    +0.000 N 
ATOM     15  C   UNL     1       0.254   9.835  17.620  0.00  0.00    +0.000 C 
ENDROOT
BRANCH   1  17
ATOM     16  N   UNL     1       2.243   6.544  19.148  0.00  0.00    +0.000 N 
ATOM     17  C   UNL     1       2.311   7.882  18.816  0.00  0.00    +0.000 C 
ATOM     18  O   UNL     1       3.074   8.315  17.960  0.00  0.00    +0.000 OA
ATOM     19  H   UNL     1       1.579   6.260  19.853  0.00  0.00    +0.000 HD
BRANCH  16  26
ATOM     20  C   UNL     1       1.261   4.166  17.631  0.00  0.00    +0.000 C 
ATOM     21  C   UNL     1       2.478   4.152  18.559  0.00  0.00    +0.000 C 
ATOM     22  C   UNL     1       3.475   3.081  18.089  0.00  0.00    +0.000 C 
ATOM     23  C   UNL     1       4.700   3.018  18.995  0.00  0.00    +0.000 C 
ATOM     24  C   UNL     1       5.381   4.378  19.106  0.00  0.00    +0.000 C 
ATOM     25  C   UNL     1       4.404   5.464  19.551  0.00  0.00    +0.000 C 
ATOM     26  C   UNL     1       3.165   5.536  18.642  0.00  0.00    +0.000 C 
ENDBRANCH  16  26
ENDBRANCH   1  17
TORSDOF 2
ENDMDL
MODEL 5
REMARK VINA RESULT:      -7.3      2.440      3.458
REMARK  Name = 
REMARK  4 active torsions:
REMARK  status: ('A' for Active; 'I' for Inactive)
REMARK    1  A    between atoms: C_1  and  C_2
REMARK    2  A    between atoms: C_7  and  N_8
REMARK    3  A    between atoms: C_9  and  C_11
REMARK    4  A    between atoms: N_24  and  C_25
REMARK                            x       y       z     vdW  Elec       q    Type
REMARK                         _______ _______ _______ _____ _____    ______ ____
ROOT
ATOM      1  C   UNL     1       1.367   9.000  18.892  0.00  0.00    +0.000 A 
ATOM      2  C   UNL     1       0.602   9.997  18.297  0.00  0.00    +0.000 A 
ATOM      3  C   UNL     1      -0.157  10.623  19.300  0.00  0.00    +0.000 A 
ATOM      4  C   UNL     1      -1.126  11.687  19.250  0.00  0.00    +0.000 A 
ATOM      5  O   UNL     1      -1.411  12.245  18.193  0.00  0.00    +0.000 OA
ATOM      6  N   UNL     1      -1.680  11.994  20.502  0.00  0.00    +0.000 N 
ATOM      7  C   UNL     1      -2.649  12.988  20.560  0.00  0.00    +0.000 A 
ATOM      8  C   UNL     1      -3.229  13.353  21.709  0.00  0.00    +0.000 A 
ATOM      9  C   UNL     1      -2.844  12.712  22.937  0.00  0.00    +0.000 A 
ATOM     10  C   UNL     1      -1.917  11.742  22.942  0.00  0.00    +0.000 A 
ATOM     11  C   UNL     1      -1.269  11.309  21.669  0.00  0.00    +0.000 A 
ATOM     12  N   UNL     1      -0.380  10.347  21.708  0.00  0.00    +0.000 NA
ATOM     13  C   UNL     1       0.142  10.028  20.499  0.00  0.00    +0.000 A 
ATOM     14  N   UNL     1       1.064   9.036  20.253  0.00  0.00    +0.000 N 
ATOM     15  C   UNL     1       1.666   8.186  21.259  0.00  0.00    +0.000 C 
ENDROOT
BRANCH   1  17
ATOM     16  N   UNL     1       2.259   6.803  18.800  0.00  0.00    +0.000 N 
ATOM     17  C   UNL     1       2.276   8.067  18.244  0.00  0.00    +0.000 C 
ATOM     18  O   UNL     1       2.990   8.363  17.293  0.00  0.00    +0.000 OA
ATOM     19  H   UNL     1       1.633   6.630  19.573  0.00  0.00    +0.000 HD
BRANCH  16  26
ATOM     20  C   UNL     1       1.294   4.270  17.545  0.00  0.00    +0.000 C 
ATOM     21  C   UNL     1       2.494   4.359  18.492  0.00  0.00    +0.000 C 
ATOM     22  C   UNL     1       3.494   3.240  18.164  0.00  0.00    +0.000 C 
ATOM     23  C   UNL     1       4.703   3.278  19.094  0.00  0.00    +0.000 C 
ATOM     24  C   UNL     1       5.387   4.640  19.062  0.00  0.00    +0.000 C 
ATOM     25  C   UNL     1       4.407   5.771  19.363  0.00  0.00    +0.000 C 
ATOM     26  C   UNL     1       3.185   5.742  18.429  0.00  0.00    +0.000 C 
ENDBRANCH  16  26
ENDBRANCH   1  17
TORSDOF 2
ENDMDL
MODEL 6
REMARK VINA RESULT:      -7.3      2.505      3.764
REMARK  Name = 
REMARK  4 active torsions:
REMARK  status: ('A' for Active; 'I' for Inactive)
REMARK    1  A    between atoms: C_1  and  C_2
REMARK    2  A    between atoms: C_7  and  N_8
REMARK    3  A    between atoms: C_9  and  C_11
REMARK    4  A    between atoms: N_24  and  C_25
REMARK                            x       y       z     vdW  Elec       q    Type
REMARK                         _______ _______ _______ _____ _____    ______ ____
ROOT
ATOM      1  C   UNL     1       1.806   7.631  19.912  0.00  0.00    +0.000 A 
ATOM      2  C   UNL     1       1.232   7.854  21.158  0.00  0.00    +0.000 A 
ATOM      3  C   UNL     1       0.726   9.164  21.179  0.00  0.00    +0.000 A 
ATOM      4  C   UNL     1       0.062   9.922  22.208  0.00  0.00    +0.000 A 
ATOM      5  O   UNL     1      -0.181   9.433  23.309  0.00  0.00    +0.000 OA
ATOM      6  N   UNL     1      -0.257  11.231  21.815  0.00  0.00    +0.000 N 
ATOM      7  C   UNL     1      -0.874  12.058  22.746  0.00  0.00    +0.000 A 
ATOM      8  C   UNL     1      -1.222  13.318  22.461  0.00  0.00    +0.000 A 
ATOM      9  C   UNL     1      -0.963  13.850  21.150  0.00  0.00    +0.000 A 
ATOM     10  C   UNL     1      -0.365  13.100  20.212  0.00  0.00    +0.000 A 
ATOM     11  C   UNL     1       0.045  11.696  20.515  0.00  0.00    +0.000 A 
ATOM     12  N   UNL     1       0.641  10.998  19.580  0.00  0.00    +0.000 NA
ATOM     13  C   UNL     1       0.975   9.741  19.960  0.00  0.00    +0.000 A 
ATOM     14  N   UNL     1       1.638   8.812  19.189  0.00  0.00    +0.000 N 
ATOM     15  C   UNL     1       2.058   9.012  17.817  0.00  0.00    +0.000 C 
ENDROOT
BRANCH   1  17
ATOM     16  N   UNL     1       1.715   5.649  18.611  0.00  0.00    +0.000 N 
ATOM     17  C   UNL     1       2.487   6.434  19.444  0.00  0.00    +0.000 C 
ATOM     18  O   UNL     1       3.638   6.143  19.750  0.00  0.00    +0.000 OA
ATOM     19  H   UNL     1       0.781   5.962  18.391  0.00  0.00    +0.000 HD
BRANCH  16  26
ATOM     20  C   UNL     1       0.754   3.160  19.954  0.00  0.00    +0.000 C 
ATOM     21  C   UNL     1       2.130   3.309  19.299  0.00  0.00    +0.000 C 
ATOM     22  C   UNL     1       2.618   1.938  18.806  0.00  0.00    +0.000 C 
ATOM     23  C   UNL     1       3.995   2.032  18.159  0.00  0.00    +0.000 C 
ATOM     24  C   UNL     1       4.009   3.050  17.023  0.00  0.00    +0.000 C 
ATOM     25  C   UNL     1       3.506   4.416  17.484  0.00  0.00    +0.000 C 
ATOM     26  C   UNL     1       2.116   4.331  18.138  0.00  0.00    +0.000 C 
ENDBRANCH  16  26
ENDBRANCH   1  17
TORSDOF 2
ENDMDL
MODEL 7
REMARK VINA RESULT:      -7.2      3.046      4.085
REMARK  Name = 
REMARK  4 active torsions:
REMARK  status: ('A' for Active; 'I' for Inactive)
REMARK    1  A    between atoms: C_1  and  C_2
REMARK    2  A    between atoms: C_7  and  N_8
REMARK    3  A    between atoms: C_9  and  C_11
REMARK    4  A    between atoms: N_24  and  C_25
REMARK                            x       y       z     vdW  Elec       q    Type
REMARK                         _______ _______ _______ _____ _____    ______ ____
ROOT
ATOM      1  C   UNL     1       1.658   8.088  19.863  0.00  0.00    +0.000 A 
ATOM      2  C   UNL     1       1.303   8.196  21.202  0.00  0.00    +0.000 A 
ATOM      3  C   UNL     1       0.532   9.360  21.359  0.00  0.00    +0.000 A 
ATOM      4  C   UNL     1      -0.069   9.967  22.518  0.00  0.00    +0.000 A 
ATOM      5  O   UNL     1       0.022   9.453  23.630  0.00  0.00    +0.000 OA
ATOM      6  N   UNL     1      -0.742  11.165  22.232  0.00  0.00    +0.000 N 
ATOM      7  C   UNL     1      -1.334  11.847  23.288  0.00  0.00    +0.000 A 
ATOM      8  C   UNL     1      -2.001  12.993  23.111  0.00  0.00    +0.000 A 
ATOM      9  C   UNL     1      -2.128  13.549  21.792  0.00  0.00    +0.000 A 
ATOM     10  C   UNL     1      -1.573  12.937  20.735  0.00  0.00    +0.000 A 
ATOM     11  C   UNL     1      -0.811  11.665  20.911  0.00  0.00    +0.000 A 
ATOM     12  N   UNL     1      -0.268  11.103  19.859  0.00  0.00    +0.000 NA
ATOM     13  C   UNL     1       0.404   9.959  20.131  0.00  0.00    +0.000 A 
ATOM     14  N   UNL     1       1.094   9.190  19.220  0.00  0.00    +0.000 N 
ATOM     15  C   UNL     1       1.183   9.457  17.799  0.00  0.00    +0.000 C 
ENDROOT
BRANCH   1  17
ATOM     16  N   UNL     1       2.057   5.778  19.494  0.00  0.00    +0.000 N 
ATOM     17  C   UNL     1       2.483   7.066  19.238  0.00  0.00    +0.000 C 
ATOM     18  O   UNL     1       3.463   7.314  18.543  0.00  0.00    +0.000 OA
ATOM     19  H   UNL     1       1.233   5.653  20.062  0.00  0.00    +0.000 HD
BRANCH  16  26
ATOM     20  C   UNL     1       1.264   4.156  17.114  0.00  0.00    +0.000 C 
ATOM     21  C   UNL     1       1.882   3.572  18.387  0.00  0.00    +0.000 C 
ATOM     22  C   UNL     1       2.657   2.291  18.043  0.00  0.00    +0.000 C 
ATOM     23  C   UNL     1       3.280   1.662  19.284  0.00  0.00    +0.000 C 
ATOM     24  C   UNL     1       4.175   2.652  20.022  0.00  0.00    +0.000 C 
ATOM     25  C   UNL     1       3.432   3.944  20.355  0.00  0.00    +0.000 C 
ATOM     26  C   UNL     1       2.801   4.587  19.108  0.00  0.00    +0.000 C 
ENDBRANCH  16  26
ENDBRANCH   1  17
TORSDOF 2
ENDMDL
MODEL 8
REMARK VINA RESULT:      -7.1      2.232      8.535
REMARK  Name = 
REMARK  4 active torsions:
REMARK  status: ('A' for Active; 'I' for Inactive)
REMARK    1  A    between atoms: C_1  and  C_2
REMARK    2  A    between atoms: C_7  and  N_8
REMARK    3  A    between atoms: C_9  and  C_11
REMARK    4  A    between atoms: N_24  and  C_25
REMARK                            x       y       z     vdW  Elec       q    Type
REMARK                         _______ _______ _______ _____ _____    ______ ____
ROOT
ATOM      1  C   UNL     1       1.267   8.928  20.359  0.00  0.00    +0.000 A 
ATOM      2  C   UNL     1       1.357   7.704  21.011  0.00  0.00    +0.000 A 
ATOM      3  C   UNL     1       2.013   6.800  20.159  0.00  0.00    +0.000 A 
ATOM      4  C   UNL     1       2.349   5.408  20.309  0.00  0.00    +0.000 A 
ATOM      5  O   UNL     1       2.083   4.791  21.338  0.00  0.00    +0.000 OA
ATOM      6  N   UNL     1       2.989   4.867  19.183  0.00  0.00    +0.000 N 
ATOM      7  C   UNL     1       3.330   3.520  19.213  0.00  0.00    +0.000 A 
ATOM      8  C   UNL     1       3.949   2.918  18.191  0.00  0.00    +0.000 A 
ATOM      9  C   UNL     1       4.286   3.676  17.016  0.00  0.00    +0.000 A 
ATOM     10  C   UNL     1       3.978   4.978  16.928  0.00  0.00    +0.000 A 
ATOM     11  C   UNL     1       3.274   5.666  18.052  0.00  0.00    +0.000 A 
ATOM     12  N   UNL     1       2.973   6.935  17.926  0.00  0.00    +0.000 NA
ATOM     13  C   UNL     1       2.333   7.459  18.999  0.00  0.00    +0.000 A 
ATOM     14  N   UNL     1       1.874   8.751  19.115  0.00  0.00    +0.000 N 
ATOM     15  C   UNL     1       2.037   9.789  18.117  0.00  0.00    +0.000 C 
ENDROOT
BRANCH   1  17
ATOM     16  N   UNL     1      -0.617  10.369  20.299  0.00  0.00    +0.000 N 
ATOM     17  C   UNL     1       0.637  10.149  20.835  0.00  0.00    +0.000 C 
ATOM     18  O   UNL     1       1.158  10.914  21.639  0.00  0.00    +0.000 OA
ATOM     19  H   UNL     1      -0.986   9.687  19.654  0.00  0.00    +0.000 HD
BRANCH  16  26
ATOM     20  C   UNL     1      -0.396  12.667  18.403  0.00  0.00    +0.000 C 
ATOM     21  C   UNL     1      -0.636  12.813  19.908  0.00  0.00    +0.000 C 
ATOM     22  C   UNL     1      -1.415  14.108  20.184  0.00  0.00    +0.000 C 
ATOM     23  C   UNL     1      -1.666  14.306  21.675  0.00  0.00    +0.000 C 
ATOM     24  C   UNL     1      -2.382  13.105  22.283  0.00  0.00    +0.000 C 
ATOM     25  C   UNL     1      -1.636  11.802  22.003  0.00  0.00    +0.000 C 
ATOM     26  C   UNL     1      -1.381  11.593  20.501  0.00  0.00    +0.000 C 
ENDBRANCH  16  26
ENDBRANCH   1  17
TORSDOF 2
ENDMDL
MODEL 9
REMARK VINA RESULT:      -7.1      2.454      8.442
REMARK  Name = 
REMARK  4 active torsions:
REMARK  status: ('A' for Active; 'I' for Inactive)
REMARK    1  A    between atoms: C_1  and  C_2
REMARK    2  A    between atoms: C_7  and  N_8
REMARK    3  A    between atoms: C_9  and  C_11
REMARK    4  A    between atoms: N_24  and  C_25
REMARK                            x       y       z     vdW  Elec       q    Type
REMARK                         _______ _______ _______ _____ _____    ______ ____
ROOT
ATOM      1  C   UNL     1       1.458   7.962  20.738  0.00  0.00    +0.000 A 
ATOM      2  C   UNL     1       1.439   6.717  21.355  0.00  0.00    +0.000 A 
ATOM      3  C   UNL     1       1.944   5.771  20.448  0.00  0.00    +0.000 A 
ATOM      4  C   UNL     1       2.124   4.346  20.546  0.00  0.00    +0.000 A 
ATOM      5  O   UNL     1       1.840   3.732  21.572  0.00  0.00    +0.000 OA
ATOM      6  N   UNL     1       2.642   3.770  19.375  0.00  0.00    +0.000 N 
ATOM      7  C   UNL     1       2.827   2.393  19.354  0.00  0.00    +0.000 A 
ATOM      8  C   UNL     1       3.320   1.756  18.286  0.00  0.00    +0.000 A 
ATOM      9  C   UNL     1       3.685   2.505  17.115  0.00  0.00    +0.000 A 
ATOM     10  C   UNL     1       3.524   3.836  17.075  0.00  0.00    +0.000 A 
ATOM     11  C   UNL     1       2.961   4.565  18.251  0.00  0.00    +0.000 A 
ATOM     12  N   UNL     1       2.802   5.863  18.172  0.00  0.00    +0.000 NA
ATOM     13  C   UNL     1       2.279   6.424  19.289  0.00  0.00    +0.000 A 
ATOM     14  N   UNL     1       1.979   7.756  19.461  0.00  0.00    +0.000 N 
ATOM     15  C   UNL     1       2.210   8.798  18.481  0.00  0.00    +0.000 C 
ENDROOT
BRANCH   1  17
ATOM     16  N   UNL     1      -0.238   9.621  20.795  0.00  0.00    +0.000 N 
ATOM     17  C   UNL     1       0.997   9.233  21.277  0.00  0.00    +0.000 C 
ATOM     18  O   UNL     1       1.633   9.900  22.084  0.00  0.00    +0.000 OA
ATOM     19  H   UNL     1      -0.709   9.011  20.144  0.00  0.00    +0.000 HD
BRANCH  16  26
ATOM     20  C   UNL     1       0.173  11.935  18.952  0.00  0.00    +0.000 C 
ATOM     21  C   UNL     1       0.017  12.061  20.470  0.00  0.00    +0.000 C 
ATOM     22  C   UNL     1      -0.589  13.429  20.816  0.00  0.00    +0.000 C 
ATOM     23  C   UNL     1      -0.749  13.608  22.322  0.00  0.00    +0.000 C 
ATOM     24  C   UNL     1      -1.576  12.482  22.932  0.00  0.00    +0.000 C 
ATOM     25  C   UNL     1      -1.004  11.109  22.583  0.00  0.00    +0.000 C 
ATOM     26  C   UNL     1      -0.841  10.919  21.065  0.00  0.00    +0.000 C 
ENDBRANCH  16  26
ENDBRANCH   1  17
TORSDOF 2
ENDMDL
