MODEL 1
REMARK VINA RESULT:      -7.6      0.000      0.000
REMARK  Name = 
REMARK  6 active torsions:
REMARK  status: ('A' for Active; 'I' for Inactive)
REMARK    1  A    between atoms: O_1  and  C_2
REMARK    2  A    between atoms: C_4  and  C_5
REMARK    3  A    between atoms: C_5  and  S_6
REMARK    4  A    between atoms: S_6  and  C_7
REMARK    5  A    between atoms: C_14  and  S_15
REMARK    6  A    between atoms: S_15  and  C_16
REMARK                            x       y       z     vdW  Elec       q    Type
REMARK                         _______ _______ _______ _____ _____    ______ ____
ROOT
ATOM      1  C   UNL     1       7.384   5.858  18.545  0.00  0.00    +0.000 A 
ATOM      2  C   UNL     1       7.259   6.011  17.186  0.00  0.00    +0.000 A 
ATOM      3  C   UNL     1       6.266   5.262  16.588  0.00  0.00    +0.000 A 
ATOM      4  N   UNL     1       5.451   4.467  17.322  0.00  0.00    +0.000 NA
ATOM      5  C   UNL     1       5.644   4.418  18.657  0.00  0.00    +0.000 A 
ATOM      6  N   UNL     1       6.603   5.086  19.304  0.00  0.00    +0.000 NA
ENDROOT
BRANCH   1   7
ATOM      7  O   UNL     1       8.361   6.530  19.230  0.00  0.00    +0.000 OA
ATOM      8  H   UNL     1       8.916   7.005  18.591  0.00  0.00    +0.000 HD
ENDBRANCH   1   7
BRANCH   3   9
ATOM      9  C   UNL     1       5.944   5.349  15.111  0.00  0.00    +0.000 C 
BRANCH   9  10
ATOM     10  S   UNL     1       7.191   4.754  13.916  0.00  0.00    +0.000 S 
BRANCH  10  11
ATOM     11  C   UNL     1       6.258   3.741  12.779  0.00  0.00    +0.000 A 
ATOM     12  C   UNL     1       4.906   3.933  12.484  0.00  0.00    +0.000 A 
ATOM     13  C   UNL     1       4.257   3.099  11.568  0.00  0.00    +0.000 A 
ATOM     14  C   UNL     1       4.956   2.073  10.931  0.00  0.00    +0.000 A 
ATOM     15  C   UNL     1       6.308   1.887  11.203  0.00  0.00    +0.000 A 
ATOM     16  C   UNL     1       6.955   2.721  12.117  0.00  0.00    +0.000 A 
ENDBRANCH  10  11
ENDBRANCH   9  10
ENDBRANCH   3   9
BRANCH   5  17
ATOM     17  S   UNL     1       4.524   3.369  19.574  0.00  0.00    +0.000 S 
BRANCH  17  18
ATOM     18  C   UNL     1       3.107   4.504  19.903  0.00  0.00    +0.000 C 
ATOM     19  C   UNL     1       2.227   4.708  18.660  0.00  0.00    +0.000 C 
ATOM     20  C   UNL     1       1.374   3.491  18.299  0.00  0.00    +0.000 C 
ATOM     21  C   UNL     1       0.542   2.990  19.474  0.00  0.00    +0.000 C 
ATOM     22  C   UNL     1       1.367   2.784  20.740  0.00  0.00    +0.000 C 
ATOM     23  C   UNL     1       2.249   3.988  21.074  0.00  0.00    +0.000 C 
ENDBRANCH  17  18
ENDBRANCH   5  17
TORSDOF 6
ENDMDL
MODEL 2
REMARK VINA RESULT:      -7.4      0.201      1.039
REMARK  Name = 
REMARK  6 active torsions:
REMARK  status: ('A' for Active; 'I' for Inactive)
REMARK    1  A    between atoms: O_1  and  C_2
REMARK    2  A    between atoms: C_4  and  C_5
REMARK    3  A    between atoms: C_5  and  S_6
REMARK    4  A    between atoms: S_6  and  C_7
REMARK    5  A    between atoms: C_14  and  S_15
REMARK    6  A    between atoms: S_15  and  C_16
REMARK                            x       y       z     vdW  Elec       q    Type
REMARK                         _______ _______ _______ _____ _____    ______ ____
ROOT
ATOM      1  C   UNL     1       7.257   5.809  18.502  0.00  0.00    +0.000 A 
ATOM      2  C   UNL     1       7.148   5.963  17.141  0.00  0.00    +0.000 A 
ATOM      3  C   UNL     1       6.175   5.201  16.528  0.00  0.00    +0.000 A 
ATOM      4  N   UNL     1       5.362   4.393  17.250  0.00  0.00    +0.000 NA
ATOM      5  C   UNL     1       5.537   4.343  18.586  0.00  0.00    +0.000 A 
ATOM      6  N   UNL     1       6.478   5.024  19.248  0.00  0.00    +0.000 NA
ENDROOT
BRANCH   1   7
ATOM      7  O   UNL     1       8.215   6.494  19.201  0.00  0.00    +0.000 OA
ATOM      8  H   UNL     1       8.249   7.405  18.868  0.00  0.00    +0.000 HD
ENDBRANCH   1   7
BRANCH   3   9
ATOM      9  C   UNL     1       5.872   5.287  15.047  0.00  0.00    +0.000 C 
BRANCH   9  10
ATOM     10  S   UNL     1       7.220   4.936  13.866  0.00  0.00    +0.000 S 
BRANCH  10  11
ATOM     11  C   UNL     1       6.503   3.770  12.718  0.00  0.00    +0.000 A 
ATOM     12  C   UNL     1       7.242   2.852  11.967  0.00  0.00    +0.000 A 
ATOM     13  C   UNL     1       6.595   1.964  11.102  0.00  0.00    +0.000 A 
ATOM     14  C   UNL     1       5.204   1.979  10.987  0.00  0.00    +0.000 A 
ATOM     15  C   UNL     1       4.459   2.876  11.745  0.00  0.00    +0.000 A 
ATOM     16  C   UNL     1       5.106   3.761  12.610  0.00  0.00    +0.000 A 
ENDBRANCH  10  11
ENDBRANCH   9  10
ENDBRANCH   3   9
BRANCH   5  17
ATOM     17  S   UNL     1       4.422   3.276  19.486  0.00  0.00    +0.000 S 
BRANCH  17  18
ATOM     18  C   UNL     1       3.053   4.430  19.933  0.00  0.00    +0.000 C 
ATOM     19  C   UNL     1       2.157   4.760  18.730  0.00  0.00    +0.000 C 
ATOM     20  C   UNL     1       1.253   3.605  18.296  0.00  0.00    +0.000 C 
ATOM     21  C   UNL     1       0.427   3.043  19.447  0.00  0.00    +0.000 C 
ATOM     22  C   UNL     1       1.269   2.711  20.674  0.00  0.00    +0.000 C 
ATOM     23  C   UNL     1       2.201   3.854  21.080  0.00  0.00    +0.000 C 
ENDBRANCH  17  18
ENDBRANCH   5  17
TORSDOF 6
ENDMDL
MODEL 3
REMARK VINA RESULT:      -7.3      0.984      1.685
REMARK  Name = 
REMARK  6 active torsions:
REMARK  status: ('A' for Active; 'I' for Inactive)
REMARK    1  A    between atoms: O_1  and  C_2
REMARK    2  A    between atoms: C_4  and  C_5
REMARK    3  A    between atoms: C_5  and  S_6
REMARK    4  A    between atoms: S_6  and  C_7
REMARK    5  A    between atoms: C_14  and  S_15
REMARK    6  A    between atoms: S_15  and  C_16
REMARK                            x       y       z     vdW  Elec       q    Type
REMARK                         _______ _______ _______ _____ _____    ______ ____
ROOT
ATOM      1  C   UNL     1       7.016   5.217  18.632  0.00  0.00    +0.000 A 
ATOM      2  C   UNL     1       7.042   5.222  17.259  0.00  0.00    +0.000 A 
ATOM      3  C   UNL     1       5.811   5.219  16.636  0.00  0.00    +0.000 A 
ATOM      4  N   UNL     1       4.664   5.255  17.355  0.00  0.00    +0.000 NA
ATOM      5  C   UNL     1       4.756   5.281  18.700  0.00  0.00    +0.000 A 
ATOM      6  N   UNL     1       5.909   5.251  19.377  0.00  0.00    +0.000 NA
ENDROOT
BRANCH   1   7
ATOM      7  O   UNL     1       8.184   5.184  19.346  0.00  0.00    +0.000 OA
ATOM      8  H   UNL     1       8.889   4.847  18.771  0.00  0.00    +0.000 HD
ENDBRANCH   1   7
BRANCH   3   9
ATOM      9  C   UNL     1       5.647   5.285  15.132  0.00  0.00    +0.000 C 
BRANCH   9  10
ATOM     10  S   UNL     1       7.030   4.711  14.085  0.00  0.00    +0.000 S 
BRANCH  10  11
ATOM     11  C   UNL     1       6.245   3.703  12.838  0.00  0.00    +0.000 A 
ATOM     12  C   UNL     1       6.874   2.650  12.169  0.00  0.00    +0.000 A 
ATOM     13  C   UNL     1       6.177   1.902  11.214  0.00  0.00    +0.000 A 
ATOM     14  C   UNL     1       4.842   2.193  10.929  0.00  0.00    +0.000 A 
ATOM     15  C   UNL     1       4.201   3.226  11.605  0.00  0.00    +0.000 A 
ATOM     16  C   UNL     1       4.898   3.971  12.558  0.00  0.00    +0.000 A 
ENDBRANCH  10  11
ENDBRANCH   9  10
ENDBRANCH   3   9
BRANCH   5  17
ATOM     17  S   UNL     1       3.210   5.349  19.593  0.00  0.00    +0.000 S 
BRANCH  17  18
ATOM     18  C   UNL     1       3.059   3.629  20.244  0.00  0.00    +0.000 C 
ATOM     19  C   UNL     1       1.685   3.368  20.879  0.00  0.00    +0.000 C 
ATOM     20  C   UNL     1       0.546   3.253  19.865  0.00  0.00    +0.000 C 
ATOM     21  C   UNL     1       0.837   2.234  18.769  0.00  0.00    +0.000 C 
ATOM     22  C   UNL     1       2.199   2.441  18.114  0.00  0.00    +0.000 C 
ATOM     23  C   UNL     1       3.329   2.596  19.134  0.00  0.00    +0.000 C 
ENDBRANCH  17  18
ENDBRANCH   5  17
TORSDOF 6
ENDMDL
MODEL 4
REMARK VINA RESULT:      -7.3      0.664      1.579
REMARK  Name = 
REMARK  6 active torsions:
REMARK  status: ('A' for Active; 'I' for Inactive)
REMARK    1  A    between atoms: O_1  and  C_2
REMARK    2  A    between atoms: C_4  and  C_5
REMARK    3  A    between atoms: C_5  and  S_6
REMARK    4  A    between atoms: S_6  and  C_7
REMARK    5  A    between atoms: C_14  and  S_15
REMARK    6  A    between atoms: S_15  and  C_16
REMARK                            x       y       z     vdW  Elec       q    Type
REMARK                         _______ _______ _______ _____ _____    ______ ____
ROOT
ATOM      1  C   UNL     1       7.197   5.596  18.595  0.00  0.00    +0.000 A 
ATOM      2  C   UNL     1       7.112   5.868  17.251  0.00  0.00    +0.000 A 
ATOM      3  C   UNL     1       6.160   5.152  16.554  0.00  0.00    +0.000 A 
ATOM      4  N   UNL     1       5.343   4.276  17.187  0.00  0.00    +0.000 NA
ATOM      5  C   UNL     1       5.493   4.112  18.517  0.00  0.00    +0.000 A 
ATOM      6  N   UNL     1       6.413   4.741  19.255  0.00  0.00    +0.000 NA
ENDROOT
BRANCH   1   7
ATOM      7  O   UNL     1       8.134   6.226  19.370  0.00  0.00    +0.000 OA
ATOM      8  H   UNL     1       7.751   6.391  20.246  0.00  0.00    +0.000 HD
ENDBRANCH   1   7
BRANCH   3   9
ATOM      9  C   UNL     1       5.883   5.365  15.081  0.00  0.00    +0.000 C 
BRANCH   9  10
ATOM     10  S   UNL     1       7.208   4.971  13.887  0.00  0.00    +0.000 S 
BRANCH  10  11
ATOM     11  C   UNL     1       6.441   3.834  12.743  0.00  0.00    +0.000 A 
ATOM     12  C   UNL     1       7.119   2.806  12.083  0.00  0.00    +0.000 A 
ATOM     13  C   UNL     1       6.434   1.952  11.213  0.00  0.00    +0.000 A 
ATOM     14  C   UNL     1       5.064   2.111  11.003  0.00  0.00    +0.000 A 
ATOM     15  C   UNL     1       4.376   3.119  11.670  0.00  0.00    +0.000 A 
ATOM     16  C   UNL     1       5.060   3.970  12.539  0.00  0.00    +0.000 A 
ENDBRANCH  10  11
ENDBRANCH   9  10
ENDBRANCH   3   9
BRANCH   5  17
ATOM     17  S   UNL     1       4.373   2.959  19.298  0.00  0.00    +0.000 S 
BRANCH  17  18
ATOM     18  C   UNL     1       2.782   3.313  18.430  0.00  0.00    +0.000 C 
ATOM     19  C   UNL     1       1.633   2.434  18.946  0.00  0.00    +0.000 C 
ATOM     20  C   UNL     1       1.139   2.815  20.342  0.00  0.00    +0.000 C 
ATOM     21  C   UNL     1       0.781   4.293  20.453  0.00  0.00    +0.000 C 
ATOM     22  C   UNL     1       1.885   5.211  19.941  0.00  0.00    +0.000 C 
ATOM     23  C   UNL     1       2.404   4.800  18.562  0.00  0.00    +0.000 C 
ENDBRANCH  17  18
ENDBRANCH   5  17
TORSDOF 6
ENDMDL
MODEL 5
REMARK VINA RESULT:      -7.3      1.113      1.847
REMARK  Name = 
REMARK  6 active torsions:
REMARK  status: ('A' for Active; 'I' for Inactive)
REMARK    1  A    between atoms: O_1  and  C_2
REMARK    2  A    between atoms: C_4  and  C_5
REMARK    3  A    between atoms: C_5  and  S_6
REMARK    4  A    between atoms: S_6  and  C_7
REMARK    5  A    between atoms: C_14  and  S_15
REMARK    6  A    between atoms: S_15  and  C_16
REMARK                            x       y       z     vdW  Elec       q    Type
REMARK                         _______ _______ _______ _____ _____    ______ ____
ROOT
ATOM      1  C   UNL     1       7.104   5.302  19.245  0.00  0.00    +0.000 A 
ATOM      2  C   UNL     1       7.631   4.916  18.036  0.00  0.00    +0.000 A 
ATOM      3  C   UNL     1       6.713   4.546  17.073  0.00  0.00    +0.000 A 
ATOM      4  N   UNL     1       5.382   4.612  17.316  0.00  0.00    +0.000 NA
ATOM      5  C   UNL     1       4.976   5.037  18.530  0.00  0.00    +0.000 A 
ATOM      6  N   UNL     1       5.802   5.379  19.523  0.00  0.00    +0.000 NA
ENDROOT
BRANCH   1   7
ATOM      7  O   UNL     1       7.931   5.653  20.278  0.00  0.00    +0.000 OA
ATOM      8  H   UNL     1       7.946   6.621  20.347  0.00  0.00    +0.000 HD
ENDBRANCH   1   7
BRANCH   3   9
ATOM      9  C   UNL     1       7.108   4.153  15.666  0.00  0.00    +0.000 C 
BRANCH   9  10
ATOM     10  S   UNL     1       6.430   5.123  14.274  0.00  0.00    +0.000 S 
BRANCH  10  11
ATOM     11  C   UNL     1       6.167   3.914  12.986  0.00  0.00    +0.000 A 
ATOM     12  C   UNL     1       7.160   3.064  12.492  0.00  0.00    +0.000 A 
ATOM     13  C   UNL     1       6.861   2.135  11.490  0.00  0.00    +0.000 A 
ATOM     14  C   UNL     1       5.565   2.041  10.981  0.00  0.00    +0.000 A 
ATOM     15  C   UNL     1       4.565   2.869  11.481  0.00  0.00    +0.000 A 
ATOM     16  C   UNL     1       4.865   3.794  12.482  0.00  0.00    +0.000 A 
ENDBRANCH  10  11
ENDBRANCH   9  10
ENDBRANCH   3   9
BRANCH   5  17
ATOM     17  S   UNL     1       3.208   5.122  18.781  0.00  0.00    +0.000 S 
BRANCH  17  18
ATOM     18  C   UNL     1       2.727   3.340  18.769  0.00  0.00    +0.000 C 
ATOM     19  C   UNL     1       3.463   2.534  19.849  0.00  0.00    +0.000 C 
ATOM     20  C   UNL     1       2.980   2.817  21.272  0.00  0.00    +0.000 C 
ATOM     21  C   UNL     1       1.470   2.665  21.418  0.00  0.00    +0.000 C 
ATOM     22  C   UNL     1       0.690   3.437  20.360  0.00  0.00    +0.000 C 
ATOM     23  C   UNL     1       1.204   3.181  18.942  0.00  0.00    +0.000 C 
ENDBRANCH  17  18
ENDBRANCH   5  17
TORSDOF 6
ENDMDL
MODEL 6
REMARK VINA RESULT:      -7.3      0.944      1.345
REMARK  Name = 
REMARK  6 active torsions:
REMARK  status: ('A' for Active; 'I' for Inactive)
REMARK    1  A    between atoms: O_1  and  C_2
REMARK    2  A    between atoms: C_4  and  C_5
REMARK    3  A    between atoms: C_5  and  S_6
REMARK    4  A    between atoms: S_6  and  C_7
REMARK    5  A    between atoms: C_14  and  S_15
REMARK    6  A    between atoms: S_15  and  C_16
REMARK                            x       y       z     vdW  Elec       q    Type
REMARK                         _______ _______ _______ _____ _____    ______ ____
ROOT
ATOM      1  C   UNL     1       7.099   5.665  18.763  0.00  0.00    +0.000 A 
ATOM      2  C   UNL     1       7.134   5.660  17.390  0.00  0.00    +0.000 A 
ATOM      3  C   UNL     1       5.917   5.496  16.760  0.00  0.00    +0.000 A 
ATOM      4  N   UNL     1       4.770   5.394  17.473  0.00  0.00    +0.000 NA
ATOM      5  C   UNL     1       4.849   5.444  18.818  0.00  0.00    +0.000 A 
ATOM      6  N   UNL     1       5.992   5.567  19.501  0.00  0.00    +0.000 NA
ENDROOT
BRANCH   1   7
ATOM      7  O   UNL     1       8.257   5.786  19.484  0.00  0.00    +0.000 OA
ATOM      8  H   UNL     1       8.523   6.719  19.487  0.00  0.00    +0.000 HD
ENDBRANCH   1   7
BRANCH   3   9
ATOM      9  C   UNL     1       5.757   5.527  15.255  0.00  0.00    +0.000 C 
BRANCH   9  10
ATOM     10  S   UNL     1       7.091   4.817  14.228  0.00  0.00    +0.000 S 
BRANCH  10  11
ATOM     11  C   UNL     1       6.229   3.827  13.016  0.00  0.00    +0.000 A 
ATOM     12  C   UNL     1       4.870   3.955  12.720  0.00  0.00    +0.000 A 
ATOM     13  C   UNL     1       4.280   3.146  11.744  0.00  0.00    +0.000 A 
ATOM     14  C   UNL     1       5.045   2.209  11.049  0.00  0.00    +0.000 A 
ATOM     15  C   UNL     1       6.403   2.087  11.323  0.00  0.00    +0.000 A 
ATOM     16  C   UNL     1       6.992   2.897  12.296  0.00  0.00    +0.000 A 
ENDBRANCH  10  11
ENDBRANCH   9  10
ENDBRANCH   3   9
BRANCH   5  17
ATOM     17  S   UNL     1       3.300   5.325  19.701  0.00  0.00    +0.000 S 
BRANCH  17  18
ATOM     18  C   UNL     1       3.236   3.533  20.137  0.00  0.00    +0.000 C 
ATOM     19  C   UNL     1       1.958   3.169  20.907  0.00  0.00    +0.000 C 
ATOM     20  C   UNL     1       0.695   3.167  20.045  0.00  0.00    +0.000 C 
ATOM     21  C   UNL     1       0.839   2.302  18.797  0.00  0.00    +0.000 C 
ATOM     22  C   UNL     1       2.102   2.615  18.002  0.00  0.00    +0.000 C 
ATOM     23  C   UNL     1       3.357   2.656  18.876  0.00  0.00    +0.000 C 
ENDBRANCH  17  18
ENDBRANCH   5  17
TORSDOF 6
ENDMDL
MODEL 7
REMARK VINA RESULT:      -7.2      1.224      1.694
REMARK  Name = 
REMARK  6 active torsions:
REMARK  status: ('A' for Active; 'I' for Inactive)
REMARK    1  A    between atoms: O_1  and  C_2
REMARK    2  A    between atoms: C_4  and  C_5
REMARK    3  A    between atoms: C_5  and  S_6
REMARK    4  A    between atoms: S_6  and  C_7
REMARK    5  A    between atoms: C_14  and  S_15
REMARK    6  A    between atoms: S_15  and  C_16
REMARK                            x       y       z     vdW  Elec       q    Type
REMARK                         _______ _______ _______ _____ _____    ______ ____
ROOT
ATOM      1  C   UNL     1       6.789   5.218  19.043  0.00  0.00    +0.000 A 
ATOM      2  C   UNL     1       7.384   4.970  17.831  0.00  0.00    +0.000 A 
ATOM      3  C   UNL     1       6.527   4.666  16.793  0.00  0.00    +0.000 A 
ATOM      4  N   UNL     1       5.185   4.663  16.974  0.00  0.00    +0.000 NA
ATOM      5  C   UNL     1       4.707   4.954  18.201  0.00  0.00    +0.000 A 
ATOM      6  N   UNL     1       5.472   5.224  19.263  0.00  0.00    +0.000 NA
ENDROOT
BRANCH   1   7
ATOM      7  O   UNL     1       7.553   5.494  20.146  0.00  0.00    +0.000 OA
ATOM      8  H   UNL     1       7.004   5.384  20.938  0.00  0.00    +0.000 HD
ENDBRANCH   1   7
BRANCH   3   9
ATOM      9  C   UNL     1       7.001   4.426  15.375  0.00  0.00    +0.000 C 
BRANCH   9  10
ATOM     10  S   UNL     1       5.920   4.953  14.000  0.00  0.00    +0.000 S 
BRANCH  10  11
ATOM     11  C   UNL     1       6.103   3.661  12.780  0.00  0.00    +0.000 A 
ATOM     12  C   UNL     1       5.047   2.891  12.287  0.00  0.00    +0.000 A 
ATOM     13  C   UNL     1       5.281   1.908  11.320  0.00  0.00    +0.000 A 
ATOM     14  C   UNL     1       6.570   1.693  10.830  0.00  0.00    +0.000 A 
ATOM     15  C   UNL     1       7.625   2.468  11.301  0.00  0.00    +0.000 A 
ATOM     16  C   UNL     1       7.390   3.450  12.265  0.00  0.00    +0.000 A 
ENDBRANCH  10  11
ENDBRANCH   9  10
ENDBRANCH   3   9
BRANCH   5  17
ATOM     17  S   UNL     1       2.928   4.954  18.372  0.00  0.00    +0.000 S 
BRANCH  17  18
ATOM     18  C   UNL     1       2.549   3.153  18.513  0.00  0.00    +0.000 C 
ATOM     19  C   UNL     1       3.449   2.451  19.540  0.00  0.00    +0.000 C 
ATOM     20  C   UNL     1       3.120   2.796  20.993  0.00  0.00    +0.000 C 
ATOM     21  C   UNL     1       1.648   2.579  21.327  0.00  0.00    +0.000 C 
ATOM     22  C   UNL     1       0.709   3.246  20.328  0.00  0.00    +0.000 C 
ATOM     23  C   UNL     1       1.068   2.930  18.875  0.00  0.00    +0.000 C 
ENDBRANCH  17  18
ENDBRANCH   5  17
TORSDOF 6
ENDMDL
MODEL 8
REMARK VINA RESULT:      -7.2      3.717      6.757
REMARK  Name = 
REMARK  6 active torsions:
REMARK  status: ('A' for Active; 'I' for Inactive)
REMARK    1  A    between atoms: O_1  and  C_2
REMARK    2  A    between atoms: C_4  and  C_5
REMARK    3  A    between atoms: C_5  and  S_6
REMARK    4  A    between atoms: S_6  and  C_7
REMARK    5  A    between atoms: C_14  and  S_15
REMARK    6  A    between atoms: S_15  and  C_16
REMARK                            x       y       z     vdW  Elec       q    Type
REMARK                         _______ _______ _______ _____ _____    ______ ____
ROOT
ATOM      1  C   UNL     1       6.522   5.246  16.091  0.00  0.00    +0.000 A 
ATOM      2  C   UNL     1       7.336   6.287  16.465  0.00  0.00    +0.000 A 
ATOM      3  C   UNL     1       7.239   6.677  17.786  0.00  0.00    +0.000 A 
ATOM      4  N   UNL     1       6.421   6.028  18.648  0.00  0.00    +0.000 NA
ATOM      5  C   UNL     1       5.690   4.996  18.178  0.00  0.00    +0.000 A 
ATOM      6  N   UNL     1       5.702   4.582  16.908  0.00  0.00    +0.000 NA
ENDROOT
BRANCH   1   7
ATOM      7  O   UNL     1       6.515   4.805  14.794  0.00  0.00    +0.000 OA
ATOM      8  H   UNL     1       5.650   4.409  14.606  0.00  0.00    +0.000 HD
ENDBRANCH   1   7
BRANCH   3   9
ATOM      9  C   UNL     1       8.103   7.764  18.389  0.00  0.00    +0.000 C 
BRANCH   9  10
ATOM     10  S   UNL     1       7.950   9.459  17.725  0.00  0.00    +0.000 S 
BRANCH  10  11
ATOM     11  C   UNL     1       9.186  10.391  18.616  0.00  0.00    +0.000 A 
ATOM     12  C   UNL     1       9.208  10.539  20.005  0.00  0.00    +0.000 A 
ATOM     13  C   UNL     1      10.224  11.276  20.621  0.00  0.00    +0.000 A 
ATOM     14  C   UNL     1      11.233  11.862  19.855  0.00  0.00    +0.000 A 
ATOM     15  C   UNL     1      11.231  11.703  18.473  0.00  0.00    +0.000 A 
ATOM     16  C   UNL     1      10.217  10.966  17.860  0.00  0.00    +0.000 A 
ENDBRANCH  10  11
ENDBRANCH   9  10
ENDBRANCH   3   9
BRANCH   5  17
ATOM     17  S   UNL     1       4.645   4.168  19.368  0.00  0.00    +0.000 S 
BRANCH  17  18
ATOM     18  C   UNL     1       3.040   5.057  19.164  0.00  0.00    +0.000 C 
ATOM     19  C   UNL     1       2.147   4.402  18.101  0.00  0.00    +0.000 C 
ATOM     20  C   UNL     1       1.535   3.071  18.540  0.00  0.00    +0.000 C 
ATOM     21  C   UNL     1       0.801   3.175  19.872  0.00  0.00    +0.000 C 
ATOM     22  C   UNL     1       1.642   3.832  20.962  0.00  0.00    +0.000 C 
ATOM     23  C   UNL     1       2.285   5.142  20.504  0.00  0.00    +0.000 C 
ENDBRANCH  17  18
ENDBRANCH   5  17
TORSDOF 6
ENDMDL
MODEL 9
REMARK VINA RESULT:      -7.1      1.192      1.576
REMARK  Name = 
REMARK  6 active torsions:
REMARK  status: ('A' for Active; 'I' for Inactive)
REMARK    1  A    between atoms: O_1  and  C_2
REMARK    2  A    between atoms: C_4  and  C_5
REMARK    3  A    between atoms: C_5  and  S_6
REMARK    4  A    between atoms: S_6  and  C_7
REMARK    5  A    between atoms: C_14  and  S_15
REMARK    6  A    between atoms: S_15  and  C_16
REMARK                            x       y       z     vdW  Elec       q    Type
REMARK                         _______ _______ _______ _____ _____    ______ ____
ROOT
ATOM      1  C   UNL     1       7.523   4.453  17.710  0.00  0.00    +0.000 A 
ATOM      2  C   UNL     1       7.353   4.626  16.358  0.00  0.00    +0.000 A 
ATOM      3  C   UNL     1       6.067   4.917  15.949  0.00  0.00    +0.000 A 
ATOM      4  N   UNL     1       5.064   5.062  16.847  0.00  0.00    +0.000 NA
ATOM      5  C   UNL     1       5.352   4.902  18.155  0.00  0.00    +0.000 A 
ATOM      6  N   UNL     1       6.563   4.586  18.627  0.00  0.00    +0.000 NA
ENDROOT
BRANCH   1   7
ATOM      7  O   UNL     1       8.754   4.126  18.216  0.00  0.00    +0.000 OA
ATOM      8  H   UNL     1       8.985   3.233  17.914  0.00  0.00    +0.000 HD
ENDBRANCH   1   7
BRANCH   3   9
ATOM      9  C   UNL     1       5.705   5.200  14.506  0.00  0.00    +0.000 C 
BRANCH   9  10
ATOM     10  S   UNL     1       7.010   5.033  13.238  0.00  0.00    +0.000 S 
BRANCH  10  11
ATOM     11  C   UNL     1       6.526   3.591  12.302  0.00  0.00    +0.000 A 
ATOM     12  C   UNL     1       5.201   3.230  12.044  0.00  0.00    +0.000 A 
ATOM     13  C   UNL     1       4.914   2.089  11.288  0.00  0.00    +0.000 A 
ATOM     14  C   UNL     1       5.948   1.306  10.774  0.00  0.00    +0.000 A 
ATOM     15  C   UNL     1       7.270   1.668  11.008  0.00  0.00    +0.000 A 
ATOM     16  C   UNL     1       7.556   2.808  11.762  0.00  0.00    +0.000 A 
ENDBRANCH  10  11
ENDBRANCH   9  10
ENDBRANCH   3   9
BRANCH   5  17
ATOM     17  S   UNL     1       3.992   5.126  19.293  0.00  0.00    +0.000 S 
BRANCH  17  18
ATOM     18  C   UNL     1       3.647   3.396  19.834  0.00  0.00    +0.000 C 
ATOM     19  C   UNL     1       2.533   3.330  20.889  0.00  0.00    +0.000 C 
ATOM     20  C   UNL     1       1.135   3.603  20.333  0.00  0.00    +0.000 C 
ATOM     21  C   UNL     1       0.798   2.720  19.136  0.00  0.00    +0.000 C 
ATOM     22  C   UNL     1       1.881   2.739  18.062  0.00  0.00    +0.000 C 
ATOM     23  C   UNL     1       3.282   2.506  18.630  0.00  0.00    +0.000 C 
ENDBRANCH  17  18
ENDBRANCH   5  17
TORSDOF 6
ENDMDL
