MODEL 1
REMARK VINA RESULT:      -9.4      0.000      0.000
REMARK  Name = 
REMARK  5 active torsions:
REMARK  status: ('A' for Active; 'I' for Inactive)
REMARK    1  A    between atoms: C_1  and  C_2
REMARK    2  A    between atoms: C_5  and  N_6
REMARK    3  A    between atoms: C_10  and  C_11
REMARK    4  A    between atoms: N_19  and  C_20
REMARK    5  A    between atoms: N_26  and  C_27
REMARK                            x       y       z     vdW  Elec       q    Type
REMARK                         _______ _______ _______ _____ _____    ______ ____
ROOT
ATOM      1  N   UNL     1       3.071   7.026  18.219  0.00  0.00    +0.000 N 
ATOM      2  C   UNL     1       2.823   8.362  17.847  0.00  0.00    +0.000 A 
ATOM      3  C   UNL     1       1.874   8.847  18.691  0.00  0.00    +0.000 A 
ATOM      4  C   UNL     1       1.618   7.885  19.664  0.00  0.00    +0.000 A 
ATOM      5  C   UNL     1       2.225   6.697  19.317  0.00  0.00    +0.000 A 
ATOM      6  C   UNL     1       0.745   8.429  20.674  0.00  0.00    +0.000 A 
ATOM      7  O   UNL     1       0.266   7.846  21.637  0.00  0.00    +0.000 OA
ATOM      8  N   UNL     1       0.584   9.773  20.276  0.00  0.00    +0.000 N 
ATOM      9  N   UNL     1       1.158   9.977  18.944  0.00  0.00    +0.000 N 
ATOM     10  C   UNL     1       1.701  11.289  18.626  0.00  0.00    +0.000 C 
ENDROOT
BRANCH   1  15
ATOM     11  C   UNL     1       6.288   3.733  14.799  0.00  0.00    +0.000 C 
ATOM     12  C   UNL     1       5.534   4.551  15.805  0.00  0.00    +0.000 A 
ATOM     13  C   UNL     1       4.471   4.000  16.521  0.00  0.00    +0.000 A 
ATOM     14  C   UNL     1       3.729   4.788  17.408  0.00  0.00    +0.000 A 
ATOM     15  C   UNL     1       3.993   6.158  17.541  0.00  0.00    +0.000 A 
ATOM     16  C   UNL     1       5.120   6.690  16.902  0.00  0.00    +0.000 A 
ATOM     17  C   UNL     1       5.880   5.889  16.036  0.00  0.00    +0.000 A 
ENDBRANCH   1  15
BRANCH   5  18
ATOM     18  C   UNL     1       1.976   5.357  19.893  0.00  0.00    +0.000 A 
ATOM     19  C   UNL     1       2.566   4.935  21.096  0.00  0.00    +0.000 A 
ATOM     20  C   UNL     1       2.257   3.692  21.658  0.00  0.00    +0.000 A 
ATOM     21  C   UNL     1       1.439   2.803  20.970  0.00  0.00    +0.000 A 
ATOM     22  C   UNL     1       0.917   3.165  19.734  0.00  0.00    +0.000 A 
ATOM     23  C   UNL     1       1.160   4.440  19.218  0.00  0.00    +0.000 A 
ENDBRANCH   5  18
BRANCH   8  24
ATOM     24  C   UNL     1      -0.323  10.655  20.886  0.00  0.00    +0.000 A 
ATOM     25  C   UNL     1      -0.287  10.791  22.282  0.00  0.00    +0.000 A 
ATOM     26  C   UNL     1      -1.138  11.687  22.928  0.00  0.00    +0.000 A 
ATOM     27  C   UNL     1      -2.066  12.412  22.189  0.00  0.00    +0.000 A 
ATOM     28  C   UNL     1      -2.131  12.257  20.802  0.00  0.00    +0.000 A 
ATOM     29  C   UNL     1      -1.253  11.389  20.149  0.00  0.00    +0.000 A 
ENDBRANCH   8  24
TORSDOF 3
ENDMDL
MODEL 2
REMARK VINA RESULT:      -9.4      0.077      1.267
REMARK  Name = 
REMARK  5 active torsions:
REMARK  status: ('A' for Active; 'I' for Inactive)
REMARK    1  A    between atoms: C_1  and  C_2
REMARK    2  A    between atoms: C_5  and  N_6
REMARK    3  A    between atoms: C_10  and  C_11
REMARK    4  A    between atoms: N_19  and  C_20
REMARK    5  A    between atoms: N_26  and  C_27
REMARK                            x       y       z     vdW  Elec       q    Type
REMARK                         _______ _______ _______ _____ _____    ______ ____
ROOT
ATOM      1  N   UNL     1       3.068   7.030  18.188  0.00  0.00    +0.000 N 
ATOM      2  C   UNL     1       2.829   8.373  17.833  0.00  0.00    +0.000 A 
ATOM      3  C   UNL     1       1.890   8.856  18.689  0.00  0.00    +0.000 A 
ATOM      4  C   UNL     1       1.630   7.885  19.651  0.00  0.00    +0.000 A 
ATOM      5  C   UNL     1       2.226   6.696  19.287  0.00  0.00    +0.000 A 
ATOM      6  C   UNL     1       0.768   8.424  20.673  0.00  0.00    +0.000 A 
ATOM      7  O   UNL     1       0.289   7.835  21.632  0.00  0.00    +0.000 OA
ATOM      8  N   UNL     1       0.617   9.774  20.291  0.00  0.00    +0.000 N 
ATOM      9  N   UNL     1       1.186   9.989  18.959  0.00  0.00    +0.000 N 
ATOM     10  C   UNL     1       1.738  11.300  18.653  0.00  0.00    +0.000 C 
ENDROOT
BRANCH   1  15
ATOM     11  C   UNL     1       6.192   3.690  14.728  0.00  0.00    +0.000 C 
ATOM     12  C   UNL     1       5.470   4.529  15.741  0.00  0.00    +0.000 A 
ATOM     13  C   UNL     1       4.470   3.976  16.542  0.00  0.00    +0.000 A 
ATOM     14  C   UNL     1       3.754   4.780  17.436  0.00  0.00    +0.000 A 
ATOM     15  C   UNL     1       3.979   6.162  17.494  0.00  0.00    +0.000 A 
ATOM     16  C   UNL     1       5.047   6.700  16.766  0.00  0.00    +0.000 A 
ATOM     17  C   UNL     1       5.783   5.885  15.892  0.00  0.00    +0.000 A 
ENDBRANCH   1  15
BRANCH   5  18
ATOM     18  C   UNL     1       1.968   5.351  19.848  0.00  0.00    +0.000 A 
ATOM     19  C   UNL     1       1.144   4.414  19.203  0.00  0.00    +0.000 A 
ATOM     20  C   UNL     1       0.975   3.124  19.716  0.00  0.00    +0.000 A 
ATOM     21  C   UNL     1       1.536   2.784  20.942  0.00  0.00    +0.000 A 
ATOM     22  C   UNL     1       2.280   3.727  21.642  0.00  0.00    +0.000 A 
ATOM     23  C   UNL     1       2.516   4.986  21.084  0.00  0.00    +0.000 A 
ENDBRANCH   5  18
BRANCH   8  24
ATOM     24  C   UNL     1      -0.278  10.657  20.917  0.00  0.00    +0.000 A 
ATOM     25  C   UNL     1      -1.191  11.362  20.118  0.00  0.00    +0.000 A 
ATOM     26  C   UNL     1      -2.128  12.217  20.698  0.00  0.00    +0.000 A 
ATOM     27  C   UNL     1      -2.122  12.414  22.075  0.00  0.00    +0.000 A 
ATOM     28  C   UNL     1      -1.193  11.742  22.874  0.00  0.00    +0.000 A 
ATOM     29  C   UNL     1      -0.281  10.855  22.298  0.00  0.00    +0.000 A 
ENDBRANCH   8  24
TORSDOF 3
ENDMDL
MODEL 3
REMARK VINA RESULT:      -8.7      0.584      1.270
REMARK  Name = 
REMARK  5 active torsions:
REMARK  status: ('A' for Active; 'I' for Inactive)
REMARK    1  A    between atoms: C_1  and  C_2
REMARK    2  A    between atoms: C_5  and  N_6
REMARK    3  A    between atoms: C_10  and  C_11
REMARK    4  A    between atoms: N_19  and  C_20
REMARK    5  A    between atoms: N_26  and  C_27
REMARK                            x       y       z     vdW  Elec       q    Type
REMARK                         _______ _______ _______ _____ _____    ______ ____
ROOT
ATOM      1  N   UNL     1       3.072   7.186  18.238  0.00  0.00    +0.000 N 
ATOM      2  C   UNL     1       2.825   8.534  17.909  0.00  0.00    +0.000 A 
ATOM      3  C   UNL     1       1.866   8.988  18.758  0.00  0.00    +0.000 A 
ATOM      4  C   UNL     1       1.601   7.993  19.695  0.00  0.00    +0.000 A 
ATOM      5  C   UNL     1       2.215   6.819  19.315  0.00  0.00    +0.000 A 
ATOM      6  C   UNL     1       0.716   8.501  20.714  0.00  0.00    +0.000 A 
ATOM      7  O   UNL     1       0.228   7.886  21.651  0.00  0.00    +0.000 OA
ATOM      8  N   UNL     1       0.556   9.857  20.359  0.00  0.00    +0.000 N 
ATOM      9  N   UNL     1       1.144  10.107  19.041  0.00  0.00    +0.000 N 
ATOM     10  C   UNL     1       1.687  11.430  18.772  0.00  0.00    +0.000 C 
ENDROOT
BRANCH   1  15
ATOM     11  C   UNL     1       7.404   4.337  15.788  0.00  0.00    +0.000 C 
ATOM     12  C   UNL     1       6.180   4.988  16.361  0.00  0.00    +0.000 A 
ATOM     13  C   UNL     1       5.520   6.003  15.668  0.00  0.00    +0.000 A 
ATOM     14  C   UNL     1       4.420   6.652  16.239  0.00  0.00    +0.000 A 
ATOM     15  C   UNL     1       4.004   6.343  17.541  0.00  0.00    +0.000 A 
ATOM     16  C   UNL     1       4.599   5.259  18.198  0.00  0.00    +0.000 A 
ATOM     17  C   UNL     1       5.684   4.591  17.609  0.00  0.00    +0.000 A 
ENDBRANCH   1  15
BRANCH   5  18
ATOM     18  C   UNL     1       1.963   5.460  19.843  0.00  0.00    +0.000 A 
ATOM     19  C   UNL     1       2.415   5.051  21.109  0.00  0.00    +0.000 A 
ATOM     20  C   UNL     1       2.100   3.786  21.616  0.00  0.00    +0.000 A 
ATOM     21  C   UNL     1       1.424   2.867  20.821  0.00  0.00    +0.000 A 
ATOM     22  C   UNL     1       1.048   3.220  19.531  0.00  0.00    +0.000 A 
ATOM     23  C   UNL     1       1.290   4.513  19.061  0.00  0.00    +0.000 A 
ENDBRANCH   5  18
BRANCH   8  24
ATOM     24  C   UNL     1      -0.360  10.717  20.988  0.00  0.00    +0.000 A 
ATOM     25  C   UNL     1      -1.278  11.416  20.190  0.00  0.00    +0.000 A 
ATOM     26  C   UNL     1      -2.233  12.248  20.773  0.00  0.00    +0.000 A 
ATOM     27  C   UNL     1      -2.243  12.427  22.153  0.00  0.00    +0.000 A 
ATOM     28  C   UNL     1      -1.310  11.760  22.951  0.00  0.00    +0.000 A 
ATOM     29  C   UNL     1      -0.377  10.896  22.371  0.00  0.00    +0.000 A 
ENDBRANCH   8  24
TORSDOF 3
ENDMDL
MODEL 4
REMARK VINA RESULT:      -8.6      0.588      1.264
REMARK  Name = 
REMARK  5 active torsions:
REMARK  status: ('A' for Active; 'I' for Inactive)
REMARK    1  A    between atoms: C_1  and  C_2
REMARK    2  A    between atoms: C_5  and  N_6
REMARK    3  A    between atoms: C_10  and  C_11
REMARK    4  A    between atoms: N_19  and  C_20
REMARK    5  A    between atoms: N_26  and  C_27
REMARK                            x       y       z     vdW  Elec       q    Type
REMARK                         _______ _______ _______ _____ _____    ______ ____
ROOT
ATOM      1  N   UNL     1       3.074   7.181  18.223  0.00  0.00    +0.000 N 
ATOM      2  C   UNL     1       2.827   8.528  17.892  0.00  0.00    +0.000 A 
ATOM      3  C   UNL     1       1.860   8.980  18.733  0.00  0.00    +0.000 A 
ATOM      4  C   UNL     1       1.588   7.985  19.667  0.00  0.00    +0.000 A 
ATOM      5  C   UNL     1       2.208   6.812  19.292  0.00  0.00    +0.000 A 
ATOM      6  C   UNL     1       0.693   8.491  20.678  0.00  0.00    +0.000 A 
ATOM      7  O   UNL     1       0.198   7.874  21.611  0.00  0.00    +0.000 OA
ATOM      8  N   UNL     1       0.534   9.847  20.321  0.00  0.00    +0.000 N 
ATOM      9  N   UNL     1       1.133  10.098  19.009  0.00  0.00    +0.000 N 
ATOM     10  C   UNL     1       1.677  11.422  18.746  0.00  0.00    +0.000 C 
ENDROOT
BRANCH   1  15
ATOM     11  C   UNL     1       7.432   4.342  15.808  0.00  0.00    +0.000 C 
ATOM     12  C   UNL     1       6.201   4.989  16.372  0.00  0.00    +0.000 A 
ATOM     13  C   UNL     1       5.542   6.000  15.671  0.00  0.00    +0.000 A 
ATOM     14  C   UNL     1       4.436   6.646  16.234  0.00  0.00    +0.000 A 
ATOM     15  C   UNL     1       4.013   6.339  17.534  0.00  0.00    +0.000 A 
ATOM     16  C   UNL     1       4.608   5.259  18.197  0.00  0.00    +0.000 A 
ATOM     17  C   UNL     1       5.699   4.594  17.618  0.00  0.00    +0.000 A 
ENDBRANCH   1  15
BRANCH   5  18
ATOM     18  C   UNL     1       1.953   5.452  19.818  0.00  0.00    +0.000 A 
ATOM     19  C   UNL     1       1.258   4.480  19.079  0.00  0.00    +0.000 A 
ATOM     20  C   UNL     1       1.095   3.179  19.567  0.00  0.00    +0.000 A 
ATOM     21  C   UNL     1       1.526   2.859  20.850  0.00  0.00    +0.000 A 
ATOM     22  C   UNL     1       2.135   3.832  21.633  0.00  0.00    +0.000 A 
ATOM     23  C   UNL     1       2.371   5.105  21.109  0.00  0.00    +0.000 A 
ENDBRANCH   5  18
BRANCH   8  24
ATOM     24  C   UNL     1      -0.389  10.705  20.943  0.00  0.00    +0.000 A 
ATOM     25  C   UNL     1      -0.376  10.799  22.342  0.00  0.00    +0.000 A 
ATOM     26  C   UNL     1      -1.244  11.669  23.002  0.00  0.00    +0.000 A 
ATOM     27  C   UNL     1      -2.165  12.410  22.269  0.00  0.00    +0.000 A 
ATOM     28  C   UNL     1      -2.206  12.297  20.877  0.00  0.00    +0.000 A 
ATOM     29  C   UNL     1      -1.311  11.455  20.213  0.00  0.00    +0.000 A 
ENDBRANCH   8  24
TORSDOF 3
ENDMDL
MODEL 5
REMARK VINA RESULT:      -8.1      1.730      2.439
REMARK  Name = 
REMARK  5 active torsions:
REMARK  status: ('A' for Active; 'I' for Inactive)
REMARK    1  A    between atoms: C_1  and  C_2
REMARK    2  A    between atoms: C_5  and  N_6
REMARK    3  A    between atoms: C_10  and  C_11
REMARK    4  A    between atoms: N_19  and  C_20
REMARK    5  A    between atoms: N_26  and  C_27
REMARK                            x       y       z     vdW  Elec       q    Type
REMARK                         _______ _______ _______ _____ _____    ______ ____
ROOT
ATOM      1  N   UNL     1       4.217   6.132  16.956  0.00  0.00    +0.000 N 
ATOM      2  C   UNL     1       3.824   7.481  16.846  0.00  0.00    +0.000 A 
ATOM      3  C   UNL     1       2.968   7.737  17.870  0.00  0.00    +0.000 A 
ATOM      4  C   UNL     1       2.917   6.615  18.693  0.00  0.00    +0.000 A 
ATOM      5  C   UNL     1       3.555   5.558  18.079  0.00  0.00    +0.000 A 
ATOM      6  C   UNL     1       2.153   6.910  19.880  0.00  0.00    +0.000 A 
ATOM      7  O   UNL     1       1.854   6.142  20.783  0.00  0.00    +0.000 OA
ATOM      8  N   UNL     1       1.843   8.279  19.735  0.00  0.00    +0.000 N 
ATOM      9  N   UNL     1       2.213   8.741  18.395  0.00  0.00    +0.000 N 
ATOM     10  C   UNL     1       2.611  10.132  18.236  0.00  0.00    +0.000 C 
ENDROOT
BRANCH   1  15
ATOM     11  C   UNL     1       7.526   4.131  12.722  0.00  0.00    +0.000 C 
ATOM     12  C   UNL     1       6.703   4.537  13.908  0.00  0.00    +0.000 A 
ATOM     13  C   UNL     1       5.396   4.073  14.064  0.00  0.00    +0.000 A 
ATOM     14  C   UNL     1       4.612   4.510  15.137  0.00  0.00    +0.000 A 
ATOM     15  C   UNL     1       5.097   5.471  16.033  0.00  0.00    +0.000 A 
ATOM     16  C   UNL     1       6.439   5.861  15.939  0.00  0.00    +0.000 A 
ATOM     17  C   UNL     1       7.232   5.398  14.878  0.00  0.00    +0.000 A 
ENDBRANCH   1  15
BRANCH   5  18
ATOM     18  C   UNL     1       3.485   4.127  18.449  0.00  0.00    +0.000 A 
ATOM     19  C   UNL     1       2.503   3.265  17.931  0.00  0.00    +0.000 A 
ATOM     20  C   UNL     1       2.502   1.901  18.238  0.00  0.00    +0.000 A 
ATOM     21  C   UNL     1       3.415   1.395  19.157  0.00  0.00    +0.000 A 
ATOM     22  C   UNL     1       4.337   2.248  19.751  0.00  0.00    +0.000 A 
ATOM     23  C   UNL     1       4.388   3.593  19.376  0.00  0.00    +0.000 A 
ENDBRANCH   5  18
BRANCH   8  24
ATOM     24  C   UNL     1       0.967   8.966  20.591  0.00  0.00    +0.000 A 
ATOM     25  C   UNL     1       1.139   8.825  21.976  0.00  0.00    +0.000 A 
ATOM     26  C   UNL     1       0.322   9.522  22.866  0.00  0.00    +0.000 A 
ATOM     27  C   UNL     1      -0.706  10.321  22.377  0.00  0.00    +0.000 A 
ATOM     28  C   UNL     1      -0.905  10.439  20.999  0.00  0.00    +0.000 A 
ATOM     29  C   UNL     1      -0.062   9.773  20.107  0.00  0.00    +0.000 A 
ENDBRANCH   8  24
TORSDOF 3
ENDMDL
MODEL 6
REMARK VINA RESULT:      -8.0      1.718      2.429
REMARK  Name = 
REMARK  5 active torsions:
REMARK  status: ('A' for Active; 'I' for Inactive)
REMARK    1  A    between atoms: C_1  and  C_2
REMARK    2  A    between atoms: C_5  and  N_6
REMARK    3  A    between atoms: C_10  and  C_11
REMARK    4  A    between atoms: N_19  and  C_20
REMARK    5  A    between atoms: N_26  and  C_27
REMARK                            x       y       z     vdW  Elec       q    Type
REMARK                         _______ _______ _______ _____ _____    ______ ____
ROOT
ATOM      1  N   UNL     1       4.221   6.128  16.966  0.00  0.00    +0.000 N 
ATOM      2  C   UNL     1       3.819   7.474  16.848  0.00  0.00    +0.000 A 
ATOM      3  C   UNL     1       2.973   7.735  17.879  0.00  0.00    +0.000 A 
ATOM      4  C   UNL     1       2.937   6.622  18.713  0.00  0.00    +0.000 A 
ATOM      5  C   UNL     1       3.575   5.562  18.103  0.00  0.00    +0.000 A 
ATOM      6  C   UNL     1       2.185   6.924  19.905  0.00  0.00    +0.000 A 
ATOM      7  O   UNL     1       1.901   6.164  20.820  0.00  0.00    +0.000 OA
ATOM      8  N   UNL     1       1.866   8.290  19.750  0.00  0.00    +0.000 N 
ATOM      9  N   UNL     1       2.218   8.741  18.402  0.00  0.00    +0.000 N 
ATOM     10  C   UNL     1       2.607  10.132  18.224  0.00  0.00    +0.000 C 
ENDROOT
BRANCH   1  15
ATOM     11  C   UNL     1       7.505   4.110  12.721  0.00  0.00    +0.000 C 
ATOM     12  C   UNL     1       6.688   4.520  13.911  0.00  0.00    +0.000 A 
ATOM     13  C   UNL     1       5.379   4.063  14.070  0.00  0.00    +0.000 A 
ATOM     14  C   UNL     1       4.601   4.505  15.145  0.00  0.00    +0.000 A 
ATOM     15  C   UNL     1       5.094   5.463  16.041  0.00  0.00    +0.000 A 
ATOM     16  C   UNL     1       6.438   5.845  15.942  0.00  0.00    +0.000 A 
ATOM     17  C   UNL     1       7.225   5.378  14.879  0.00  0.00    +0.000 A 
ENDBRANCH   1  15
BRANCH   5  18
ATOM     18  C   UNL     1       3.516   4.135  18.488  0.00  0.00    +0.000 A 
ATOM     19  C   UNL     1       4.472   3.545  19.332  0.00  0.00    +0.000 A 
ATOM     20  C   UNL     1       4.353   2.213  19.741  0.00  0.00    +0.000 A 
ATOM     21  C   UNL     1       3.339   1.414  19.223  0.00  0.00    +0.000 A 
ATOM     22  C   UNL     1       2.436   1.953  18.315  0.00  0.00    +0.000 A 
ATOM     23  C   UNL     1       2.509   3.307  17.976  0.00  0.00    +0.000 A 
ENDBRANCH   5  18
BRANCH   8  24
ATOM     24  C   UNL     1       0.996   8.981  20.609  0.00  0.00    +0.000 A 
ATOM     25  C   UNL     1       0.009   9.801  20.043  0.00  0.00    +0.000 A 
ATOM     26  C   UNL     1      -0.905  10.474  20.854  0.00  0.00    +0.000 A 
ATOM     27  C   UNL     1      -0.804  10.372  22.238  0.00  0.00    +0.000 A 
ATOM     28  C   UNL     1       0.198   9.584  22.810  0.00  0.00    +0.000 A 
ATOM     29  C   UNL     1       1.089   8.879  21.997  0.00  0.00    +0.000 A 
ENDBRANCH   8  24
TORSDOF 3
ENDMDL
MODEL 7
REMARK VINA RESULT:      -7.9      0.832      1.354
REMARK  Name = 
REMARK  5 active torsions:
REMARK  status: ('A' for Active; 'I' for Inactive)
REMARK    1  A    between atoms: C_1  and  C_2
REMARK    2  A    between atoms: C_5  and  N_6
REMARK    3  A    between atoms: C_10  and  C_11
REMARK    4  A    between atoms: N_19  and  C_20
REMARK    5  A    between atoms: N_26  and  C_27
REMARK                            x       y       z     vdW  Elec       q    Type
REMARK                         _______ _______ _______ _____ _____    ______ ____
ROOT
ATOM      1  N   UNL     1       2.934   7.124  18.089  0.00  0.00    +0.000 N 
ATOM      2  C   UNL     1       2.573   8.451  17.783  0.00  0.00    +0.000 A 
ATOM      3  C   UNL     1       1.832   8.919  18.822  0.00  0.00    +0.000 A 
ATOM      4  C   UNL     1       1.831   7.958  19.829  0.00  0.00    +0.000 A 
ATOM      5  C   UNL     1       2.372   6.783  19.353  0.00  0.00    +0.000 A 
ATOM      6  C   UNL     1       1.200   8.487  21.012  0.00  0.00    +0.000 A 
ATOM      7  O   UNL     1       0.970   7.901  22.060  0.00  0.00    +0.000 OA
ATOM      8  N   UNL     1       0.917   9.824  20.659  0.00  0.00    +0.000 N 
ATOM      9  N   UNL     1       1.165  10.032  19.231  0.00  0.00    +0.000 N 
ATOM     10  C   UNL     1       1.586  11.355  18.794  0.00  0.00    +0.000 C 
ENDROOT
BRANCH   1  15
ATOM     11  C   UNL     1       6.514   3.629  15.287  0.00  0.00    +0.000 C 
ATOM     12  C   UNL     1       5.500   4.553  15.895  0.00  0.00    +0.000 A 
ATOM     13  C   UNL     1       5.657   5.937  15.814  0.00  0.00    +0.000 A 
ATOM     14  C   UNL     1       4.743   6.791  16.442  0.00  0.00    +0.000 A 
ATOM     15  C   UNL     1       3.697   6.274  17.218  0.00  0.00    +0.000 A 
ATOM     16  C   UNL     1       3.479   4.891  17.217  0.00  0.00    +0.000 A 
ATOM     17  C   UNL     1       4.381   4.038  16.562  0.00  0.00    +0.000 A 
ENDBRANCH   1  15
BRANCH   5  18
ATOM     18  C   UNL     1       2.296   5.441  19.973  0.00  0.00    +0.000 A 
ATOM     19  C   UNL     1       3.444   4.710  20.323  0.00  0.00    +0.000 A 
ATOM     20  C   UNL     1       3.346   3.477  20.975  0.00  0.00    +0.000 A 
ATOM     21  C   UNL     1       2.098   2.900  21.188  0.00  0.00    +0.000 A 
ATOM     22  C   UNL     1       0.953   3.565  20.766  0.00  0.00    +0.000 A 
ATOM     23  C   UNL     1       1.053   4.835  20.192  0.00  0.00    +0.000 A 
ENDBRANCH   5  18
BRANCH   8  24
ATOM     24  C   UNL     1       0.153  10.689  21.461  0.00  0.00    +0.000 A 
ATOM     25  C   UNL     1       0.350  12.071  21.329  0.00  0.00    +0.000 A 
ATOM     26  C   UNL     1      -0.415  12.970  22.072  0.00  0.00    +0.000 A 
ATOM     27  C   UNL     1      -1.344  12.490  22.989  0.00  0.00    +0.000 A 
ATOM     28  C   UNL     1      -1.522  11.114  23.150  0.00  0.00    +0.000 A 
ATOM     29  C   UNL     1      -0.784  10.214  22.378  0.00  0.00    +0.000 A 
ENDBRANCH   8  24
TORSDOF 3
ENDMDL
MODEL 8
REMARK VINA RESULT:      -7.8      3.427      6.557
REMARK  Name = 
REMARK  5 active torsions:
REMARK  status: ('A' for Active; 'I' for Inactive)
REMARK    1  A    between atoms: C_1  and  C_2
REMARK    2  A    between atoms: C_5  and  N_6
REMARK    3  A    between atoms: C_10  and  C_11
REMARK    4  A    between atoms: N_19  and  C_20
REMARK    5  A    between atoms: N_26  and  C_27
REMARK                            x       y       z     vdW  Elec       q    Type
REMARK                         _______ _______ _______ _____ _____    ______ ____
ROOT
ATOM      1  N   UNL     1      -0.271  11.134  20.234  0.00  0.00    +0.000 N 
ATOM      2  C   UNL     1      -0.051  11.996  21.327  0.00  0.00    +0.000 A 
ATOM      3  C   UNL     1      -1.149  12.788  21.444  0.00  0.00    +0.000 A 
ATOM      4  C   UNL     1      -2.105  12.354  20.531  0.00  0.00    +0.000 A 
ATOM      5  C   UNL     1      -1.543  11.436  19.668  0.00  0.00    +0.000 A 
ATOM      6  C   UNL     1      -3.345  13.058  20.744  0.00  0.00    +0.000 A 
ATOM      7  O   UNL     1      -4.372  12.974  20.086  0.00  0.00    +0.000 OA
ATOM      8  N   UNL     1      -3.075  13.854  21.878  0.00  0.00    +0.000 N 
ATOM      9  N   UNL     1      -1.648  13.802  22.203  0.00  0.00    +0.000 N 
ATOM     10  C   UNL     1      -1.258  13.949  23.598  0.00  0.00    +0.000 C 
ENDROOT
BRANCH   1  15
ATOM     11  C   UNL     1       2.841   6.840  18.052  0.00  0.00    +0.000 C 
ATOM     12  C   UNL     1       2.154   8.020  18.674  0.00  0.00    +0.000 A 
ATOM     13  C   UNL     1       1.725   7.978  20.001  0.00  0.00    +0.000 A 
ATOM     14  C   UNL     1       1.024   9.056  20.553  0.00  0.00    +0.000 A 
ATOM     15  C   UNL     1       0.681  10.164  19.767  0.00  0.00    +0.000 A 
ATOM     16  C   UNL     1       1.196  10.253  18.468  0.00  0.00    +0.000 A 
ATOM     17  C   UNL     1       1.924   9.182  17.927  0.00  0.00    +0.000 A 
ENDBRANCH   1  15
BRANCH   5  18
ATOM     18  C   UNL     1      -2.097  10.951  18.385  0.00  0.00    +0.000 A 
ATOM     19  C   UNL     1      -2.681   9.680  18.253  0.00  0.00    +0.000 A 
ATOM     20  C   UNL     1      -3.264   9.273  17.048  0.00  0.00    +0.000 A 
ATOM     21  C   UNL     1      -3.174  10.085  15.923  0.00  0.00    +0.000 A 
ATOM     22  C   UNL     1      -2.519  11.308  16.008  0.00  0.00    +0.000 A 
ATOM     23  C   UNL     1      -2.014  11.746  17.235  0.00  0.00    +0.000 A 
ENDBRANCH   5  18
BRANCH   8  24
ATOM     24  C   UNL     1      -3.958  14.835  22.359  0.00  0.00    +0.000 A 
ATOM     25  C   UNL     1      -4.944  14.453  23.281  0.00  0.00    +0.000 A 
ATOM     26  C   UNL     1      -5.815  15.400  23.819  0.00  0.00    +0.000 A 
ATOM     27  C   UNL     1      -5.740  16.724  23.399  0.00  0.00    +0.000 A 
ATOM     28  C   UNL     1      -4.783  17.105  22.455  0.00  0.00    +0.000 A 
ATOM     29  C   UNL     1      -3.884  16.165  21.945  0.00  0.00    +0.000 A 
ENDBRANCH   8  24
TORSDOF 3
ENDMDL
MODEL 9
REMARK VINA RESULT:      -7.5      3.427      6.515
REMARK  Name = 
REMARK  5 active torsions:
REMARK  status: ('A' for Active; 'I' for Inactive)
REMARK    1  A    between atoms: C_1  and  C_2
REMARK    2  A    between atoms: C_5  and  N_6
REMARK    3  A    between atoms: C_10  and  C_11
REMARK    4  A    between atoms: N_19  and  C_20
REMARK    5  A    between atoms: N_26  and  C_27
REMARK                            x       y       z     vdW  Elec       q    Type
REMARK                         _______ _______ _______ _____ _____    ______ ____
ROOT
ATOM      1  N   UNL     1      -0.444  10.808  19.977  0.00  0.00    +0.000 N 
ATOM      2  C   UNL     1      -0.116  11.617  21.083  0.00  0.00    +0.000 A 
ATOM      3  C   UNL     1      -1.114  12.529  21.226  0.00  0.00    +0.000 A 
ATOM      4  C   UNL     1      -2.121  12.228  20.315  0.00  0.00    +0.000 A 
ATOM      5  C   UNL     1      -1.676  11.268  19.430  0.00  0.00    +0.000 A 
ATOM      6  C   UNL     1      -3.268  13.068  20.553  0.00  0.00    +0.000 A 
ATOM      7  O   UNL     1      -4.303  13.118  19.904  0.00  0.00    +0.000 OA
ATOM      8  N   UNL     1      -2.898  13.805  21.698  0.00  0.00    +0.000 N 
ATOM      9  N   UNL     1      -1.484  13.580  22.009  0.00  0.00    +0.000 N 
ATOM     10  C   UNL     1      -1.069  13.654  23.402  0.00  0.00    +0.000 C 
ENDROOT
BRANCH   1  15
ATOM     11  C   UNL     1       3.527   7.077  18.191  0.00  0.00    +0.000 C 
ATOM     12  C   UNL     1       2.387   7.954  18.617  0.00  0.00    +0.000 A 
ATOM     13  C   UNL     1       1.784   8.830  17.715  0.00  0.00    +0.000 A 
ATOM     14  C   UNL     1       0.767   9.694  18.136  0.00  0.00    +0.000 A 
ATOM     15  C   UNL     1       0.384   9.743  19.483  0.00  0.00    +0.000 A 
ATOM     16  C   UNL     1       0.914   8.796  20.368  0.00  0.00    +0.000 A 
ATOM     17  C   UNL     1       1.913   7.912  19.935  0.00  0.00    +0.000 A 
ENDBRANCH   1  15
BRANCH   5  18
ATOM     18  C   UNL     1      -2.293  10.875  18.144  0.00  0.00    +0.000 A 
ATOM     19  C   UNL     1      -2.184  11.665  16.987  0.00  0.00    +0.000 A 
ATOM     20  C   UNL     1      -2.713  11.237  15.765  0.00  0.00    +0.000 A 
ATOM     21  C   UNL     1      -3.458  10.064  15.703  0.00  0.00    +0.000 A 
ATOM     22  C   UNL     1      -3.656   9.314  16.856  0.00  0.00    +0.000 A 
ATOM     23  C   UNL     1      -3.054   9.702  18.055  0.00  0.00    +0.000 A 
ENDBRANCH   5  18
BRANCH   8  24
ATOM     24  C   UNL     1      -3.656  14.873  22.206  0.00  0.00    +0.000 A 
ATOM     25  C   UNL     1      -4.668  14.592  23.136  0.00  0.00    +0.000 A 
ATOM     26  C   UNL     1      -5.418  15.623  23.700  0.00  0.00    +0.000 A 
ATOM     27  C   UNL     1      -5.196  16.937  23.299  0.00  0.00    +0.000 A 
ATOM     28  C   UNL     1      -4.212  17.221  22.348  0.00  0.00    +0.000 A 
ATOM     29  C   UNL     1      -3.434  16.192  21.812  0.00  0.00    +0.000 A 
ENDBRANCH   8  24
TORSDOF 3
ENDMDL
