MODEL 1
REMARK VINA RESULT:      -8.7      0.000      0.000
REMARK  Name = 
REMARK  3 active torsions:
REMARK  status: ('A' for Active; 'I' for Inactive)
REMARK    1  A    between atoms: C_1  and  C_2
REMARK    2  A    between atoms: C_4  and  C_5
REMARK    3  A    between atoms: C_10  and  C_12
REMARK                            x       y       z     vdW  Elec       q    Type
REMARK                         _______ _______ _______ _____ _____    ______ ____
ROOT
ATOM      1  C   UNL     1       2.026   5.401  20.140  0.00  0.00    +0.000 C 
ATOM      2  C   UNL     1       0.964   4.617  20.920  0.00  0.00    +0.000 C 
ATOM      3  C   UNL     1       1.613   3.309  21.371  0.00  0.00    +0.000 C 
ATOM      4  C   UNL     1       2.136   2.513  20.166  0.00  0.00    +0.000 C 
ATOM      5  N   UNL     1       2.960   3.330  19.257  0.00  0.00    +0.000 N 
ATOM      6  C   UNL     1       4.332   3.032  19.168  0.00  0.00    +0.000 C 
ATOM      7  O   UNL     1       4.884   2.202  19.890  0.00  0.00    +0.000 OA
ATOM      8  C   UNL     1       2.348   4.634  18.851  0.00  0.00    +0.000 C 
ENDROOT
BRANCH   1  12
ATOM      9  C   UNL     1      -0.303   9.158  22.323  0.00  0.00    +0.000 C 
ATOM     10  C   UNL     1       0.614   8.751  21.193  0.00  0.00    +0.000 A 
ATOM     11  C   UNL     1       1.153   7.368  21.269  0.00  0.00    +0.000 A 
ATOM     12  C   UNL     1       1.821   6.894  20.203  0.00  0.00    +0.000 A 
ATOM     13  N   UNL     1       2.076   7.777  19.143  0.00  0.00    +0.000 N 
ATOM     14  N   UNL     1       2.731   7.579  17.971  0.00  0.00    +0.000 NA
ATOM     15  C   UNL     1       2.625   8.772  17.378  0.00  0.00    +0.000 A 
ATOM     16  N   UNL     1       1.943   9.725  18.077  0.00  0.00    +0.000 NA
ATOM     17  C   UNL     1       1.593   9.105  19.183  0.00  0.00    +0.000 A 
ATOM     18  N   UNL     1       0.834   9.577  20.219  0.00  0.00    +0.000 NA
ENDBRANCH   1  12
BRANCH   6  19
ATOM     19  C   UNL     1       5.173   3.735  18.157  0.00  0.00    +0.000 A 
ATOM     20  C   UNL     1       6.149   4.665  18.579  0.00  0.00    +0.000 A 
ATOM     21  C   UNL     1       6.906   5.381  17.642  0.00  0.00    +0.000 A 
ATOM     22  C   UNL     1       6.679   5.147  16.296  0.00  0.00    +0.000 A 
ATOM     23  C   UNL     1       5.744   4.194  15.881  0.00  0.00    +0.000 A 
ATOM     24  C   UNL     1       5.020   3.455  16.795  0.00  0.00    +0.000 A 
ATOM     25  C   UNL     1       5.627   4.161  14.391  0.00  0.00    +0.000 C 
ATOM     26  C   UNL     1       6.945   4.829  13.987  0.00  0.00    +0.000 C 
ATOM     27  C   UNL     1       7.299   5.819  15.109  0.00  0.00    +0.000 C 
ENDBRANCH   6  19
TORSDOF 2
ENDMDL
MODEL 2
REMARK VINA RESULT:      -8.6      2.396      6.229
REMARK  Name = 
REMARK  3 active torsions:
REMARK  status: ('A' for Active; 'I' for Inactive)
REMARK    1  A    between atoms: C_1  and  C_2
REMARK    2  A    between atoms: C_4  and  C_5
REMARK    3  A    between atoms: C_10  and  C_12
REMARK                            x       y       z     vdW  Elec       q    Type
REMARK                         _______ _______ _______ _____ _____    ______ ____
ROOT
ATOM      1  C   UNL     1       4.859   4.242  18.812  0.00  0.00    +0.000 C 
ATOM      2  C   UNL     1       5.121   2.769  19.152  0.00  0.00    +0.000 C 
ATOM      3  C   UNL     1       3.761   2.115  19.392  0.00  0.00    +0.000 C 
ATOM      4  C   UNL     1       3.000   2.831  20.517  0.00  0.00    +0.000 C 
ATOM      5  N   UNL     1       2.958   4.294  20.337  0.00  0.00    +0.000 N 
ATOM      6  C   UNL     1       1.713   4.886  20.061  0.00  0.00    +0.000 C 
ATOM      7  O   UNL     1       0.691   4.231  19.857  0.00  0.00    +0.000 OA
ATOM      8  C   UNL     1       4.282   4.932  20.055  0.00  0.00    +0.000 C 
ENDROOT
BRANCH   1  12
ATOM      9  C   UNL     1       8.098   7.903  18.172  0.00  0.00    +0.000 C 
ATOM     10  C   UNL     1       7.458   6.685  17.548  0.00  0.00    +0.000 A 
ATOM     11  C   UNL     1       6.666   5.831  18.470  0.00  0.00    +0.000 A 
ATOM     12  C   UNL     1       5.927   4.843  17.934  0.00  0.00    +0.000 A 
ATOM     13  N   UNL     1       6.053   4.603  16.558  0.00  0.00    +0.000 N 
ATOM     14  N   UNL     1       5.453   3.677  15.767  0.00  0.00    +0.000 NA
ATOM     15  C   UNL     1       5.954   3.961  14.561  0.00  0.00    +0.000 A 
ATOM     16  N   UNL     1       6.829   5.008  14.513  0.00  0.00    +0.000 NA
ATOM     17  C   UNL     1       6.891   5.416  15.761  0.00  0.00    +0.000 A 
ATOM     18  N   UNL     1       7.579   6.482  16.274  0.00  0.00    +0.000 NA
ENDBRANCH   1  12
BRANCH   6  19
ATOM     19  C   UNL     1       1.599   6.372  20.016  0.00  0.00    +0.000 A 
ATOM     20  C   UNL     1       1.153   7.078  21.156  0.00  0.00    +0.000 A 
ATOM     21  C   UNL     1       0.980   8.468  21.113  0.00  0.00    +0.000 A 
ATOM     22  C   UNL     1       1.266   9.131  19.930  0.00  0.00    +0.000 A 
ATOM     23  C   UNL     1       1.750   8.436  18.818  0.00  0.00    +0.000 A 
ATOM     24  C   UNL     1       1.961   7.072  18.860  0.00  0.00    +0.000 A 
ATOM     25  C   UNL     1       1.926   9.345  17.645  0.00  0.00    +0.000 C 
ATOM     26  C   UNL     1       1.974  10.708  18.345  0.00  0.00    +0.000 C 
ATOM     27  C   UNL     1       1.105  10.584  19.607  0.00  0.00    +0.000 C 
ENDBRANCH   6  19
TORSDOF 2
ENDMDL
MODEL 3
REMARK VINA RESULT:      -8.5      2.340      6.440
REMARK  Name = 
REMARK  3 active torsions:
REMARK  status: ('A' for Active; 'I' for Inactive)
REMARK    1  A    between atoms: C_1  and  C_2
REMARK    2  A    between atoms: C_4  and  C_5
REMARK    3  A    between atoms: C_10  and  C_12
REMARK                            x       y       z     vdW  Elec       q    Type
REMARK                         _______ _______ _______ _____ _____    ______ ____
ROOT
ATOM      1  C   UNL     1       4.403   4.327  18.303  0.00  0.00    +0.000 C 
ATOM      2  C   UNL     1       4.762   2.873  18.632  0.00  0.00    +0.000 C 
ATOM      3  C   UNL     1       3.519   2.234  19.251  0.00  0.00    +0.000 C 
ATOM      4  C   UNL     1       3.071   3.006  20.500  0.00  0.00    +0.000 C 
ATOM      5  N   UNL     1       2.967   4.457  20.267  0.00  0.00    +0.000 N 
ATOM      6  C   UNL     1       1.686   5.037  20.298  0.00  0.00    +0.000 C 
ATOM      7  O   UNL     1       0.653   4.375  20.400  0.00  0.00    +0.000 OA
ATOM      8  C   UNL     1       4.164   5.079  19.618  0.00  0.00    +0.000 C 
ENDROOT
BRANCH   1  12
ATOM      9  C   UNL     1       5.957   3.676  13.669  0.00  0.00    +0.000 C 
ATOM     10  C   UNL     1       6.058   4.539  14.905  0.00  0.00    +0.000 A 
ATOM     11  C   UNL     1       5.044   4.274  15.959  0.00  0.00    +0.000 A 
ATOM     12  C   UNL     1       5.199   4.882  17.148  0.00  0.00    +0.000 A 
ATOM     13  N   UNL     1       6.232   5.823  17.274  0.00  0.00    +0.000 N 
ATOM     14  N   UNL     1       6.604   6.587  18.333  0.00  0.00    +0.000 NA
ATOM     15  C   UNL     1       7.655   7.255  17.850  0.00  0.00    +0.000 A 
ATOM     16  N   UNL     1       7.996   6.974  16.558  0.00  0.00    +0.000 NA
ATOM     17  C   UNL     1       7.110   6.074  16.194  0.00  0.00    +0.000 A 
ATOM     18  N   UNL     1       7.022   5.398  15.007  0.00  0.00    +0.000 NA
ENDBRANCH   1  12
BRANCH   6  19
ATOM     19  C   UNL     1       1.548   6.520  20.212  0.00  0.00    +0.000 A 
ATOM     20  C   UNL     1       1.071   7.247  21.327  0.00  0.00    +0.000 A 
ATOM     21  C   UNL     1       0.875   8.632  21.245  0.00  0.00    +0.000 A 
ATOM     22  C   UNL     1       1.169   9.269  20.050  0.00  0.00    +0.000 A 
ATOM     23  C   UNL     1       1.683   8.555  18.964  0.00  0.00    +0.000 A 
ATOM     24  C   UNL     1       1.916   7.197  19.045  0.00  0.00    +0.000 A 
ATOM     25  C   UNL     1       1.862   9.437  17.771  0.00  0.00    +0.000 C 
ATOM     26  C   UNL     1       1.875  10.817  18.436  0.00  0.00    +0.000 C 
ATOM     27  C   UNL     1       0.988  10.711  19.687  0.00  0.00    +0.000 C 
ENDBRANCH   6  19
TORSDOF 2
ENDMDL
MODEL 4
REMARK VINA RESULT:      -8.3      6.681     11.014
REMARK  Name = 
REMARK  3 active torsions:
REMARK  status: ('A' for Active; 'I' for Inactive)
REMARK    1  A    between atoms: C_1  and  C_2
REMARK    2  A    between atoms: C_4  and  C_5
REMARK    3  A    between atoms: C_10  and  C_12
REMARK                            x       y       z     vdW  Elec       q    Type
REMARK                         _______ _______ _______ _____ _____    ______ ____
ROOT
ATOM      1  C   UNL     1      -1.464  10.843  19.208  0.00  0.00    +0.000 C 
ATOM      2  C   UNL     1      -0.235  10.075  18.705  0.00  0.00    +0.000 C 
ATOM      3  C   UNL     1       0.508   9.561  19.938  0.00  0.00    +0.000 C 
ATOM      4  C   UNL     1       0.902  10.722  20.863  0.00  0.00    +0.000 C 
ATOM      5  N   UNL     1      -0.223  11.628  21.154  0.00  0.00    +0.000 N 
ATOM      6  C   UNL     1      -0.717  11.660  22.470  0.00  0.00    +0.000 C 
ATOM      7  O   UNL     1      -0.325  10.894  23.351  0.00  0.00    +0.000 OA
ATOM      8  C   UNL     1      -0.983  12.096  19.952  0.00  0.00    +0.000 C 
ENDROOT
BRANCH   1  12
ATOM      9  C   UNL     1      -2.891  10.107  14.546  0.00  0.00    +0.000 C 
ATOM     10  C   UNL     1      -3.316  10.575  15.918  0.00  0.00    +0.000 A 
ATOM     11  C   UNL     1      -2.366  10.281  17.022  0.00  0.00    +0.000 A 
ATOM     12  C   UNL     1      -2.606  10.834  18.223  0.00  0.00    +0.000 A 
ATOM     13  N   UNL     1      -3.805  11.545  18.390  0.00  0.00    +0.000 N 
ATOM     14  N   UNL     1      -4.306  12.182  19.479  0.00  0.00    +0.000 NA
ATOM     15  C   UNL     1      -5.455  12.683  19.014  0.00  0.00    +0.000 A 
ATOM     16  N   UNL     1      -5.729  12.424  17.703  0.00  0.00    +0.000 NA
ATOM     17  C   UNL     1      -4.696  11.714  17.306  0.00  0.00    +0.000 A 
ATOM     18  N   UNL     1      -4.423  11.236  16.053  0.00  0.00    +0.000 NA
ENDBRANCH   1  12
BRANCH   6  19
ATOM     19  C   UNL     1      -1.755  12.665  22.842  0.00  0.00    +0.000 A 
ATOM     20  C   UNL     1      -1.378  14.002  23.099  0.00  0.00    +0.000 A 
ATOM     21  C   UNL     1      -2.330  14.945  23.510  0.00  0.00    +0.000 A 
ATOM     22  C   UNL     1      -3.646  14.535  23.649  0.00  0.00    +0.000 A 
ATOM     23  C   UNL     1      -4.024  13.222  23.351  0.00  0.00    +0.000 A 
ATOM     24  C   UNL     1      -3.102  12.295  22.908  0.00  0.00    +0.000 A 
ATOM     25  C   UNL     1      -5.474  12.998  23.633  0.00  0.00    +0.000 C 
ATOM     26  C   UNL     1      -5.990  14.440  23.642  0.00  0.00    +0.000 C 
ATOM     27  C   UNL     1      -4.827  15.321  24.130  0.00  0.00    +0.000 C 
ENDBRANCH   6  19
TORSDOF 2
ENDMDL
MODEL 5
REMARK VINA RESULT:      -8.3      6.688     11.066
REMARK  Name = 
REMARK  3 active torsions:
REMARK  status: ('A' for Active; 'I' for Inactive)
REMARK    1  A    between atoms: C_1  and  C_2
REMARK    2  A    between atoms: C_4  and  C_5
REMARK    3  A    between atoms: C_10  and  C_12
REMARK                            x       y       z     vdW  Elec       q    Type
REMARK                         _______ _______ _______ _____ _____    ______ ____
ROOT
ATOM      1  C   UNL     1      -1.462  10.900  19.271  0.00  0.00    +0.000 C 
ATOM      2  C   UNL     1      -0.219  10.205  18.702  0.00  0.00    +0.000 C 
ATOM      3  C   UNL     1       0.568   9.651  19.889  0.00  0.00    +0.000 C 
ATOM      4  C   UNL     1       0.942  10.772  20.869  0.00  0.00    +0.000 C 
ATOM      5  N   UNL     1      -0.208  11.619  21.233  0.00  0.00    +0.000 N 
ATOM      6  C   UNL     1      -0.673  11.561  22.559  0.00  0.00    +0.000 C 
ATOM      7  O   UNL     1      -0.236  10.762  23.387  0.00  0.00    +0.000 OA
ATOM      8  C   UNL     1      -1.009  12.126  20.075  0.00  0.00    +0.000 C 
ENDROOT
BRANCH   1  12
ATOM      9  C   UNL     1      -2.990  10.214  14.633  0.00  0.00    +0.000 C 
ATOM     10  C   UNL     1      -3.384  10.671  16.019  0.00  0.00    +0.000 A 
ATOM     11  C   UNL     1      -2.412  10.363  17.099  0.00  0.00    +0.000 A 
ATOM     12  C   UNL     1      -2.626  10.905  18.311  0.00  0.00    +0.000 A 
ATOM     13  N   UNL     1      -3.817  11.618  18.510  0.00  0.00    +0.000 N 
ATOM     14  N   UNL     1      -4.294  12.246  19.615  0.00  0.00    +0.000 NA
ATOM     15  C   UNL     1      -5.450  12.755  19.179  0.00  0.00    +0.000 A 
ATOM     16  N   UNL     1      -5.753  12.509  17.872  0.00  0.00    +0.000 NA
ATOM     17  C   UNL     1      -4.731  11.800  17.446  0.00  0.00    +0.000 A 
ATOM     18  N   UNL     1      -4.486  11.333  16.183  0.00  0.00    +0.000 NA
ENDBRANCH   1  12
BRANCH   6  19
ATOM     19  C   UNL     1      -1.737  12.506  23.007  0.00  0.00    +0.000 A 
ATOM     20  C   UNL     1      -3.083  12.079  23.048  0.00  0.00    +0.000 A 
ATOM     21  C   UNL     1      -4.104  12.969  23.406  0.00  0.00    +0.000 A 
ATOM     22  C   UNL     1      -3.759  14.272  23.726  0.00  0.00    +0.000 A 
ATOM     23  C   UNL     1      -2.422  14.680  23.728  0.00  0.00    +0.000 A 
ATOM     24  C   UNL     1      -1.404  13.802  23.415  0.00  0.00    +0.000 A 
ATOM     25  C   UNL     1      -2.299  16.135  24.044  0.00  0.00    +0.000 C 
ATOM     26  C   UNL     1      -3.653  16.398  24.712  0.00  0.00    +0.000 C 
ATOM     27  C   UNL     1      -4.655  15.421  24.074  0.00  0.00    +0.000 C 
ENDBRANCH   6  19
TORSDOF 2
ENDMDL
MODEL 6
REMARK VINA RESULT:      -8.2      2.441      6.577
REMARK  Name = 
REMARK  3 active torsions:
REMARK  status: ('A' for Active; 'I' for Inactive)
REMARK    1  A    between atoms: C_1  and  C_2
REMARK    2  A    between atoms: C_4  and  C_5
REMARK    3  A    between atoms: C_10  and  C_12
REMARK                            x       y       z     vdW  Elec       q    Type
REMARK                         _______ _______ _______ _____ _____    ______ ____
ROOT
ATOM      1  C   UNL     1       4.917   4.297  18.769  0.00  0.00    +0.000 C 
ATOM      2  C   UNL     1       5.210   2.845  19.166  0.00  0.00    +0.000 C 
ATOM      3  C   UNL     1       3.863   2.167  19.415  0.00  0.00    +0.000 C 
ATOM      4  C   UNL     1       3.071   2.906  20.504  0.00  0.00    +0.000 C 
ATOM      5  N   UNL     1       2.997   4.359  20.270  0.00  0.00    +0.000 N 
ATOM      6  C   UNL     1       1.741   4.910  19.957  0.00  0.00    +0.000 C 
ATOM      7  O   UNL     1       0.738   4.223  19.766  0.00  0.00    +0.000 OA
ATOM      8  C   UNL     1       4.308   5.019  19.979  0.00  0.00    +0.000 C 
ENDROOT
BRANCH   1  12
ATOM      9  C   UNL     1       8.067   8.016  18.025  0.00  0.00    +0.000 C 
ATOM     10  C   UNL     1       7.468   6.758  17.442  0.00  0.00    +0.000 A 
ATOM     11  C   UNL     1       6.686   5.919  18.387  0.00  0.00    +0.000 A 
ATOM     12  C   UNL     1       5.982   4.892  17.882  0.00  0.00    +0.000 A 
ATOM     13  N   UNL     1       6.133   4.600  16.518  0.00  0.00    +0.000 N 
ATOM     14  N   UNL     1       5.569   3.628  15.757  0.00  0.00    +0.000 NA
ATOM     15  C   UNL     1       6.079   3.877  14.548  0.00  0.00    +0.000 A 
ATOM     16  N   UNL     1       6.927   4.944  14.469  0.00  0.00    +0.000 NA
ATOM     17  C   UNL     1       6.961   5.403  15.700  0.00  0.00    +0.000 A 
ATOM     18  N   UNL     1       7.613   6.507  16.179  0.00  0.00    +0.000 NA
ENDBRANCH   1  12
BRANCH   6  19
ATOM     19  C   UNL     1       1.593   6.390  19.855  0.00  0.00    +0.000 A 
ATOM     20  C   UNL     1       1.916   7.047  18.647  0.00  0.00    +0.000 A 
ATOM     21  C   UNL     1       1.843   8.443  18.551  0.00  0.00    +0.000 A 
ATOM     22  C   UNL     1       1.438   9.159  19.666  0.00  0.00    +0.000 A 
ATOM     23  C   UNL     1       1.075   8.504  20.847  0.00  0.00    +0.000 A 
ATOM     24  C   UNL     1       1.106   7.127  20.941  0.00  0.00    +0.000 A 
ATOM     25  C   UNL     1       0.735   9.480  21.926  0.00  0.00    +0.000 C 
ATOM     26  C   UNL     1       0.454  10.737  21.097  0.00  0.00    +0.000 C 
ATOM     27  C   UNL     1       1.340  10.644  19.843  0.00  0.00    +0.000 C 
ENDBRANCH   6  19
TORSDOF 2
ENDMDL
MODEL 7
REMARK VINA RESULT:      -8.1      2.327      6.794
REMARK  Name = 
REMARK  3 active torsions:
REMARK  status: ('A' for Active; 'I' for Inactive)
REMARK    1  A    between atoms: C_1  and  C_2
REMARK    2  A    between atoms: C_4  and  C_5
REMARK    3  A    between atoms: C_10  and  C_12
REMARK                            x       y       z     vdW  Elec       q    Type
REMARK                         _______ _______ _______ _____ _____    ______ ____
ROOT
ATOM      1  C   UNL     1       4.410   4.303  18.320  0.00  0.00    +0.000 C 
ATOM      2  C   UNL     1       4.809   2.858  18.647  0.00  0.00    +0.000 C 
ATOM      3  C   UNL     1       3.585   2.184  19.266  0.00  0.00    +0.000 C 
ATOM      4  C   UNL     1       3.117   2.942  20.518  0.00  0.00    +0.000 C 
ATOM      5  N   UNL     1       2.973   4.390  20.287  0.00  0.00    +0.000 N 
ATOM      6  C   UNL     1       1.678   4.935  20.321  0.00  0.00    +0.000 C 
ATOM      7  O   UNL     1       0.663   4.244  20.423  0.00  0.00    +0.000 OA
ATOM      8  C   UNL     1       4.152   5.046  19.638  0.00  0.00    +0.000 C 
ENDROOT
BRANCH   1  12
ATOM      9  C   UNL     1       5.906   3.738  13.656  0.00  0.00    +0.000 C 
ATOM     10  C   UNL     1       6.019   4.580  14.906  0.00  0.00    +0.000 A 
ATOM     11  C   UNL     1       5.020   4.293  15.968  0.00  0.00    +0.000 A 
ATOM     12  C   UNL     1       5.189   4.881  17.165  0.00  0.00    +0.000 A 
ATOM     13  N   UNL     1       6.220   5.824  17.294  0.00  0.00    +0.000 N 
ATOM     14  N   UNL     1       6.602   6.570  18.362  0.00  0.00    +0.000 NA
ATOM     15  C   UNL     1       7.645   7.251  17.877  0.00  0.00    +0.000 A 
ATOM     16  N   UNL     1       7.970   6.994  16.577  0.00  0.00    +0.000 NA
ATOM     17  C   UNL     1       7.082   6.097  16.208  0.00  0.00    +0.000 A 
ATOM     18  N   UNL     1       6.982   5.442  15.011  0.00  0.00    +0.000 NA
ENDBRANCH   1  12
BRANCH   6  19
ATOM     19  C   UNL     1       1.499   6.414  20.238  0.00  0.00    +0.000 A 
ATOM     20  C   UNL     1       1.919   7.108  19.081  0.00  0.00    +0.000 A 
ATOM     21  C   UNL     1       1.817   8.504  19.010  0.00  0.00    +0.000 A 
ATOM     22  C   UNL     1       1.287   9.182  20.096  0.00  0.00    +0.000 A 
ATOM     23  C   UNL     1       0.830   8.488  21.221  0.00  0.00    +0.000 A 
ATOM     24  C   UNL     1       0.890   7.111  21.287  0.00  0.00    +0.000 A 
ATOM     25  C   UNL     1       0.360   9.428  22.283  0.00  0.00    +0.000 C 
ATOM     26  C   UNL     1       0.127  10.698  21.459  0.00  0.00    +0.000 C 
ATOM     27  C   UNL     1       1.131  10.658  20.295  0.00  0.00    +0.000 C 
ENDBRANCH   6  19
TORSDOF 2
ENDMDL
MODEL 8
REMARK VINA RESULT:      -7.9      7.435     10.403
REMARK  Name = 
REMARK  3 active torsions:
REMARK  status: ('A' for Active; 'I' for Inactive)
REMARK    1  A    between atoms: C_1  and  C_2
REMARK    2  A    between atoms: C_4  and  C_5
REMARK    3  A    between atoms: C_10  and  C_12
REMARK                            x       y       z     vdW  Elec       q    Type
REMARK                         _______ _______ _______ _____ _____    ______ ____
ROOT
ATOM      1  C   UNL     1      -1.191  11.311  19.176  0.00  0.00    +0.000 C 
ATOM      2  C   UNL     1      -0.656  10.005  19.777  0.00  0.00    +0.000 C 
ATOM      3  C   UNL     1       0.037  10.366  21.091  0.00  0.00    +0.000 C 
ATOM      4  C   UNL     1       1.161  11.385  20.855  0.00  0.00    +0.000 C 
ATOM      5  N   UNL     1       0.724  12.540  20.051  0.00  0.00    +0.000 N 
ATOM      6  C   UNL     1       0.662  13.795  20.683  0.00  0.00    +0.000 C 
ATOM      7  O   UNL     1       0.848  13.946  21.890  0.00  0.00    +0.000 OA
ATOM      8  C   UNL     1       0.004  12.192  18.786  0.00  0.00    +0.000 C 
ENDROOT
BRANCH   1  12
ATOM      9  C   UNL     1      -2.922  10.101  14.721  0.00  0.00    +0.000 C 
ATOM     10  C   UNL     1      -3.278  10.610  16.098  0.00  0.00    +0.000 A 
ATOM     11  C   UNL     1      -2.207  10.503  17.122  0.00  0.00    +0.000 A 
ATOM     12  C   UNL     1      -2.406  11.105  18.307  0.00  0.00    +0.000 A 
ATOM     13  N   UNL     1      -3.661  11.685  18.546  0.00  0.00    +0.000 N 
ATOM     14  N   UNL     1      -4.138  12.334  19.638  0.00  0.00    +0.000 NA
ATOM     15  C   UNL     1      -5.374  12.669  19.256  0.00  0.00    +0.000 A 
ATOM     16  N   UNL     1      -5.729  12.290  17.994  0.00  0.00    +0.000 NA
ATOM     17  C   UNL     1      -4.657  11.677  17.542  0.00  0.00    +0.000 A 
ATOM     18  N   UNL     1      -4.440  11.148  16.299  0.00  0.00    +0.000 NA
ENDBRANCH   1  12
BRANCH   6  19
ATOM     19  C   UNL     1       0.367  15.012  19.873  0.00  0.00    +0.000 A 
ATOM     20  C   UNL     1      -0.913  15.607  19.940  0.00  0.00    +0.000 A 
ATOM     21  C   UNL     1      -1.230  16.714  19.141  0.00  0.00    +0.000 A 
ATOM     22  C   UNL     1      -0.255  17.213  18.292  0.00  0.00    +0.000 A 
ATOM     23  C   UNL     1       1.025  16.650  18.260  0.00  0.00    +0.000 A 
ATOM     24  C   UNL     1       1.360  15.585  19.072  0.00  0.00    +0.000 A 
ATOM     25  C   UNL     1       1.883  17.311  17.231  0.00  0.00    +0.000 C 
ATOM     26  C   UNL     1       1.128  18.630  17.033  0.00  0.00    +0.000 C 
ATOM     27  C   UNL     1      -0.357  18.331  17.300  0.00  0.00    +0.000 C 
ENDBRANCH   6  19
TORSDOF 2
ENDMDL
MODEL 9
REMARK VINA RESULT:      -7.7      7.404     10.366
REMARK  Name = 
REMARK  3 active torsions:
REMARK  status: ('A' for Active; 'I' for Inactive)
REMARK    1  A    between atoms: C_1  and  C_2
REMARK    2  A    between atoms: C_4  and  C_5
REMARK    3  A    between atoms: C_10  and  C_12
REMARK                            x       y       z     vdW  Elec       q    Type
REMARK                         _______ _______ _______ _____ _____    ______ ____
ROOT
ATOM      1  C   UNL     1      -1.172  11.256  19.273  0.00  0.00    +0.000 C 
ATOM      2  C   UNL     1      -0.794   9.935  19.953  0.00  0.00    +0.000 C 
ATOM      3  C   UNL     1      -0.078  10.289  21.256  0.00  0.00    +0.000 C 
ATOM      4  C   UNL     1       1.156  11.161  20.982  0.00  0.00    +0.000 C 
ATOM      5  N   UNL     1       0.861  12.310  20.108  0.00  0.00    +0.000 N 
ATOM      6  C   UNL     1       0.935  13.598  20.669  0.00  0.00    +0.000 C 
ATOM      7  O   UNL     1       1.125  13.796  21.869  0.00  0.00    +0.000 OA
ATOM      8  C   UNL     1       0.118  11.974  18.853  0.00  0.00    +0.000 C 
ENDROOT
BRANCH   1  12
ATOM      9  C   UNL     1      -2.949  10.308  14.773  0.00  0.00    +0.000 C 
ATOM     10  C   UNL     1      -3.285  10.774  16.170  0.00  0.00    +0.000 A 
ATOM     11  C   UNL     1      -2.220  10.578  17.187  0.00  0.00    +0.000 A 
ATOM     12  C   UNL     1      -2.394  11.139  18.397  0.00  0.00    +0.000 A 
ATOM     13  N   UNL     1      -3.623  11.762  18.660  0.00  0.00    +0.000 N 
ATOM     14  N   UNL     1      -4.073  12.385  19.779  0.00  0.00    +0.000 NA
ATOM     15  C   UNL     1      -5.293  12.787  19.413  0.00  0.00    +0.000 A 
ATOM     16  N   UNL     1      -5.663  12.478  18.136  0.00  0.00    +0.000 NA
ATOM     17  C   UNL     1      -4.618  11.839  17.659  0.00  0.00    +0.000 A 
ATOM     18  N   UNL     1      -4.423  11.353  16.394  0.00  0.00    +0.000 NA
ENDBRANCH   1  12
BRANCH   6  19
ATOM     19  C   UNL     1       0.787  14.793  19.788  0.00  0.00    +0.000 A 
ATOM     20  C   UNL     1       1.870  15.209  18.981  0.00  0.00    +0.000 A 
ATOM     21  C   UNL     1       1.771  16.365  18.195  0.00  0.00    +0.000 A 
ATOM     22  C   UNL     1       0.585  17.081  18.223  0.00  0.00    +0.000 A 
ATOM     23  C   UNL     1      -0.499  16.643  18.989  0.00  0.00    +0.000 A 
ATOM     24  C   UNL     1      -0.428  15.485  19.737  0.00  0.00    +0.000 A 
ATOM     25  C   UNL     1      -1.641  17.604  18.912  0.00  0.00    +0.000 C 
ATOM     26  C   UNL     1      -1.283  18.371  17.635  0.00  0.00    +0.000 C 
ATOM     27  C   UNL     1       0.251  18.369  17.536  0.00  0.00    +0.000 C 
ENDBRANCH   6  19
TORSDOF 2
ENDMDL
