MODEL 1
REMARK VINA RESULT:      -8.5      0.000      0.000
REMARK  Name = 
REMARK  5 active torsions:
REMARK  status: ('A' for Active; 'I' for Inactive)
REMARK    1  A    between atoms: C_1  and  N_2
REMARK    2  A    between atoms: N_2  and  C_14
REMARK    3  A    between atoms: C_17  and  O_18
REMARK    4  A    between atoms: O_18  and  C_19
REMARK    5  A    between atoms: C_19  and  C_21
REMARK                            x       y       z     vdW  Elec       q    Type
REMARK                         _______ _______ _______ _____ _____    ______ ____
ROOT
ATOM      1  C   UNL     1       1.140   9.447  19.536  0.00  0.00    +0.000 A 
ATOM      2  C   UNL     1       1.385   8.393  20.436  0.00  0.00    +0.000 A 
ATOM      3  C   UNL     1       1.973   7.201  20.006  0.00  0.00    +0.000 A 
ATOM      4  C   UNL     1       2.317   7.057  18.663  0.00  0.00    +0.000 A 
ATOM      5  C   UNL     1       2.174   8.121  17.776  0.00  0.00    +0.000 A 
ATOM      6  C   UNL     1       1.582   9.307  18.211  0.00  0.00    +0.000 A 
ENDROOT
BRANCH   1   8
ATOM      7  C   UNL     1       1.106  11.742  20.302  0.00  0.00    +0.000 C 
ATOM      8  N   UNL     1       0.332  10.541  19.964  0.00  0.00    +0.000 N 
ATOM      9  C   UNL     1      -0.904  10.675  19.306  0.00  0.00    +0.000 C 
ATOM     10  N   UNL     1      -1.243   9.976  18.252  0.00  0.00    +0.000 NA
ATOM     11  S   UNL     1      -2.691  10.416  17.652  0.00  0.00    +0.000 S 
ATOM     12  O   UNL     1      -3.668   9.370  17.866  0.00  0.00    +0.000 OA
ATOM     13  O   UNL     1      -2.529  11.088  16.380  0.00  0.00    +0.000 OA
ATOM     14  C   UNL     1      -2.995  11.643  18.841  0.00  0.00    +0.000 A 
ATOM     15  C   UNL     1      -4.117  12.438  18.966  0.00  0.00    +0.000 A 
ATOM     16  C   UNL     1      -4.165  13.291  20.067  0.00  0.00    +0.000 A 
ATOM     17  C   UNL     1      -3.124  13.295  21.011  0.00  0.00    +0.000 A 
ATOM     18  C   UNL     1      -2.013  12.457  20.860  0.00  0.00    +0.000 A 
ATOM     19  C   UNL     1      -1.941  11.652  19.736  0.00  0.00    +0.000 A 
ENDBRANCH   1   8
BRANCH   4  20
ATOM     20  O   UNL     1       2.851   5.814  18.273  0.00  0.00    +0.000 OA
BRANCH  20  21
ATOM     21  C   UNL     1       2.043   4.685  18.219  0.00  0.00    +0.000 C 
ATOM     22  O   UNL     1       1.298   4.344  17.317  0.00  0.00    +0.000 OA
BRANCH  21  23
ATOM     23  C   UNL     1       2.234   3.879  19.456  0.00  0.00    +0.000 A 
ATOM     24  C   UNL     1       3.501   3.344  19.706  0.00  0.00    +0.000 A 
ATOM     25  C   UNL     1       3.687   2.622  20.871  0.00  0.00    +0.000 A 
ATOM     26  N   UNL     1       2.711   2.404  21.777  0.00  0.00    +0.000 NA
ATOM     27  C   UNL     1       1.493   2.919  21.506  0.00  0.00    +0.000 A 
ATOM     28  C   UNL     1       1.206   3.655  20.370  0.00  0.00    +0.000 A 
ENDBRANCH  21  23
ENDBRANCH  20  21
ENDBRANCH   4  20
TORSDOF 4
ENDMDL
MODEL 2
REMARK VINA RESULT:      -8.3      0.962      1.382
REMARK  Name = 
REMARK  5 active torsions:
REMARK  status: ('A' for Active; 'I' for Inactive)
REMARK    1  A    between atoms: C_1  and  N_2
REMARK    2  A    between atoms: N_2  and  C_14
REMARK    3  A    between atoms: C_17  and  O_18
REMARK    4  A    between atoms: O_18  and  C_19
REMARK    5  A    between atoms: C_19  and  C_21
REMARK                            x       y       z     vdW  Elec       q    Type
REMARK                         _______ _______ _______ _____ _____    ______ ____
ROOT
ATOM      1  C   UNL     1       1.120   9.756  19.431  0.00  0.00    +0.000 A 
ATOM      2  C   UNL     1       1.337   8.641  20.261  0.00  0.00    +0.000 A 
ATOM      3  C   UNL     1       2.037   7.524  19.798  0.00  0.00    +0.000 A 
ATOM      4  C   UNL     1       2.522   7.518  18.492  0.00  0.00    +0.000 A 
ATOM      5  C   UNL     1       2.405   8.647  17.686  0.00  0.00    +0.000 A 
ATOM      6  C   UNL     1       1.701   9.757  18.153  0.00  0.00    +0.000 A 
ENDROOT
BRANCH   1   8
ATOM      7  C   UNL     1       0.861  12.030  20.216  0.00  0.00    +0.000 C 
ATOM      8  N   UNL     1       0.208  10.764  19.859  0.00  0.00    +0.000 N 
ATOM      9  C   UNL     1      -1.030  10.787  19.190  0.00  0.00    +0.000 C 
ATOM     10  N   UNL     1      -1.291  10.068  18.127  0.00  0.00    +0.000 NA
ATOM     11  S   UNL     1      -2.769  10.374  17.517  0.00  0.00    +0.000 S 
ATOM     12  O   UNL     1      -3.644   9.237  17.713  0.00  0.00    +0.000 OA
ATOM     13  O   UNL     1      -2.661  11.070  16.252  0.00  0.00    +0.000 OA
ATOM     14  C   UNL     1      -3.199  11.555  18.713  0.00  0.00    +0.000 A 
ATOM     15  C   UNL     1      -4.393  12.239  18.833  0.00  0.00    +0.000 A 
ATOM     16  C   UNL     1      -4.531  13.074  19.941  0.00  0.00    +0.000 A 
ATOM     17  C   UNL     1      -3.504  13.168  20.895  0.00  0.00    +0.000 A 
ATOM     18  C   UNL     1      -2.317  12.440  20.748  0.00  0.00    +0.000 A 
ATOM     19  C   UNL     1      -2.159  11.657  19.619  0.00  0.00    +0.000 A 
ENDBRANCH   1   8
BRANCH   4  20
ATOM     20  O   UNL     1       3.168   6.343  18.059  0.00  0.00    +0.000 OA
BRANCH  20  21
ATOM     21  C   UNL     1       3.694   5.447  18.981  0.00  0.00    +0.000 C 
ATOM     22  O   UNL     1       4.781   5.494  19.529  0.00  0.00    +0.000 OA
BRANCH  21  23
ATOM     23  C   UNL     1       2.695   4.378  19.259  0.00  0.00    +0.000 A 
ATOM     24  C   UNL     1       2.479   4.006  20.589  0.00  0.00    +0.000 A 
ATOM     25  C   UNL     1       1.528   3.037  20.849  0.00  0.00    +0.000 A 
ATOM     26  N   UNL     1       0.800   2.428  19.889  0.00  0.00    +0.000 NA
ATOM     27  C   UNL     1       1.037   2.795  18.612  0.00  0.00    +0.000 A 
ATOM     28  C   UNL     1       1.966   3.754  18.248  0.00  0.00    +0.000 A 
ENDBRANCH  21  23
ENDBRANCH  20  21
ENDBRANCH   4  20
TORSDOF 4
ENDMDL
MODEL 3
REMARK VINA RESULT:      -8.2      2.822      3.496
REMARK  Name = 
REMARK  5 active torsions:
REMARK  status: ('A' for Active; 'I' for Inactive)
REMARK    1  A    between atoms: C_1  and  N_2
REMARK    2  A    between atoms: N_2  and  C_14
REMARK    3  A    between atoms: C_17  and  O_18
REMARK    4  A    between atoms: O_18  and  C_19
REMARK    5  A    between atoms: C_19  and  C_21
REMARK                            x       y       z     vdW  Elec       q    Type
REMARK                         _______ _______ _______ _____ _____    ______ ____
ROOT
ATOM      1  C   UNL     1       1.698   7.644  20.353  0.00  0.00    +0.000 A 
ATOM      2  C   UNL     1       1.607   6.272  20.652  0.00  0.00    +0.000 A 
ATOM      3  C   UNL     1       1.994   5.305  19.720  0.00  0.00    +0.000 A 
ATOM      4  C   UNL     1       2.474   5.712  18.476  0.00  0.00    +0.000 A 
ATOM      5  C   UNL     1       2.664   7.062  18.196  0.00  0.00    +0.000 A 
ATOM      6  C   UNL     1       2.271   8.022  19.129  0.00  0.00    +0.000 A 
ENDROOT
BRANCH   1   8
ATOM      7  C   UNL     1       1.918   8.954  22.375  0.00  0.00    +0.000 C 
ATOM      8  N   UNL     1       1.077   8.580  21.231  0.00  0.00    +0.000 N 
ATOM      9  C   UNL     1       0.278   9.557  20.610  0.00  0.00    +0.000 C 
ATOM     10  N   UNL     1       0.228   9.733  19.313  0.00  0.00    +0.000 NA
ATOM     11  S   UNL     1      -0.709  10.998  18.893  0.00  0.00    +0.000 S 
ATOM     12  O   UNL     1      -1.912  10.539  18.231  0.00  0.00    +0.000 OA
ATOM     13  O   UNL     1       0.103  12.081  18.380  0.00  0.00    +0.000 OA
ATOM     14  C   UNL     1      -1.154  11.418  20.516  0.00  0.00    +0.000 A 
ATOM     15  C   UNL     1      -2.003  12.428  20.924  0.00  0.00    +0.000 A 
ATOM     16  C   UNL     1      -2.278  12.508  22.288  0.00  0.00    +0.000 A 
ATOM     17  C   UNL     1      -1.731  11.570  23.180  0.00  0.00    +0.000 A 
ATOM     18  C   UNL     1      -0.891  10.548  22.724  0.00  0.00    +0.000 A 
ATOM     19  C   UNL     1      -0.575  10.505  21.378  0.00  0.00    +0.000 A 
ENDBRANCH   1   8
BRANCH   4  20
ATOM     20  O   UNL     1       2.794   4.695  17.555  0.00  0.00    +0.000 OA
BRANCH  20  21
ATOM     21  C   UNL     1       3.743   3.731  17.871  0.00  0.00    +0.000 C 
ATOM     22  O   UNL     1       3.576   2.696  18.492  0.00  0.00    +0.000 OA
BRANCH  21  23
ATOM     23  C   UNL     1       5.059   4.125  17.296  0.00  0.00    +0.000 A 
ATOM     24  C   UNL     1       6.068   4.530  18.174  0.00  0.00    +0.000 A 
ATOM     25  C   UNL     1       7.300   4.864  17.643  0.00  0.00    +0.000 A 
ATOM     26  N   UNL     1       7.581   4.823  16.324  0.00  0.00    +0.000 NA
ATOM     27  C   UNL     1       6.586   4.442  15.495  0.00  0.00    +0.000 A 
ATOM     28  C   UNL     1       5.319   4.087  15.927  0.00  0.00    +0.000 A 
ENDBRANCH  21  23
ENDBRANCH  20  21
ENDBRANCH   4  20
TORSDOF 4
ENDMDL
MODEL 4
REMARK VINA RESULT:      -8.1      2.531      3.115
REMARK  Name = 
REMARK  5 active torsions:
REMARK  status: ('A' for Active; 'I' for Inactive)
REMARK    1  A    between atoms: C_1  and  N_2
REMARK    2  A    between atoms: N_2  and  C_14
REMARK    3  A    between atoms: C_17  and  O_18
REMARK    4  A    between atoms: O_18  and  C_19
REMARK    5  A    between atoms: C_19  and  C_21
REMARK                            x       y       z     vdW  Elec       q    Type
REMARK                         _______ _______ _______ _____ _____    ______ ____
ROOT
ATOM      1  C   UNL     1       1.194   9.556  19.508  0.00  0.00    +0.000 A 
ATOM      2  C   UNL     1       1.370   8.423  20.324  0.00  0.00    +0.000 A 
ATOM      3  C   UNL     1       1.987   7.270  19.830  0.00  0.00    +0.000 A 
ATOM      4  C   UNL     1       2.429   7.247  18.509  0.00  0.00    +0.000 A 
ATOM      5  C   UNL     1       2.354   8.388  17.715  0.00  0.00    +0.000 A 
ATOM      6  C   UNL     1       1.733   9.534  18.213  0.00  0.00    +0.000 A 
ENDROOT
BRANCH   1   8
ATOM      7  C   UNL     1       1.099  11.826  20.340  0.00  0.00    +0.000 C 
ATOM      8  N   UNL     1       0.358  10.613  19.973  0.00  0.00    +0.000 N 
ATOM      9  C   UNL     1      -0.887  10.729  19.329  0.00  0.00    +0.000 C 
ATOM     10  N   UNL     1      -1.215  10.050  18.258  0.00  0.00    +0.000 NA
ATOM     11  S   UNL     1      -2.681  10.464  17.683  0.00  0.00    +0.000 S 
ATOM     12  O   UNL     1      -3.625   9.383  17.875  0.00  0.00    +0.000 OA
ATOM     13  O   UNL     1      -2.550  11.177  16.430  0.00  0.00    +0.000 OA
ATOM     14  C   UNL     1      -3.010  11.647  18.910  0.00  0.00    +0.000 A 
ATOM     15  C   UNL     1      -4.154  12.405  19.066  0.00  0.00    +0.000 A 
ATOM     16  C   UNL     1      -4.217  13.224  20.191  0.00  0.00    +0.000 A 
ATOM     17  C   UNL     1      -3.169  13.233  21.126  0.00  0.00    +0.000 A 
ATOM     18  C   UNL     1      -2.035  12.432  20.943  0.00  0.00    +0.000 A 
ATOM     19  C   UNL     1      -1.949  11.663  19.796  0.00  0.00    +0.000 A 
ENDBRANCH   1   8
BRANCH   4  20
ATOM     20  O   UNL     1       2.990   6.040  18.047  0.00  0.00    +0.000 OA
BRANCH  20  21
ATOM     21  C   UNL     1       4.181   5.566  18.582  0.00  0.00    +0.000 C 
ATOM     22  O   UNL     1       4.366   5.098  19.691  0.00  0.00    +0.000 OA
BRANCH  21  23
ATOM     23  C   UNL     1       5.261   5.677  17.562  0.00  0.00    +0.000 A 
ATOM     24  C   UNL     1       6.424   6.373  17.905  0.00  0.00    +0.000 A 
ATOM     25  C   UNL     1       7.439   6.447  16.970  0.00  0.00    +0.000 A 
ATOM     26  N   UNL     1       7.368   5.888  15.744  0.00  0.00    +0.000 NA
ATOM     27  C   UNL     1       6.229   5.233  15.432  0.00  0.00    +0.000 A 
ATOM     28  C   UNL     1       5.157   5.102  16.296  0.00  0.00    +0.000 A 
ENDBRANCH  21  23
ENDBRANCH  20  21
ENDBRANCH   4  20
TORSDOF 4
ENDMDL
MODEL 5
REMARK VINA RESULT:      -8.1      3.003      3.464
REMARK  Name = 
REMARK  5 active torsions:
REMARK  status: ('A' for Active; 'I' for Inactive)
REMARK    1  A    between atoms: C_1  and  N_2
REMARK    2  A    between atoms: N_2  and  C_14
REMARK    3  A    between atoms: C_17  and  O_18
REMARK    4  A    between atoms: O_18  and  C_19
REMARK    5  A    between atoms: C_19  and  C_21
REMARK                            x       y       z     vdW  Elec       q    Type
REMARK                         _______ _______ _______ _____ _____    ______ ____
ROOT
ATOM      1  C   UNL     1       1.058   9.115  20.201  0.00  0.00    +0.000 A 
ATOM      2  C   UNL     1       1.674   7.927  20.636  0.00  0.00    +0.000 A 
ATOM      3  C   UNL     1       2.321   7.080  19.732  0.00  0.00    +0.000 A 
ATOM      4  C   UNL     1       2.350   7.420  18.381  0.00  0.00    +0.000 A 
ATOM      5  C   UNL     1       1.833   8.637  17.944  0.00  0.00    +0.000 A 
ATOM      6  C   UNL     1       1.184   9.476  18.851  0.00  0.00    +0.000 A 
ENDROOT
BRANCH   1   8
ATOM      7  C   UNL     1      -0.047   9.091  22.354  0.00  0.00    +0.000 C 
ATOM      8  N   UNL     1       0.214   9.822  21.108  0.00  0.00    +0.000 N 
ATOM      9  C   UNL     1       0.400  11.216  21.148  0.00  0.00    +0.000 C 
ATOM     10  N   UNL     1       1.386  11.832  20.545  0.00  0.00    +0.000 NA
ATOM     11  S   UNL     1       1.398  13.432  20.848  0.00  0.00    +0.000 S 
ATOM     12  O   UNL     1       1.052  14.177  19.656  0.00  0.00    +0.000 OA
ATOM     13  O   UNL     1       2.523  13.780  21.690  0.00  0.00    +0.000 OA
ATOM     14  C   UNL     1      -0.011  13.417  21.861  0.00  0.00    +0.000 A 
ATOM     15  C   UNL     1      -0.626  14.495  22.469  0.00  0.00    +0.000 A 
ATOM     16  C   UNL     1      -1.807  14.237  23.162  0.00  0.00    +0.000 A 
ATOM     17  C   UNL     1      -2.345  12.940  23.194  0.00  0.00    +0.000 A 
ATOM     18  C   UNL     1      -1.704  11.878  22.546  0.00  0.00    +0.000 A 
ATOM     19  C   UNL     1      -0.501  12.125  21.907  0.00  0.00    +0.000 A 
ENDBRANCH   1   8
BRANCH   4  20
ATOM     20  O   UNL     1       2.963   6.502  17.507  0.00  0.00    +0.000 OA
BRANCH  20  21
ATOM     21  C   UNL     1       4.096   5.802  17.902  0.00  0.00    +0.000 C 
ATOM     22  O   UNL     1       5.221   6.239  18.070  0.00  0.00    +0.000 OA
BRANCH  21  23
ATOM     23  C   UNL     1       3.741   4.376  18.141  0.00  0.00    +0.000 A 
ATOM     24  C   UNL     1       4.405   3.692  19.163  0.00  0.00    +0.000 A 
ATOM     25  C   UNL     1       4.051   2.377  19.405  0.00  0.00    +0.000 A 
ATOM     26  N   UNL     1       3.102   1.718  18.708  0.00  0.00    +0.000 NA
ATOM     27  C   UNL     1       2.484   2.396  17.717  0.00  0.00    +0.000 A 
ATOM     28  C   UNL     1       2.766   3.713  17.396  0.00  0.00    +0.000 A 
ENDBRANCH  21  23
ENDBRANCH  20  21
ENDBRANCH   4  20
TORSDOF 4
ENDMDL
MODEL 6
REMARK VINA RESULT:      -8.1      3.332      3.916
REMARK  Name = 
REMARK  5 active torsions:
REMARK  status: ('A' for Active; 'I' for Inactive)
REMARK    1  A    between atoms: C_1  and  N_2
REMARK    2  A    between atoms: N_2  and  C_14
REMARK    3  A    between atoms: C_17  and  O_18
REMARK    4  A    between atoms: O_18  and  C_19
REMARK    5  A    between atoms: C_19  and  C_21
REMARK                            x       y       z     vdW  Elec       q    Type
REMARK                         _______ _______ _______ _____ _____    ______ ____
ROOT
ATOM      1  C   UNL     1       0.702   9.512  20.553  0.00  0.00    +0.000 A 
ATOM      2  C   UNL     1       1.416   8.360  20.932  0.00  0.00    +0.000 A 
ATOM      3  C   UNL     1       2.114   7.603  19.988  0.00  0.00    +0.000 A 
ATOM      4  C   UNL     1       2.097   7.997  18.651  0.00  0.00    +0.000 A 
ATOM      5  C   UNL     1       1.480   9.185  18.269  0.00  0.00    +0.000 A 
ATOM      6  C   UNL     1       0.780   9.934  19.216  0.00  0.00    +0.000 A 
ENDROOT
BRANCH   1   8
ATOM      7  C   UNL     1      -0.367   9.315  22.714  0.00  0.00    +0.000 C 
ATOM      8  N   UNL     1      -0.182  10.114  21.496  0.00  0.00    +0.000 N 
ATOM      9  C   UNL     1      -0.104  11.515  21.591  0.00  0.00    +0.000 C 
ATOM     10  N   UNL     1       0.822  12.230  21.003  0.00  0.00    +0.000 NA
ATOM     11  S   UNL     1       0.713  13.813  21.371  0.00  0.00    +0.000 S 
ATOM     12  O   UNL     1       0.294  14.575  20.213  0.00  0.00    +0.000 OA
ATOM     13  O   UNL     1       1.819  14.214  22.214  0.00  0.00    +0.000 OA
ATOM     14  C   UNL     1      -0.676  13.647  22.397  0.00  0.00    +0.000 A 
ATOM     15  C   UNL     1      -1.364  14.648  23.054  0.00  0.00    +0.000 A 
ATOM     16  C   UNL     1      -2.513  14.272  23.749  0.00  0.00    +0.000 A 
ATOM     17  C   UNL     1      -2.947  12.936  23.735  0.00  0.00    +0.000 A 
ATOM     18  C   UNL     1      -2.234  11.954  23.038  0.00  0.00    +0.000 A 
ATOM     19  C   UNL     1      -1.063  12.320  22.396  0.00  0.00    +0.000 A 
ENDBRANCH   1   8
BRANCH   4  20
ATOM     20  O   UNL     1       2.768   7.164  17.735  0.00  0.00    +0.000 OA
BRANCH  20  21
ATOM     21  C   UNL     1       2.851   5.795  17.955  0.00  0.00    +0.000 C 
ATOM     22  O   UNL     1       1.932   5.004  18.079  0.00  0.00    +0.000 OA
BRANCH  21  23
ATOM     23  C   UNL     1       4.281   5.384  17.992  0.00  0.00    +0.000 A 
ATOM     24  C   UNL     1       4.952   5.436  19.217  0.00  0.00    +0.000 A 
ATOM     25  C   UNL     1       6.271   5.023  19.257  0.00  0.00    +0.000 A 
ATOM     26  N   UNL     1       6.947   4.576  18.178  0.00  0.00    +0.000 NA
ATOM     27  C   UNL     1       6.281   4.548  17.004  0.00  0.00    +0.000 A 
ATOM     28  C   UNL     1       4.961   4.939  16.859  0.00  0.00    +0.000 A 
ENDBRANCH  21  23
ENDBRANCH  20  21
ENDBRANCH   4  20
TORSDOF 4
ENDMDL
MODEL 7
REMARK VINA RESULT:      -8.0      3.020      3.867
REMARK  Name = 
REMARK  5 active torsions:
REMARK  status: ('A' for Active; 'I' for Inactive)
REMARK    1  A    between atoms: C_1  and  N_2
REMARK    2  A    between atoms: N_2  and  C_14
REMARK    3  A    between atoms: C_17  and  O_18
REMARK    4  A    between atoms: O_18  and  C_19
REMARK    5  A    between atoms: C_19  and  C_21
REMARK                            x       y       z     vdW  Elec       q    Type
REMARK                         _______ _______ _______ _____ _____    ______ ____
ROOT
ATOM      1  C   UNL     1       1.394   7.488  20.497  0.00  0.00    +0.000 A 
ATOM      2  C   UNL     1       2.163   7.814  19.365  0.00  0.00    +0.000 A 
ATOM      3  C   UNL     1       2.842   6.825  18.648  0.00  0.00    +0.000 A 
ATOM      4  C   UNL     1       2.756   5.499  19.066  0.00  0.00    +0.000 A 
ATOM      5  C   UNL     1       1.923   5.141  20.123  0.00  0.00    +0.000 A 
ATOM      6  C   UNL     1       1.251   6.134  20.838  0.00  0.00    +0.000 A 
ENDROOT
BRANCH   1   8
ATOM      7  C   UNL     1       1.872   8.946  22.368  0.00  0.00    +0.000 C 
ATOM      8  N   UNL     1       0.916   8.542  21.329  0.00  0.00    +0.000 N 
ATOM      9  C   UNL     1       0.142   9.522  20.681  0.00  0.00    +0.000 C 
ATOM     10  N   UNL     1      -0.000   9.590  19.381  0.00  0.00    +0.000 NA
ATOM     11  S   UNL     1      -0.874  10.884  18.917  0.00  0.00    +0.000 S 
ATOM     12  O   UNL     1      -2.157  10.467  18.392  0.00  0.00    +0.000 OA
ATOM     13  O   UNL     1      -0.030  11.851  18.249  0.00  0.00    +0.000 OA
ATOM     14  C   UNL     1      -1.154  11.477  20.524  0.00  0.00    +0.000 A 
ATOM     15  C   UNL     1      -1.892  12.582  20.899  0.00  0.00    +0.000 A 
ATOM     16  C   UNL     1      -2.048  12.801  22.267  0.00  0.00    +0.000 A 
ATOM     17  C   UNL     1      -1.500  11.903  23.198  0.00  0.00    +0.000 A 
ATOM     18  C   UNL     1      -0.776  10.781  22.777  0.00  0.00    +0.000 A 
ATOM     19  C   UNL     1      -0.575  10.598  21.421  0.00  0.00    +0.000 A 
ENDBRANCH   1   8
BRANCH   4  20
ATOM     20  O   UNL     1       3.507   4.553  18.342  0.00  0.00    +0.000 OA
BRANCH  20  21
ATOM     21  C   UNL     1       4.803   4.237  18.730  0.00  0.00    +0.000 C 
ATOM     22  O   UNL     1       5.152   3.517  19.649  0.00  0.00    +0.000 OA
BRANCH  21  23
ATOM     23  C   UNL     1       5.771   4.898  17.811  0.00  0.00    +0.000 A 
ATOM     24  C   UNL     1       5.916   4.379  16.521  0.00  0.00    +0.000 A 
ATOM     25  C   UNL     1       6.791   5.013  15.658  0.00  0.00    +0.000 A 
ATOM     26  N   UNL     1       7.513   6.103  15.993  0.00  0.00    +0.000 NA
ATOM     27  C   UNL     1       7.365   6.577  17.248  0.00  0.00    +0.000 A 
ATOM     28  C   UNL     1       6.516   6.015  18.186  0.00  0.00    +0.000 A 
ENDBRANCH  21  23
ENDBRANCH  20  21
ENDBRANCH   4  20
TORSDOF 4
ENDMDL
MODEL 8
REMARK VINA RESULT:      -8.0      3.471      4.170
REMARK  Name = 
REMARK  5 active torsions:
REMARK  status: ('A' for Active; 'I' for Inactive)
REMARK    1  A    between atoms: C_1  and  N_2
REMARK    2  A    between atoms: N_2  and  C_14
REMARK    3  A    between atoms: C_17  and  O_18
REMARK    4  A    between atoms: O_18  and  C_19
REMARK    5  A    between atoms: C_19  and  C_21
REMARK                            x       y       z     vdW  Elec       q    Type
REMARK                         _______ _______ _______ _____ _____    ______ ____
ROOT
ATOM      1  C   UNL     1       0.967   9.221  20.426  0.00  0.00    +0.000 A 
ATOM      2  C   UNL     1       1.557   8.010  20.831  0.00  0.00    +0.000 A 
ATOM      3  C   UNL     1       2.222   7.192  19.913  0.00  0.00    +0.000 A 
ATOM      4  C   UNL     1       2.295   7.585  18.578  0.00  0.00    +0.000 A 
ATOM      5  C   UNL     1       1.805   8.824  18.175  0.00  0.00    +0.000 A 
ATOM      6  C   UNL     1       1.138   9.634  19.096  0.00  0.00    +0.000 A 
ENDROOT
BRANCH   1   8
ATOM      7  C   UNL     1      -0.141   9.157  22.576  0.00  0.00    +0.000 C 
ATOM      8  N   UNL     1       0.104   9.902  21.335  0.00  0.00    +0.000 N 
ATOM      9  C   UNL     1       0.255  11.299  21.384  0.00  0.00    +0.000 C 
ATOM     10  N   UNL     1       1.227  11.944  20.786  0.00  0.00    +0.000 NA
ATOM     11  S   UNL     1       1.198  13.542  21.099  0.00  0.00    +0.000 S 
ATOM     12  O   UNL     1       0.836  14.285  19.910  0.00  0.00    +0.000 OA
ATOM     13  O   UNL     1       2.312  13.912  21.946  0.00  0.00    +0.000 OA
ATOM     14  C   UNL     1      -0.213  13.486  22.108  0.00  0.00    +0.000 A 
ATOM     15  C   UNL     1      -0.855  14.544  22.721  0.00  0.00    +0.000 A 
ATOM     16  C   UNL     1      -2.032  14.253  23.410  0.00  0.00    +0.000 A 
ATOM     17  C   UNL     1      -2.537  12.942  23.434  0.00  0.00    +0.000 A 
ATOM     18  C   UNL     1      -1.868  11.901  22.781  0.00  0.00    +0.000 A 
ATOM     19  C   UNL     1      -0.670  12.181  22.146  0.00  0.00    +0.000 A 
ENDBRANCH   1   8
BRANCH   4  20
ATOM     20  O   UNL     1       2.925   6.695  17.687  0.00  0.00    +0.000 OA
BRANCH  20  21
ATOM     21  C   UNL     1       3.591   5.573  18.164  0.00  0.00    +0.000 C 
ATOM     22  O   UNL     1       3.111   4.495  18.468  0.00  0.00    +0.000 OA
BRANCH  21  23
ATOM     23  C   UNL     1       5.051   5.854  18.233  0.00  0.00    +0.000 A 
ATOM     24  C   UNL     1       5.603   6.714  17.279  0.00  0.00    +0.000 A 
ATOM     25  C   UNL     1       6.954   7.001  17.363  0.00  0.00    +0.000 A 
ATOM     26  N   UNL     1       7.767   6.494  18.313  0.00  0.00    +0.000 NA
ATOM     27  C   UNL     1       7.213   5.656  19.215  0.00  0.00    +0.000 A 
ATOM     28  C   UNL     1       5.874   5.307  19.217  0.00  0.00    +0.000 A 
ENDBRANCH  21  23
ENDBRANCH  20  21
ENDBRANCH   4  20
TORSDOF 4
ENDMDL
MODEL 9
REMARK VINA RESULT:      -7.9      3.479      4.230
REMARK  Name = 
REMARK  5 active torsions:
REMARK  status: ('A' for Active; 'I' for Inactive)
REMARK    1  A    between atoms: C_1  and  N_2
REMARK    2  A    between atoms: N_2  and  C_14
REMARK    3  A    between atoms: C_17  and  O_18
REMARK    4  A    between atoms: O_18  and  C_19
REMARK    5  A    between atoms: C_19  and  C_21
REMARK                            x       y       z     vdW  Elec       q    Type
REMARK                         _______ _______ _______ _____ _____    ______ ____
ROOT
ATOM      1  C   UNL     1       0.753   9.023  20.352  0.00  0.00    +0.000 A 
ATOM      2  C   UNL     1       0.902   9.452  19.020  0.00  0.00    +0.000 A 
ATOM      3  C   UNL     1       1.782   8.804  18.150  0.00  0.00    +0.000 A 
ATOM      4  C   UNL     1       2.523   7.719  18.614  0.00  0.00    +0.000 A 
ATOM      5  C   UNL     1       2.319   7.217  19.897  0.00  0.00    +0.000 A 
ATOM      6  C   UNL     1       1.442   7.872  20.762  0.00  0.00    +0.000 A 
ENDROOT
BRANCH   1   8
ATOM      7  C   UNL     1      -0.213   9.213  22.563  0.00  0.00    +0.000 C 
ATOM      8  N   UNL     1       0.031   9.850  21.262  0.00  0.00    +0.000 N 
ATOM      9  C   UNL     1       0.336  11.222  21.209  0.00  0.00    +0.000 C 
ATOM     10  N   UNL     1       1.331  11.715  20.514  0.00  0.00    +0.000 NA
ATOM     11  S   UNL     1       1.496  13.323  20.720  0.00  0.00    +0.000 S 
ATOM     12  O   UNL     1       1.141  14.029  19.507  0.00  0.00    +0.000 OA
ATOM     13  O   UNL     1       2.697  13.615  21.474  0.00  0.00    +0.000 OA
ATOM     14  C   UNL     1       0.157  13.486  21.812  0.00  0.00    +0.000 A 
ATOM     15  C   UNL     1      -0.325  14.645  22.388  0.00  0.00    +0.000 A 
ATOM     16  C   UNL     1      -1.478  14.531  23.163  0.00  0.00    +0.000 A 
ATOM     17  C   UNL     1      -2.121  13.289  23.304  0.00  0.00    +0.000 A 
ATOM     18  C   UNL     1      -1.613  12.141  22.684  0.00  0.00    +0.000 A 
ATOM     19  C   UNL     1      -0.437  12.247  21.963  0.00  0.00    +0.000 A 
ENDBRANCH   1   8
BRANCH   4  20
ATOM     20  O   UNL     1       3.438   7.140  17.712  0.00  0.00    +0.000 OA
BRANCH  20  21
ATOM     21  C   UNL     1       3.527   5.760  17.587  0.00  0.00    +0.000 C 
ATOM     22  O   UNL     1       2.620   4.947  17.635  0.00  0.00    +0.000 OA
BRANCH  21  23
ATOM     23  C   UNL     1       4.944   5.375  17.340  0.00  0.00    +0.000 A 
ATOM     24  C   UNL     1       5.864   5.542  18.379  0.00  0.00    +0.000 A 
ATOM     25  C   UNL     1       7.173   5.154  18.159  0.00  0.00    +0.000 A 
ATOM     26  N   UNL     1       7.611   4.626  16.997  0.00  0.00    +0.000 NA
ATOM     27  C   UNL     1       6.706   4.487  16.005  0.00  0.00    +0.000 A 
ATOM     28  C   UNL     1       5.374   4.844  16.125  0.00  0.00    +0.000 A 
ENDBRANCH  21  23
ENDBRANCH  20  21
ENDBRANCH   4  20
TORSDOF 4
ENDMDL
