MODEL 1
REMARK VINA RESULT:      -5.9      0.000      0.000
REMARK  Name = 
REMARK  7 active torsions:
REMARK  status: ('A' for Active; 'I' for Inactive)
REMARK    1  A    between atoms: C_1  and  C_2
REMARK    2  A    between atoms: C_2  and  O_3
REMARK    3  A    between atoms: C_2  and  C_4
REMARK    4  A    between atoms: C_8  and  C_9
REMARK    5  A    between atoms: C_11  and  C_12
REMARK    6  A    between atoms: C_11  and  C_13
REMARK    7  A    between atoms: C_15  and  S_16
REMARK                            x       y       z     vdW  Elec       q    Type
REMARK                         _______ _______ _______ _____ _____    ______ ____
ROOT
ATOM      1  C   UNL     1       1.855   4.490  19.043  0.00  0.00    +0.000 C 
ATOM      2  C   UNL     1       2.190   5.641  19.973  0.00  0.00    +0.000 C 
ATOM      3  O   UNL     1       1.458   6.119  20.825  0.00  0.00    +0.000 OA
ATOM      4  O   UNL     1       3.528   5.955  19.747  0.00  0.00    +0.000 OA
ATOM      5  C   UNL     1       3.561   5.964  18.336  0.00  0.00    +0.000 C 
ATOM      6  C   UNL     1       2.933   7.380  18.099  0.00  0.00    +0.000 C 
ATOM      7  C   UNL     1       4.841   6.117  17.502  0.00  0.00    +0.000 C 
ATOM      8  C   UNL     1       5.598   4.890  17.026  0.00  0.00    +0.000 C 
ATOM      9  C   UNL     1       6.921   4.756  17.794  0.00  0.00    +0.000 C 
ATOM     10  C   UNL     1       5.940   5.062  15.517  0.00  0.00    +0.000 C 
ATOM     11  N   UNL     1       4.834   3.669  17.103  0.00  0.00    +0.000 NA
ATOM     12  C   UNL     1       3.609   3.677  17.445  0.00  0.00    +0.000 C 
ATOM     13  N   UNL     1       2.852   4.726  17.952  0.00  0.00    +0.000 N 
ENDROOT
BRANCH   1  15
ATOM     14  C   UNL     1       3.104   3.182  20.958  0.00  0.00    +0.000 C 
ATOM     15  C   UNL     1       1.901   3.260  20.006  0.00  0.00    +0.000 C 
BRANCH  15  16
ATOM     16  O   UNL     1       0.708   3.256  20.826  0.00  0.00    +0.000 OA
ATOM     17  H   UNL     1       0.167   4.037  20.592  0.00  0.00    +0.000 HD
ENDBRANCH  15  16
ENDBRANCH   1  15
BRANCH  12  18
ATOM     18  S   UNL     1       2.851   2.131  17.075  0.00  0.00    +0.000 S 
ATOM     19  H   UNL     1       2.767   2.391  15.756  0.00  0.00    +0.000 HD
ENDBRANCH  12  18
TORSDOF 3
ENDMDL
MODEL 2
REMARK VINA RESULT:      -5.8      3.323      5.215
REMARK  Name = 
REMARK  7 active torsions:
REMARK  status: ('A' for Active; 'I' for Inactive)
REMARK    1  A    between atoms: C_1  and  C_2
REMARK    2  A    between atoms: C_2  and  O_3
REMARK    3  A    between atoms: C_2  and  C_4
REMARK    4  A    between atoms: C_8  and  C_9
REMARK    5  A    between atoms: C_11  and  C_12
REMARK    6  A    between atoms: C_11  and  C_13
REMARK    7  A    between atoms: C_15  and  S_16
REMARK                            x       y       z     vdW  Elec       q    Type
REMARK                         _______ _______ _______ _____ _____    ______ ____
ROOT
ATOM      1  C   UNL     1       5.788   6.338  16.395  0.00  0.00    +0.000 C 
ATOM      2  C   UNL     1       6.815   5.335  15.905  0.00  0.00    +0.000 C 
ATOM      3  O   UNL     1       7.802   5.582  15.230  0.00  0.00    +0.000 OA
ATOM      4  O   UNL     1       6.478   4.111  16.479  0.00  0.00    +0.000 OA
ATOM      5  C   UNL     1       5.086   4.087  16.245  0.00  0.00    +0.000 C 
ATOM      6  C   UNL     1       5.111   3.654  14.740  0.00  0.00    +0.000 C 
ATOM      7  C   UNL     1       4.135   3.015  16.797  0.00  0.00    +0.000 C 
ATOM      8  C   UNL     1       3.418   3.231  18.117  0.00  0.00    +0.000 C 
ATOM      9  C   UNL     1       4.001   2.303  19.193  0.00  0.00    +0.000 C 
ATOM     10  C   UNL     1       1.914   2.867  17.940  0.00  0.00    +0.000 C 
ATOM     11  N   UNL     1       3.422   4.603  18.564  0.00  0.00    +0.000 NA
ATOM     12  C   UNL     1       3.903   5.531  17.840  0.00  0.00    +0.000 C 
ATOM     13  N   UNL     1       4.628   5.430  16.659  0.00  0.00    +0.000 N 
ENDROOT
BRANCH   1  15
ATOM     14  C   UNL     1       7.326   6.218  18.530  0.00  0.00    +0.000 C 
ATOM     15  C   UNL     1       6.569   7.092  17.519  0.00  0.00    +0.000 C 
BRANCH  15  16
ATOM     16  O   UNL     1       7.541   7.975  16.909  0.00  0.00    +0.000 OA
ATOM     17  H   UNL     1       8.179   8.258  17.595  0.00  0.00    +0.000 HD
ENDBRANCH  15  16
ENDBRANCH   1  15
BRANCH  12  18
ATOM     18  S   UNL     1       3.425   7.110  18.458  0.00  0.00    +0.000 S 
ATOM     19  H   UNL     1       3.659   7.734  17.288  0.00  0.00    +0.000 HD
ENDBRANCH  12  18
TORSDOF 3
ENDMDL
MODEL 3
REMARK VINA RESULT:      -5.6      1.880      2.262
REMARK  Name = 
REMARK  7 active torsions:
REMARK  status: ('A' for Active; 'I' for Inactive)
REMARK    1  A    between atoms: C_1  and  C_2
REMARK    2  A    between atoms: C_2  and  O_3
REMARK    3  A    between atoms: C_2  and  C_4
REMARK    4  A    between atoms: C_8  and  C_9
REMARK    5  A    between atoms: C_11  and  C_12
REMARK    6  A    between atoms: C_11  and  C_13
REMARK    7  A    between atoms: C_15  and  S_16
REMARK                            x       y       z     vdW  Elec       q    Type
REMARK                         _______ _______ _______ _____ _____    ______ ____
ROOT
ATOM      1  C   UNL     1       3.033   3.960  17.357  0.00  0.00    +0.000 C 
ATOM      2  C   UNL     1       2.463   4.399  18.692  0.00  0.00    +0.000 C 
ATOM      3  O   UNL     1       1.341   4.165  19.112  0.00  0.00    +0.000 OA
ATOM      4  O   UNL     1       3.507   5.007  19.387  0.00  0.00    +0.000 OA
ATOM      5  C   UNL     1       4.046   5.834  18.379  0.00  0.00    +0.000 C 
ATOM      6  C   UNL     1       2.996   6.995  18.447  0.00  0.00    +0.000 C 
ATOM      7  C   UNL     1       5.335   6.655  18.531  0.00  0.00    +0.000 C 
ATOM      8  C   UNL     1       6.668   6.078  18.091  0.00  0.00    +0.000 C 
ATOM      9  C   UNL     1       7.533   5.752  19.318  0.00  0.00    +0.000 C 
ATOM     10  C   UNL     1       7.425   7.145  17.246  0.00  0.00    +0.000 C 
ATOM     11  N   UNL     1       6.548   4.929  17.227  0.00  0.00    +0.000 NA
ATOM     12  C   UNL     1       5.414   4.531  16.812  0.00  0.00    +0.000 C 
ATOM     13  N   UNL     1       4.147   4.947  17.201  0.00  0.00    +0.000 N 
ENDROOT
BRANCH   1  15
ATOM     14  C   UNL     1       3.927   2.021  18.899  0.00  0.00    +0.000 C 
ATOM     15  C   UNL     1       3.258   2.430  17.578  0.00  0.00    +0.000 C 
BRANCH  15  16
ATOM     16  O   UNL     1       1.981   1.750  17.519  0.00  0.00    +0.000 OA
ATOM     17  H   UNL     1       1.401   2.231  16.897  0.00  0.00    +0.000 HD
ENDBRANCH  15  16
ENDBRANCH   1  15
BRANCH  12  18
ATOM     18  S   UNL     1       5.605   3.381  15.491  0.00  0.00    +0.000 S 
ATOM     19  H   UNL     1       5.253   2.324  16.247  0.00  0.00    +0.000 HD
ENDBRANCH  12  18
TORSDOF 3
ENDMDL
MODEL 4
REMARK VINA RESULT:      -5.5      2.624      4.990
REMARK  Name = 
REMARK  7 active torsions:
REMARK  status: ('A' for Active; 'I' for Inactive)
REMARK    1  A    between atoms: C_1  and  C_2
REMARK    2  A    between atoms: C_2  and  O_3
REMARK    3  A    between atoms: C_2  and  C_4
REMARK    4  A    between atoms: C_8  and  C_9
REMARK    5  A    between atoms: C_11  and  C_12
REMARK    6  A    between atoms: C_11  and  C_13
REMARK    7  A    between atoms: C_15  and  S_16
REMARK                            x       y       z     vdW  Elec       q    Type
REMARK                         _______ _______ _______ _____ _____    ______ ____
ROOT
ATOM      1  C   UNL     1       4.334   5.375  17.029  0.00  0.00    +0.000 C 
ATOM      2  C   UNL     1       5.102   4.086  16.803  0.00  0.00    +0.000 C 
ATOM      3  O   UNL     1       5.932   3.883  15.932  0.00  0.00    +0.000 OA
ATOM      4  O   UNL     1       4.766   3.236  17.854  0.00  0.00    +0.000 OA
ATOM      5  C   UNL     1       3.364   3.397  17.883  0.00  0.00    +0.000 C 
ATOM      6  C   UNL     1       2.998   2.460  16.683  0.00  0.00    +0.000 C 
ATOM      7  C   UNL     1       2.446   2.795  18.957  0.00  0.00    +0.000 C 
ATOM      8  C   UNL     1       2.076   3.600  20.189  0.00  0.00    +0.000 C 
ATOM      9  C   UNL     1       2.777   3.023  21.428  0.00  0.00    +0.000 C 
ATOM     10  C   UNL     1       0.540   3.491  20.420  0.00  0.00    +0.000 C 
ATOM     11  N   UNL     1       2.338   5.013  20.062  0.00  0.00    +0.000 NA
ATOM     12  C   UNL     1       2.746   5.512  18.965  0.00  0.00    +0.000 C 
ATOM     13  N   UNL     1       3.168   4.860  17.814  0.00  0.00    +0.000 N 
ENDROOT
BRANCH   1  15
ATOM     14  C   UNL     1       6.353   5.701  18.689  0.00  0.00    +0.000 C 
ATOM     15  C   UNL     1       5.431   6.315  17.626  0.00  0.00    +0.000 C 
BRANCH  15  16
ATOM     16  O   UNL     1       6.277   6.794  16.554  0.00  0.00    +0.000 OA
ATOM     17  H   UNL     1       6.877   6.071  16.283  0.00  0.00    +0.000 HD
ENDBRANCH  15  16
ENDBRANCH   1  15
BRANCH  12  18
ATOM     18  S   UNL     1       2.603   7.267  18.992  0.00  0.00    +0.000 S 
ATOM     19  H   UNL     1       1.292   7.242  19.296  0.00  0.00    +0.000 HD
ENDBRANCH  12  18
TORSDOF 3
ENDMDL
MODEL 5
REMARK VINA RESULT:      -5.3      2.152      4.537
REMARK  Name = 
REMARK  7 active torsions:
REMARK  status: ('A' for Active; 'I' for Inactive)
REMARK    1  A    between atoms: C_1  and  C_2
REMARK    2  A    between atoms: C_2  and  O_3
REMARK    3  A    between atoms: C_2  and  C_4
REMARK    4  A    between atoms: C_8  and  C_9
REMARK    5  A    between atoms: C_11  and  C_12
REMARK    6  A    between atoms: C_11  and  C_13
REMARK    7  A    between atoms: C_15  and  S_16
REMARK                            x       y       z     vdW  Elec       q    Type
REMARK                         _______ _______ _______ _____ _____    ______ ____
ROOT
ATOM      1  C   UNL     1       5.050   5.167  18.696  0.00  0.00    +0.000 C 
ATOM      2  C   UNL     1       4.269   6.152  17.848  0.00  0.00    +0.000 C 
ATOM      3  O   UNL     1       4.729   7.105  17.238  0.00  0.00    +0.000 OA
ATOM      4  O   UNL     1       2.958   5.684  17.802  0.00  0.00    +0.000 OA
ATOM      5  C   UNL     1       2.744   5.375  19.163  0.00  0.00    +0.000 C 
ATOM      6  C   UNL     1       2.468   6.825  19.688  0.00  0.00    +0.000 C 
ATOM      7  C   UNL     1       1.489   4.673  19.702  0.00  0.00    +0.000 C 
ATOM      8  C   UNL     1       1.463   3.163  19.859  0.00  0.00    +0.000 C 
ATOM      9  C   UNL     1       0.536   2.539  18.806  0.00  0.00    +0.000 C 
ATOM     10  C   UNL     1       0.891   2.811  21.264  0.00  0.00    +0.000 C 
ATOM     11  N   UNL     1       2.769   2.551  19.821  0.00  0.00    +0.000 NA
ATOM     12  C   UNL     1       3.826   3.255  19.763  0.00  0.00    +0.000 C 
ATOM     13  N   UNL     1       3.953   4.623  19.556  0.00  0.00    +0.000 N 
ENDROOT
BRANCH   1  15
ATOM     14  C   UNL     1       4.983   3.894  16.390  0.00  0.00    +0.000 C 
ATOM     15  C   UNL     1       5.802   4.322  17.617  0.00  0.00    +0.000 C 
BRANCH  15  16
ATOM     16  O   UNL     1       6.936   5.079  17.129  0.00  0.00    +0.000 OA
ATOM     17  H   UNL     1       6.956   5.016  16.154  0.00  0.00    +0.000 HD
ENDBRANCH  15  16
ENDBRANCH   1  15
BRANCH  12  18
ATOM     18  S   UNL     1       5.245   2.274  20.120  0.00  0.00    +0.000 S 
ATOM     19  H   UNL     1       5.468   1.973  18.826  0.00  0.00    +0.000 HD
ENDBRANCH  12  18
TORSDOF 3
ENDMDL
MODEL 6
REMARK VINA RESULT:      -5.1      9.982     11.743
REMARK  Name = 
REMARK  7 active torsions:
REMARK  status: ('A' for Active; 'I' for Inactive)
REMARK    1  A    between atoms: C_1  and  C_2
REMARK    2  A    between atoms: C_2  and  O_3
REMARK    3  A    between atoms: C_2  and  C_4
REMARK    4  A    between atoms: C_8  and  C_9
REMARK    5  A    between atoms: C_11  and  C_12
REMARK    6  A    between atoms: C_11  and  C_13
REMARK    7  A    between atoms: C_15  and  S_16
REMARK                            x       y       z     vdW  Elec       q    Type
REMARK                         _______ _______ _______ _____ _____    ______ ____
ROOT
ATOM      1  C   UNL     1       9.901  12.995  17.844  0.00  0.00    +0.000 C 
ATOM      2  C   UNL     1      11.021  12.176  18.457  0.00  0.00    +0.000 C 
ATOM      3  O   UNL     1      11.857  11.526  17.849  0.00  0.00    +0.000 OA
ATOM      4  O   UNL     1      10.980  12.413  19.829  0.00  0.00    +0.000 OA
ATOM      5  C   UNL     1       9.597  12.282  20.076  0.00  0.00    +0.000 C 
ATOM      6  C   UNL     1       9.512  10.718  20.096  0.00  0.00    +0.000 C 
ATOM      7  C   UNL     1       8.928  12.584  21.425  0.00  0.00    +0.000 C 
ATOM      8  C   UNL     1       8.353  13.960  21.706  0.00  0.00    +0.000 C 
ATOM      9  C   UNL     1       9.221  14.695  22.738  0.00  0.00    +0.000 C 
ATOM     10  C   UNL     1       6.928  13.798  22.313  0.00  0.00    +0.000 C 
ATOM     11  N   UNL     1       8.169  14.766  20.523  0.00  0.00    +0.000 NA
ATOM     12  C   UNL     1       8.383  14.293  19.362  0.00  0.00    +0.000 C 
ATOM     13  N   UNL     1       8.963  13.081  19.007  0.00  0.00    +0.000 N 
ENDROOT
BRANCH   1  15
ATOM     14  C   UNL     1      11.748  14.846  18.158  0.00  0.00    +0.000 C 
ATOM     15  C   UNL     1      10.668  14.224  17.259  0.00  0.00    +0.000 C 
BRANCH  15  16
ATOM     16  O   UNL     1      11.315  13.834  16.025  0.00  0.00    +0.000 OA
ATOM     17  H   UNL     1      12.213  14.222  16.007  0.00  0.00    +0.000 HD
ENDBRANCH  15  16
ENDBRANCH   1  15
BRANCH  12  18
ATOM     18  S   UNL     1       7.712  15.354  18.127  0.00  0.00    +0.000 S 
ATOM     19  H   UNL     1       6.786  14.457  17.738  0.00  0.00    +0.000 HD
ENDBRANCH  12  18
TORSDOF 3
ENDMDL
MODEL 7
REMARK VINA RESULT:      -5.0      1.634      2.299
REMARK  Name = 
REMARK  7 active torsions:
REMARK  status: ('A' for Active; 'I' for Inactive)
REMARK    1  A    between atoms: C_1  and  C_2
REMARK    2  A    between atoms: C_2  and  O_3
REMARK    3  A    between atoms: C_2  and  C_4
REMARK    4  A    between atoms: C_8  and  C_9
REMARK    5  A    between atoms: C_11  and  C_12
REMARK    6  A    between atoms: C_11  and  C_13
REMARK    7  A    between atoms: C_15  and  S_16
REMARK                            x       y       z     vdW  Elec       q    Type
REMARK                         _______ _______ _______ _____ _____    ______ ____
ROOT
ATOM      1  C   UNL     1       2.646   5.561  18.154  0.00  0.00    +0.000 C 
ATOM      2  C   UNL     1       2.748   7.067  18.001  0.00  0.00    +0.000 C 
ATOM      3  O   UNL     1       1.821   7.840  17.825  0.00  0.00    +0.000 OA
ATOM      4  O   UNL     1       4.083   7.397  18.226  0.00  0.00    +0.000 OA
ATOM      5  C   UNL     1       4.730   6.417  17.445  0.00  0.00    +0.000 C 
ATOM      6  C   UNL     1       4.547   7.082  16.039  0.00  0.00    +0.000 C 
ATOM      7  C   UNL     1       6.250   6.197  17.419  0.00  0.00    +0.000 C 
ATOM      8  C   UNL     1       6.895   5.184  18.348  0.00  0.00    +0.000 C 
ATOM      9  C   UNL     1       7.698   5.906  19.440  0.00  0.00    +0.000 C 
ATOM     10  C   UNL     1       7.888   4.309  17.528  0.00  0.00    +0.000 C 
ATOM     11  N   UNL     1       5.961   4.250  18.929  0.00  0.00    +0.000 NA
ATOM     12  C   UNL     1       4.736   4.245  18.589  0.00  0.00    +0.000 C 
ATOM     13  N   UNL     1       4.044   5.159  17.804  0.00  0.00    +0.000 N 
ENDROOT
BRANCH   1  15
ATOM     14  C   UNL     1       1.346   4.076  19.898  0.00  0.00    +0.000 C 
ATOM     15  C   UNL     1       2.035   5.412  19.585  0.00  0.00    +0.000 C 
BRANCH  15  16
ATOM     16  O   UNL     1       3.084   5.590  20.567  0.00  0.00    +0.000 OA
ATOM     17  H   UNL     1       3.947   5.449  20.130  0.00  0.00    +0.000 HD
ENDBRANCH  15  16
ENDBRANCH   1  15
BRANCH  12  18
ATOM     18  S   UNL     1       3.943   2.777  19.154  0.00  0.00    +0.000 S 
ATOM     19  H   UNL     1       4.498   2.007  18.199  0.00  0.00    +0.000 HD
ENDBRANCH  12  18
TORSDOF 3
ENDMDL
MODEL 8
REMARK VINA RESULT:      -5.0      2.619      4.852
REMARK  Name = 
REMARK  7 active torsions:
REMARK  status: ('A' for Active; 'I' for Inactive)
REMARK    1  A    between atoms: C_1  and  C_2
REMARK    2  A    between atoms: C_2  and  O_3
REMARK    3  A    between atoms: C_2  and  C_4
REMARK    4  A    between atoms: C_8  and  C_9
REMARK    5  A    between atoms: C_11  and  C_12
REMARK    6  A    between atoms: C_11  and  C_13
REMARK    7  A    between atoms: C_15  and  S_16
REMARK                            x       y       z     vdW  Elec       q    Type
REMARK                         _______ _______ _______ _____ _____    ______ ____
ROOT
ATOM      1  C   UNL     1       5.753   3.968  16.796  0.00  0.00    +0.000 C 
ATOM      2  C   UNL     1       6.721   5.130  16.907  0.00  0.00    +0.000 C 
ATOM      3  O   UNL     1       7.858   5.168  16.466  0.00  0.00    +0.000 OA
ATOM      4  O   UNL     1       6.015   6.178  17.494  0.00  0.00    +0.000 OA
ATOM      5  C   UNL     1       5.375   5.500  18.553  0.00  0.00    +0.000 C 
ATOM      6  C   UNL     1       6.583   5.430  19.548  0.00  0.00    +0.000 C 
ATOM      7  C   UNL     1       4.328   6.137  19.479  0.00  0.00    +0.000 C 
ATOM      8  C   UNL     1       2.849   6.023  19.158  0.00  0.00    +0.000 C 
ATOM      9  C   UNL     1       2.298   7.386  18.714  0.00  0.00    +0.000 C 
ATOM     10  C   UNL     1       2.084   5.598  20.446  0.00  0.00    +0.000 C 
ATOM     11  N   UNL     1       2.541   5.003  18.184  0.00  0.00    +0.000 NA
ATOM     12  C   UNL     1       3.442   4.224  17.738  0.00  0.00    +0.000 C 
ATOM     13  N   UNL     1       4.818   4.287  17.920  0.00  0.00    +0.000 N 
ENDROOT
BRANCH   1  15
ATOM     14  C   UNL     1       5.170   5.416  14.675  0.00  0.00    +0.000 C 
ATOM     15  C   UNL     1       5.341   4.019  15.289  0.00  0.00    +0.000 C 
BRANCH  15  16
ATOM     16  O   UNL     1       6.341   3.328  14.502  0.00  0.00    +0.000 OA
ATOM     17  H   UNL     1       6.335   2.383  14.751  0.00  0.00    +0.000 HD
ENDBRANCH  15  16
ENDBRANCH   1  15
BRANCH  12  18
ATOM     18  S   UNL     1       2.719   2.863  16.886  0.00  0.00    +0.000 S 
ATOM     19  H   UNL     1       1.884   3.643  16.173  0.00  0.00    +0.000 HD
ENDBRANCH  12  18
TORSDOF 3
ENDMDL
MODEL 9
REMARK VINA RESULT:      -4.9      2.206      3.061
REMARK  Name = 
REMARK  7 active torsions:
REMARK  status: ('A' for Active; 'I' for Inactive)
REMARK    1  A    between atoms: C_1  and  C_2
REMARK    2  A    between atoms: C_2  and  O_3
REMARK    3  A    between atoms: C_2  and  C_4
REMARK    4  A    between atoms: C_8  and  C_9
REMARK    5  A    between atoms: C_11  and  C_12
REMARK    6  A    between atoms: C_11  and  C_13
REMARK    7  A    between atoms: C_15  and  S_16
REMARK                            x       y       z     vdW  Elec       q    Type
REMARK                         _______ _______ _______ _____ _____    ______ ____
ROOT
ATOM      1  C   UNL     1       2.818   4.607  19.843  0.00  0.00    +0.000 C 
ATOM      2  C   UNL     1       3.354   3.210  19.596  0.00  0.00    +0.000 C 
ATOM      3  O   UNL     1       3.035   2.196  20.198  0.00  0.00    +0.000 OA
ATOM      4  O   UNL     1       4.179   3.294  18.477  0.00  0.00    +0.000 OA
ATOM      5  C   UNL     1       4.927   4.450  18.790  0.00  0.00    +0.000 C 
ATOM      6  C   UNL     1       5.941   3.804  19.794  0.00  0.00    +0.000 C 
ATOM      7  C   UNL     1       5.920   5.122  17.831  0.00  0.00    +0.000 C 
ATOM      8  C   UNL     1       5.467   6.253  16.926  0.00  0.00    +0.000 C 
ATOM      9  C   UNL     1       5.422   5.776  15.467  0.00  0.00    +0.000 C 
ATOM     10  C   UNL     1       6.500   7.415  17.014  0.00  0.00    +0.000 C 
ATOM     11  N   UNL     1       4.206   6.840  17.313  0.00  0.00    +0.000 NA
ATOM     12  C   UNL     1       3.613   6.483  18.380  0.00  0.00    +0.000 C 
ATOM     13  N   UNL     1       3.911   5.427  19.233  0.00  0.00    +0.000 N 
ENDROOT
BRANCH   1  15
ATOM     14  C   UNL     1       1.250   3.977  17.823  0.00  0.00    +0.000 C 
ATOM     15  C   UNL     1       1.373   4.518  19.255  0.00  0.00    +0.000 C 
BRANCH  15  16
ATOM     16  O   UNL     1       0.569   3.663  20.103  0.00  0.00    +0.000 OA
ATOM     17  H   UNL     1       1.045   3.524  20.946  0.00  0.00    +0.000 HD
ENDBRANCH  15  16
ENDBRANCH   1  15
BRANCH  12  18
ATOM     18  S   UNL     1       2.332   7.620  18.787  0.00  0.00    +0.000 S 
ATOM     19  H   UNL     1       2.433   8.284  17.619  0.00  0.00    +0.000 HD
ENDBRANCH  12  18
TORSDOF 3
ENDMDL
