MODEL 1
REMARK VINA RESULT:      -8.2      0.000      0.000
REMARK  Name = 
REMARK  5 active torsions:
REMARK  status: ('A' for Active; 'I' for Inactive)
REMARK    1  A    between atoms: C_2  and  O_3
REMARK    2  A    between atoms: C_2  and  C_4
REMARK    3  A    between atoms: C_9  and  N_10
REMARK    4  A    between atoms: N_10  and  C_11
REMARK    5  A    between atoms: C_15  and  C_16
REMARK                            x       y       z     vdW  Elec       q    Type
REMARK                         _______ _______ _______ _____ _____    ______ ____
ROOT
ATOM      1  C   UNL     1       5.169   4.759  18.023  0.00  0.00    +0.000 A 
ATOM      2  C   UNL     1       6.513   4.996  17.663  0.00  0.00    +0.000 A 
ATOM      3 CL   UNL     1       7.686   5.439  18.860  0.00  0.00    +0.000 Cl
ATOM      4  C   UNL     1       6.956   4.872  16.336  0.00  0.00    +0.000 A 
ATOM      5  C   UNL     1       6.075   4.493  15.318  0.00  0.00    +0.000 A 
ATOM      6  C   UNL     1       4.746   4.229  15.670  0.00  0.00    +0.000 A 
ATOM      7  C   UNL     1       4.307   4.317  16.999  0.00  0.00    +0.000 A 
ATOM      8 CL   UNL     1       2.691   3.757  17.282  0.00  0.00    +0.000 Cl
ENDROOT
BRANCH   5   9
ATOM      9  C   UNL     1       6.502   4.306  13.919  0.00  0.00    +0.000 A 
ATOM     10  C   UNL     1       5.997   3.422  12.978  0.00  0.00    +0.000 A 
ATOM     11  C   UNL     1       6.642   3.521  11.712  0.00  0.00    +0.000 A 
ATOM     12  C   UNL     1       7.625   4.481  11.716  0.00  0.00    +0.000 A 
ATOM     13  S   UNL     1       7.757   5.259  13.231  0.00  0.00    +0.000 S 
ENDBRANCH   5   9
BRANCH   1  14
ATOM     14  N   UNL     1       4.808   4.789  19.410  0.00  0.00    +0.000 N 
ATOM     15  H   UNL     1       5.603   4.390  19.923  0.00  0.00    +0.000 HD
BRANCH  14  21
ATOM     16  C   UNL     1       3.374   2.999  20.349  0.00  0.00    +0.000 A 
ATOM     17  C   UNL     1       2.109   2.563  20.776  0.00  0.00    +0.000 A 
ATOM     18  C   UNL     1       1.060   3.470  20.902  0.00  0.00    +0.000 A 
ATOM     19  C   UNL     1       1.282   4.821  20.653  0.00  0.00    +0.000 A 
ATOM     20  C   UNL     1       2.539   5.257  20.221  0.00  0.00    +0.000 A 
ATOM     21  C   UNL     1       3.576   4.342  19.968  0.00  0.00    +0.000 A 
BRANCH  16  23
ATOM     22  O   UNL     1       5.165   1.698  21.231  0.00  0.00    +0.000 OA
ATOM     23  C   UNL     1       4.445   1.978  20.286  0.00  0.00    +0.000 C 
BRANCH  23  24
ATOM     24  O   UNL     1       4.572   1.408  19.066  0.00  0.00    +0.000 OA
ATOM     25  H   UNL     1       3.887   0.735  18.869  0.00  0.00    +0.000 HD
ENDBRANCH  23  24
ENDBRANCH  16  23
ENDBRANCH  14  21
ENDBRANCH   1  14
TORSDOF 5
ENDMDL
MODEL 2
REMARK VINA RESULT:      -7.8      0.702      2.112
REMARK  Name = 
REMARK  5 active torsions:
REMARK  status: ('A' for Active; 'I' for Inactive)
REMARK    1  A    between atoms: C_2  and  O_3
REMARK    2  A    between atoms: C_2  and  C_4
REMARK    3  A    between atoms: C_9  and  N_10
REMARK    4  A    between atoms: N_10  and  C_11
REMARK    5  A    between atoms: C_15  and  C_16
REMARK                            x       y       z     vdW  Elec       q    Type
REMARK                         _______ _______ _______ _____ _____    ______ ____
ROOT
ATOM      1  C   UNL     1       5.220   4.698  18.213  0.00  0.00    +0.000 A 
ATOM      2  C   UNL     1       4.349   4.448  17.131  0.00  0.00    +0.000 A 
ATOM      3 CL   UNL     1       2.653   4.206  17.398  0.00  0.00    +0.000 Cl
ATOM      4  C   UNL     1       4.810   4.399  15.806  0.00  0.00    +0.000 A 
ATOM      5  C   UNL     1       6.160   4.610  15.508  0.00  0.00    +0.000 A 
ATOM      6  C   UNL     1       7.028   4.886  16.571  0.00  0.00    +0.000 A 
ATOM      7  C   UNL     1       6.565   4.972  17.892  0.00  0.00    +0.000 A 
ATOM      8 CL   UNL     1       7.733   5.524  19.049  0.00  0.00    +0.000 Cl
ENDROOT
BRANCH   5   9
ATOM      9  C   UNL     1       6.685   4.612  14.130  0.00  0.00    +0.000 A 
ATOM     10  C   UNL     1       7.679   5.415  13.591  0.00  0.00    +0.000 A 
ATOM     11  C   UNL     1       7.944   5.134  12.219  0.00  0.00    +0.000 A 
ATOM     12  C   UNL     1       7.145   4.122  11.744  0.00  0.00    +0.000 A 
ATOM     13  S   UNL     1       6.096   3.513  12.946  0.00  0.00    +0.000 S 
ENDBRANCH   5   9
BRANCH   1  14
ATOM     14  N   UNL     1       4.668   4.852  19.526  0.00  0.00    +0.000 N 
ATOM     15  H   UNL     1       5.429   4.651  20.185  0.00  0.00    +0.000 HD
BRANCH  14  21
ATOM     16  C   UNL     1       3.297   2.918  20.249  0.00  0.00    +0.000 A 
ATOM     17  C   UNL     1       2.043   2.383  20.585  0.00  0.00    +0.000 A 
ATOM     18  C   UNL     1       0.943   3.222  20.746  0.00  0.00    +0.000 A 
ATOM     19  C   UNL     1       1.102   4.599  20.622  0.00  0.00    +0.000 A 
ATOM     20  C   UNL     1       2.348   5.133  20.281  0.00  0.00    +0.000 A 
ATOM     21  C   UNL     1       3.441   4.297  19.993  0.00  0.00    +0.000 A 
BRANCH  16  23
ATOM     22  O   UNL     1       5.253   1.796  21.023  0.00  0.00    +0.000 OA
ATOM     23  C   UNL     1       4.423   1.961  20.144  0.00  0.00    +0.000 C 
BRANCH  23  24
ATOM     24  O   UNL     1       4.464   1.309  18.959  0.00  0.00    +0.000 OA
ATOM     25  H   UNL     1       5.370   1.072  18.667  0.00  0.00    +0.000 HD
ENDBRANCH  23  24
ENDBRANCH  16  23
ENDBRANCH  14  21
ENDBRANCH   1  14
TORSDOF 5
ENDMDL
MODEL 3
REMARK VINA RESULT:      -7.8      3.554      7.176
REMARK  Name = 
REMARK  5 active torsions:
REMARK  status: ('A' for Active; 'I' for Inactive)
REMARK    1  A    between atoms: C_2  and  O_3
REMARK    2  A    between atoms: C_2  and  C_4
REMARK    3  A    between atoms: C_9  and  N_10
REMARK    4  A    between atoms: N_10  and  C_11
REMARK    5  A    between atoms: C_15  and  C_16
REMARK                            x       y       z     vdW  Elec       q    Type
REMARK                         _______ _______ _______ _____ _____    ______ ____
ROOT
ATOM      1  C   UNL     1       3.681   5.212  18.285  0.00  0.00    +0.000 A 
ATOM      2  C   UNL     1       2.995   4.953  19.490  0.00  0.00    +0.000 A 
ATOM      3 CL   UNL     1       3.062   3.386  20.228  0.00  0.00    +0.000 Cl
ATOM      4  C   UNL     1       2.248   5.946  20.145  0.00  0.00    +0.000 A 
ATOM      5  C   UNL     1       2.168   7.242  19.625  0.00  0.00    +0.000 A 
ATOM      6  C   UNL     1       2.867   7.516  18.444  0.00  0.00    +0.000 A 
ATOM      7  C   UNL     1       3.644   6.538  17.807  0.00  0.00    +0.000 A 
ATOM      8 CL   UNL     1       4.603   7.105  16.478  0.00  0.00    +0.000 Cl
ENDROOT
BRANCH   5   9
ATOM      9  C   UNL     1       1.434   8.330  20.298  0.00  0.00    +0.000 A 
ATOM     10  C   UNL     1       1.107   8.444  21.640  0.00  0.00    +0.000 A 
ATOM     11  C   UNL     1       0.401   9.642  21.946  0.00  0.00    +0.000 A 
ATOM     12  C   UNL     1       0.205  10.416  20.827  0.00  0.00    +0.000 A 
ATOM     13  S   UNL     1       0.877   9.705  19.428  0.00  0.00    +0.000 S 
ENDBRANCH   5   9
BRANCH   1  14
ATOM     14  N   UNL     1       4.519   4.190  17.731  0.00  0.00    +0.000 N 
ATOM     15  H   UNL     1       5.082   3.825  18.509  0.00  0.00    +0.000 HD
BRANCH  14  21
ATOM     16  C   UNL     1       6.679   4.619  16.594  0.00  0.00    +0.000 A 
ATOM     17  C   UNL     1       7.397   4.842  15.408  0.00  0.00    +0.000 A 
ATOM     18  C   UNL     1       6.781   4.670  14.172  0.00  0.00    +0.000 A 
ATOM     19  C   UNL     1       5.464   4.225  14.113  0.00  0.00    +0.000 A 
ATOM     20  C   UNL     1       4.744   4.009  15.292  0.00  0.00    +0.000 A 
ATOM     21  C   UNL     1       5.307   4.296  16.548  0.00  0.00    +0.000 A 
BRANCH  16  23
ATOM     22  O   UNL     1       7.098   5.565  18.742  0.00  0.00    +0.000 OA
ATOM     23  C   UNL     1       7.423   4.780  17.865  0.00  0.00    +0.000 C 
BRANCH  23  24
ATOM     24  O   UNL     1       8.522   3.996  17.945  0.00  0.00    +0.000 OA
ATOM     25  H   UNL     1       9.079   4.172  18.734  0.00  0.00    +0.000 HD
ENDBRANCH  23  24
ENDBRANCH  16  23
ENDBRANCH  14  21
ENDBRANCH   1  14
TORSDOF 5
ENDMDL
MODEL 4
REMARK VINA RESULT:      -7.7      1.298      2.624
REMARK  Name = 
REMARK  5 active torsions:
REMARK  status: ('A' for Active; 'I' for Inactive)
REMARK    1  A    between atoms: C_2  and  O_3
REMARK    2  A    between atoms: C_2  and  C_4
REMARK    3  A    between atoms: C_9  and  N_10
REMARK    4  A    between atoms: N_10  and  C_11
REMARK    5  A    between atoms: C_15  and  C_16
REMARK                            x       y       z     vdW  Elec       q    Type
REMARK                         _______ _______ _______ _____ _____    ______ ____
ROOT
ATOM      1  C   UNL     1       5.322   4.246  18.096  0.00  0.00    +0.000 A 
ATOM      2  C   UNL     1       4.522   3.826  17.012  0.00  0.00    +0.000 A 
ATOM      3 CL   UNL     1       2.921   3.216  17.278  0.00  0.00    +0.000 Cl
ATOM      4  C   UNL     1       4.977   3.895  15.686  0.00  0.00    +0.000 A 
ATOM      5  C   UNL     1       6.247   4.400  15.388  0.00  0.00    +0.000 A 
ATOM      6  C   UNL     1       7.038   4.845  16.454  0.00  0.00    +0.000 A 
ATOM      7  C   UNL     1       6.574   4.811  17.777  0.00  0.00    +0.000 A 
ATOM      8 CL   UNL     1       7.598   5.589  18.940  0.00  0.00    +0.000 Cl
ENDROOT
BRANCH   5   9
ATOM      9  C   UNL     1       6.753   4.535  14.009  0.00  0.00    +0.000 A 
ATOM     10  C   UNL     1       7.693   5.430  13.524  0.00  0.00    +0.000 A 
ATOM     11  C   UNL     1       7.955   5.268  12.133  0.00  0.00    +0.000 A 
ATOM     12  C   UNL     1       7.208   4.251  11.589  0.00  0.00    +0.000 A 
ATOM     13  S   UNL     1       6.209   3.496  12.752  0.00  0.00    +0.000 S 
ENDBRANCH   5   9
BRANCH   1  14
ATOM     14  N   UNL     1       4.756   4.258  19.412  0.00  0.00    +0.000 N 
ATOM     15  H   UNL     1       4.683   3.276  19.704  0.00  0.00    +0.000 HD
BRANCH  14  21
ATOM     16  C   UNL     1       2.611   4.416  20.643  0.00  0.00    +0.000 A 
ATOM     17  C   UNL     1       1.430   5.121  20.929  0.00  0.00    +0.000 A 
ATOM     18  C   UNL     1       1.264   6.426  20.472  0.00  0.00    +0.000 A 
ATOM     19  C   UNL     1       2.294   7.049  19.775  0.00  0.00    +0.000 A 
ATOM     20  C   UNL     1       3.468   6.348  19.483  0.00  0.00    +0.000 A 
ATOM     21  C   UNL     1       3.606   4.992  19.826  0.00  0.00    +0.000 A 
BRANCH  16  23
ATOM     22  O   UNL     1       3.514   2.216  20.794  0.00  0.00    +0.000 OA
ATOM     23  C   UNL     1       2.725   3.051  21.206  0.00  0.00    +0.000 C 
BRANCH  23  24
ATOM     24  O   UNL     1       1.843   2.806  22.201  0.00  0.00    +0.000 OA
ATOM     25  H   UNL     1       2.260   2.683  23.081  0.00  0.00    +0.000 HD
ENDBRANCH  23  24
ENDBRANCH  16  23
ENDBRANCH  14  21
ENDBRANCH   1  14
TORSDOF 5
ENDMDL
MODEL 5
REMARK VINA RESULT:      -7.7      4.354      7.900
REMARK  Name = 
REMARK  5 active torsions:
REMARK  status: ('A' for Active; 'I' for Inactive)
REMARK    1  A    between atoms: C_2  and  O_3
REMARK    2  A    between atoms: C_2  and  C_4
REMARK    3  A    between atoms: C_9  and  N_10
REMARK    4  A    between atoms: N_10  and  C_11
REMARK    5  A    between atoms: C_15  and  C_16
REMARK                            x       y       z     vdW  Elec       q    Type
REMARK                         _______ _______ _______ _____ _____    ______ ____
ROOT
ATOM      1  C   UNL     1       2.503   6.922  19.057  0.00  0.00    +0.000 A 
ATOM      2  C   UNL     1       2.167   8.214  18.600  0.00  0.00    +0.000 A 
ATOM      3 CL   UNL     1       2.636   8.744  17.017  0.00  0.00    +0.000 Cl
ATOM      4  C   UNL     1       1.436   9.112  19.394  0.00  0.00    +0.000 A 
ATOM      5  C   UNL     1       0.999   8.749  20.672  0.00  0.00    +0.000 A 
ATOM      6  C   UNL     1       1.304   7.460  21.123  0.00  0.00    +0.000 A 
ATOM      7  C   UNL     1       2.003   6.547  20.320  0.00  0.00    +0.000 A 
ATOM      8 CL   UNL     1       2.110   4.936  20.954  0.00  0.00    +0.000 Cl
ENDROOT
BRANCH   5   9
ATOM      9  C   UNL     1       0.190   9.640  21.525  0.00  0.00    +0.000 A 
ATOM     10  C   UNL     1      -0.341   9.378  22.778  0.00  0.00    +0.000 A 
ATOM     11  C   UNL     1      -1.063  10.479  23.322  0.00  0.00    +0.000 A 
ATOM     12  C   UNL     1      -1.065  11.557  22.470  0.00  0.00    +0.000 A 
ATOM     13  S   UNL     1      -0.194  11.242  21.034  0.00  0.00    +0.000 S 
ENDBRANCH   5   9
BRANCH   1  14
ATOM     14  N   UNL     1       3.149   6.015  18.155  0.00  0.00    +0.000 N 
ATOM     15  H   UNL     1       2.703   5.101  18.297  0.00  0.00    +0.000 HD
BRANCH  14  21
ATOM     16  C   UNL     1       5.223   4.665  18.298  0.00  0.00    +0.000 A 
ATOM     17  C   UNL     1       6.623   4.591  18.230  0.00  0.00    +0.000 A 
ATOM     18  C   UNL     1       7.362   5.677  17.768  0.00  0.00    +0.000 A 
ATOM     19  C   UNL     1       6.705   6.820  17.324  0.00  0.00    +0.000 A 
ATOM     20  C   UNL     1       5.311   6.899  17.397  0.00  0.00    +0.000 A 
ATOM     21  C   UNL     1       4.554   5.865  17.975  0.00  0.00    +0.000 A 
BRANCH  16  23
ATOM     22  O   UNL     1       3.408   3.121  18.353  0.00  0.00    +0.000 OA
ATOM     23  C   UNL     1       4.512   3.450  18.757  0.00  0.00    +0.000 C 
BRANCH  23  24
ATOM     24  O   UNL     1       5.191   2.755  19.698  0.00  0.00    +0.000 OA
ATOM     25  H   UNL     1       4.711   1.968  20.034  0.00  0.00    +0.000 HD
ENDBRANCH  23  24
ENDBRANCH  16  23
ENDBRANCH  14  21
ENDBRANCH   1  14
TORSDOF 5
ENDMDL
MODEL 6
REMARK VINA RESULT:      -7.6      1.881      2.442
REMARK  Name = 
REMARK  5 active torsions:
REMARK  status: ('A' for Active; 'I' for Inactive)
REMARK    1  A    between atoms: C_2  and  O_3
REMARK    2  A    between atoms: C_2  and  C_4
REMARK    3  A    between atoms: C_9  and  N_10
REMARK    4  A    between atoms: N_10  and  C_11
REMARK    5  A    between atoms: C_15  and  C_16
REMARK                            x       y       z     vdW  Elec       q    Type
REMARK                         _______ _______ _______ _____ _____    ______ ____
ROOT
ATOM      1  C   UNL     1       5.152   4.920  18.009  0.00  0.00    +0.000 A 
ATOM      2  C   UNL     1       6.506   5.113  17.660  0.00  0.00    +0.000 A 
ATOM      3 CL   UNL     1       7.677   5.547  18.862  0.00  0.00    +0.000 Cl
ATOM      4  C   UNL     1       6.960   4.950  16.341  0.00  0.00    +0.000 A 
ATOM      5  C   UNL     1       6.081   4.575  15.321  0.00  0.00    +0.000 A 
ATOM      6  C   UNL     1       4.741   4.355  15.662  0.00  0.00    +0.000 A 
ATOM      7  C   UNL     1       4.290   4.481  16.984  0.00  0.00    +0.000 A 
ATOM      8 CL   UNL     1       2.656   3.972  17.259  0.00  0.00    +0.000 Cl
ENDROOT
BRANCH   5   9
ATOM      9  C   UNL     1       6.517   4.347  13.930  0.00  0.00    +0.000 A 
ATOM     10  C   UNL     1       6.017   3.439  13.011  0.00  0.00    +0.000 A 
ATOM     11  C   UNL     1       6.672   3.501  11.748  0.00  0.00    +0.000 A 
ATOM     12  C   UNL     1       7.658   4.458  11.733  0.00  0.00    +0.000 A 
ATOM     13  S   UNL     1       7.781   5.277  13.227  0.00  0.00    +0.000 S 
ENDBRANCH   5   9
BRANCH   1  14
ATOM     14  N   UNL     1       4.777   4.988  19.390  0.00  0.00    +0.000 N 
ATOM     15  H   UNL     1       5.615   4.739  19.930  0.00  0.00    +0.000 HD
BRANCH  14  21
ATOM     16  C   UNL     1       2.457   5.172  20.242  0.00  0.00    +0.000 A 
ATOM     17  C   UNL     1       1.375   4.605  20.935  0.00  0.00    +0.000 A 
ATOM     18  C   UNL     1       1.401   3.261  21.297  0.00  0.00    +0.000 A 
ATOM     19  C   UNL     1       2.481   2.467  20.924  0.00  0.00    +0.000 A 
ATOM     20  C   UNL     1       3.563   3.031  20.241  0.00  0.00    +0.000 A 
ATOM     21  C   UNL     1       3.613   4.410  19.975  0.00  0.00    +0.000 A 
BRANCH  16  23
ATOM     22  O   UNL     1       2.581   7.017  18.737  0.00  0.00    +0.000 OA
ATOM     23  C   UNL     1       2.328   6.596  19.855  0.00  0.00    +0.000 C 
BRANCH  23  24
ATOM     24  O   UNL     1       1.935   7.395  20.873  0.00  0.00    +0.000 OA
ATOM     25  H   UNL     1       1.248   6.997  21.448  0.00  0.00    +0.000 HD
ENDBRANCH  23  24
ENDBRANCH  16  23
ENDBRANCH  14  21
ENDBRANCH   1  14
TORSDOF 5
ENDMDL
MODEL 7
REMARK VINA RESULT:      -7.6      3.611      7.190
REMARK  Name = 
REMARK  5 active torsions:
REMARK  status: ('A' for Active; 'I' for Inactive)
REMARK    1  A    between atoms: C_2  and  O_3
REMARK    2  A    between atoms: C_2  and  C_4
REMARK    3  A    between atoms: C_9  and  N_10
REMARK    4  A    between atoms: N_10  and  C_11
REMARK    5  A    between atoms: C_15  and  C_16
REMARK                            x       y       z     vdW  Elec       q    Type
REMARK                         _______ _______ _______ _____ _____    ______ ____
ROOT
ATOM      1  C   UNL     1       3.029   5.493  18.373  0.00  0.00    +0.000 A 
ATOM      2  C   UNL     1       3.108   6.848  17.990  0.00  0.00    +0.000 A 
ATOM      3 CL   UNL     1       3.916   7.309  16.527  0.00  0.00    +0.000 Cl
ATOM      4  C   UNL     1       2.529   7.870  18.760  0.00  0.00    +0.000 A 
ATOM      5  C   UNL     1       1.837   7.575  19.939  0.00  0.00    +0.000 A 
ATOM      6  C   UNL     1       1.731   6.231  20.314  0.00  0.00    +0.000 A 
ATOM      7  C   UNL     1       2.276   5.204  19.529  0.00  0.00    +0.000 A 
ATOM      8 CL   UNL     1       1.872   3.595  20.033  0.00  0.00    +0.000 Cl
ENDROOT
BRANCH   5   9
ATOM      9  C   UNL     1       1.175   8.608  20.758  0.00  0.00    +0.000 A 
ATOM     10  C   UNL     1       0.980   8.620  22.130  0.00  0.00    +0.000 A 
ATOM     11  C   UNL     1       0.309   9.789  22.591  0.00  0.00    +0.000 A 
ATOM     12  C   UNL     1       0.008  10.643  21.557  0.00  0.00    +0.000 A 
ATOM     13  S   UNL     1       0.540  10.040  20.050  0.00  0.00    +0.000 S 
ENDBRANCH   5   9
BRANCH   1  14
ATOM     14  N   UNL     1       3.539   4.491  17.485  0.00  0.00    +0.000 N 
ATOM     15  H   UNL     1       3.363   3.586  17.939  0.00  0.00    +0.000 HD
BRANCH  14  21
ATOM     16  C   UNL     1       6.014   4.505  17.599  0.00  0.00    +0.000 A 
ATOM     17  C   UNL     1       7.253   4.639  16.953  0.00  0.00    +0.000 A 
ATOM     18  C   UNL     1       7.318   4.685  15.562  0.00  0.00    +0.000 A 
ATOM     19  C   UNL     1       6.154   4.546  14.813  0.00  0.00    +0.000 A 
ATOM     20  C   UNL     1       4.918   4.420  15.455  0.00  0.00    +0.000 A 
ATOM     21  C   UNL     1       4.817   4.496  16.854  0.00  0.00    +0.000 A 
BRANCH  16  23
ATOM     22  O   UNL     1       6.563   5.257  19.794  0.00  0.00    +0.000 OA
ATOM     23  C   UNL     1       6.040   4.418  19.078  0.00  0.00    +0.000 C 
BRANCH  23  24
ATOM     24  O   UNL     1       5.457   3.296  19.559  0.00  0.00    +0.000 OA
ATOM     25  H   UNL     1       5.677   2.486  19.052  0.00  0.00    +0.000 HD
ENDBRANCH  23  24
ENDBRANCH  16  23
ENDBRANCH  14  21
ENDBRANCH   1  14
TORSDOF 5
ENDMDL
MODEL 8
REMARK VINA RESULT:      -7.5      4.014      7.238
REMARK  Name = 
REMARK  5 active torsions:
REMARK  status: ('A' for Active; 'I' for Inactive)
REMARK    1  A    between atoms: C_2  and  O_3
REMARK    2  A    between atoms: C_2  and  C_4
REMARK    3  A    between atoms: C_9  and  N_10
REMARK    4  A    between atoms: N_10  and  C_11
REMARK    5  A    between atoms: C_15  and  C_16
REMARK                            x       y       z     vdW  Elec       q    Type
REMARK                         _______ _______ _______ _____ _____    ______ ____
ROOT
ATOM      1  C   UNL     1       3.374   5.868  18.788  0.00  0.00    +0.000 A 
ATOM      2  C   UNL     1       2.579   5.889  19.953  0.00  0.00    +0.000 A 
ATOM      3 CL   UNL     1       2.577   4.545  21.048  0.00  0.00    +0.000 Cl
ATOM      4  C   UNL     1       1.773   6.992  20.280  0.00  0.00    +0.000 A 
ATOM      5  C   UNL     1       1.741   8.124  19.460  0.00  0.00    +0.000 A 
ATOM      6  C   UNL     1       2.548   8.124  18.316  0.00  0.00    +0.000 A 
ATOM      7  C   UNL     1       3.380   7.040  18.004  0.00  0.00    +0.000 A 
ATOM      8 CL   UNL     1       4.459   7.295  16.671  0.00  0.00    +0.000 Cl
ENDROOT
BRANCH   5   9
ATOM      9  C   UNL     1       0.947   9.325  19.783  0.00  0.00    +0.000 A 
ATOM     10  C   UNL     1       0.703   9.883  21.027  0.00  0.00    +0.000 A 
ATOM     11  C   UNL     1      -0.101  11.058  20.967  0.00  0.00    +0.000 A 
ATOM     12  C   UNL     1      -0.451  11.369  19.675  0.00  0.00    +0.000 A 
ATOM     13  S   UNL     1       0.195  10.257  18.550  0.00  0.00    +0.000 S 
ENDBRANCH   5   9
BRANCH   1  14
ATOM     14  N   UNL     1       4.260   4.762  18.573  0.00  0.00    +0.000 N 
ATOM     15  H   UNL     1       4.729   4.591  19.471  0.00  0.00    +0.000 HD
BRANCH  14  21
ATOM     16  C   UNL     1       6.518   5.040  17.591  0.00  0.00    +0.000 A 
ATOM     17  C   UNL     1       7.362   5.000  16.469  0.00  0.00    +0.000 A 
ATOM     18  C   UNL     1       6.904   4.468  15.266  0.00  0.00    +0.000 A 
ATOM     19  C   UNL     1       5.624   3.928  15.193  0.00  0.00    +0.000 A 
ATOM     20  C   UNL     1       4.780   3.973  16.307  0.00  0.00    +0.000 A 
ATOM     21  C   UNL     1       5.177   4.616  17.492  0.00  0.00    +0.000 A 
BRANCH  16  23
ATOM     22  O   UNL     1       6.823   5.152  19.953  0.00  0.00    +0.000 OA
ATOM     23  C   UNL     1       7.099   5.579  18.843  0.00  0.00    +0.000 C 
BRANCH  23  24
ATOM     24  O   UNL     1       7.942   6.617  18.639  0.00  0.00    +0.000 OA
ATOM     25  H   UNL     1       8.852   6.348  18.391  0.00  0.00    +0.000 HD
ENDBRANCH  23  24
ENDBRANCH  16  23
ENDBRANCH  14  21
ENDBRANCH   1  14
TORSDOF 5
ENDMDL
MODEL 9
REMARK VINA RESULT:      -7.5      4.252      7.197
REMARK  Name = 
REMARK  5 active torsions:
REMARK  status: ('A' for Active; 'I' for Inactive)
REMARK    1  A    between atoms: C_2  and  O_3
REMARK    2  A    between atoms: C_2  and  C_4
REMARK    3  A    between atoms: C_9  and  N_10
REMARK    4  A    between atoms: N_10  and  C_11
REMARK    5  A    between atoms: C_15  and  C_16
REMARK                            x       y       z     vdW  Elec       q    Type
REMARK                         _______ _______ _______ _____ _____    ______ ____
ROOT
ATOM      1  C   UNL     1       3.426   6.029  18.730  0.00  0.00    +0.000 A 
ATOM      2  C   UNL     1       2.578   6.107  19.855  0.00  0.00    +0.000 A 
ATOM      3 CL   UNL     1       2.547   4.832  21.030  0.00  0.00    +0.000 Cl
ATOM      4  C   UNL     1       1.742   7.213  20.077  0.00  0.00    +0.000 A 
ATOM      5  C   UNL     1       1.730   8.292  19.188  0.00  0.00    +0.000 A 
ATOM      6  C   UNL     1       2.588   8.237  18.084  0.00  0.00    +0.000 A 
ATOM      7  C   UNL     1       3.451   7.151  17.877  0.00  0.00    +0.000 A 
ATOM      8 CL   UNL     1       4.585   7.344  16.580  0.00  0.00    +0.000 Cl
ENDROOT
BRANCH   5   9
ATOM      9  C   UNL     1       0.904   9.495  19.400  0.00  0.00    +0.000 A 
ATOM     10  C   UNL     1       0.148  10.193  18.470  0.00  0.00    +0.000 A 
ATOM     11  C   UNL     1      -0.540  11.307  19.030  0.00  0.00    +0.000 A 
ATOM     12  C   UNL     1      -0.293  11.434  20.376  0.00  0.00    +0.000 A 
ATOM     13  S   UNL     1       0.751  10.212  20.955  0.00  0.00    +0.000 S 
ENDBRANCH   5   9
BRANCH   1  14
ATOM     14  N   UNL     1       4.338   4.929  18.625  0.00  0.00    +0.000 N 
ATOM     15  H   UNL     1       4.838   4.881  19.521  0.00  0.00    +0.000 HD
BRANCH  14  21
ATOM     16  C   UNL     1       6.581   5.067  17.579  0.00  0.00    +0.000 A 
ATOM     17  C   UNL     1       7.398   4.917  16.448  0.00  0.00    +0.000 A 
ATOM     18  C   UNL     1       6.901   4.305  15.300  0.00  0.00    +0.000 A 
ATOM     19  C   UNL     1       5.606   3.796  15.295  0.00  0.00    +0.000 A 
ATOM     20  C   UNL     1       4.788   3.951  16.418  0.00  0.00    +0.000 A 
ATOM     21  C   UNL     1       5.227   4.673  17.541  0.00  0.00    +0.000 A 
BRANCH  16  23
ATOM     22  O   UNL     1       7.987   6.620  18.717  0.00  0.00    +0.000 OA
ATOM     23  C   UNL     1       7.203   5.687  18.773  0.00  0.00    +0.000 C 
BRANCH  23  24
ATOM     24  O   UNL     1       6.843   5.093  19.934  0.00  0.00    +0.000 OA
ATOM     25  H   UNL     1       6.622   5.725  20.651  0.00  0.00    +0.000 HD
ENDBRANCH  23  24
ENDBRANCH  16  23
ENDBRANCH  14  21
ENDBRANCH   1  14
TORSDOF 5
ENDMDL
