MODEL 1
REMARK VINA RESULT:      -7.4      0.000      0.000
REMARK  Name = 
REMARK  3 active torsions:
REMARK  status: ('A' for Active; 'I' for Inactive)
REMARK    1  A    between atoms: C_1  and  O_2
REMARK    2  A    between atoms: O_2  and  C_3
REMARK    3  A    between atoms: N_10  and  C_11
REMARK                            x       y       z     vdW  Elec       q    Type
REMARK                         _______ _______ _______ _____ _____    ______ ____
ROOT
ATOM      1  C   UNL     1       6.148   6.281  16.605  0.00  0.00    +0.000 A 
ATOM      2  C   UNL     1       6.890   5.247  16.042  0.00  0.00    +0.000 A 
ATOM      3  C   UNL     1       6.341   3.965  15.929  0.00  0.00    +0.000 A 
ATOM      4  C   UNL     1       5.054   3.692  16.402  0.00  0.00    +0.000 A 
ATOM      5  C   UNL     1       4.310   4.710  16.994  0.00  0.00    +0.000 A 
ATOM      6  C   UNL     1       4.853   6.000  17.050  0.00  0.00    +0.000 A 
ATOM      7  C   UNL     1       4.017   7.074  17.599  0.00  0.00    +0.000 C 
ATOM      8  N   UNL     1       3.038   6.809  18.403  0.00  0.00    +0.000 N 
ATOM      9  C   UNL     1       2.678   5.397  18.755  0.00  0.00    +0.000 C 
ATOM     10  C   UNL     1       2.923   4.493  17.536  0.00  0.00    +0.000 C 
ENDROOT
BRANCH   8  11
ATOM     11  C   UNL     1       2.198   7.866  18.859  0.00  0.00    +0.000 A 
ATOM     12  C   UNL     1       1.775   7.940  20.198  0.00  0.00    +0.000 A 
ATOM     13  C   UNL     1       0.918   8.965  20.618  0.00  0.00    +0.000 A 
ATOM     14  C   UNL     1       0.444   9.895  19.696  0.00  0.00    +0.000 A 
ATOM     15 CL   UNL     1      -0.656  11.114  20.199  0.00  0.00    +0.000 Cl
ATOM     16  C   UNL     1       0.853   9.833  18.366  0.00  0.00    +0.000 A 
ATOM     17  C   UNL     1       1.750   8.841  17.951  0.00  0.00    +0.000 A 
ENDBRANCH   8  11
BRANCH   1  19
ATOM     18  C   UNL     1       7.761   7.654  17.666  0.00  0.00    +0.000 C 
ATOM     19  O   UNL     1       6.599   7.548  16.842  0.00  0.00    +0.000 OA
ENDBRANCH   1  19
TORSDOF 2
ENDMDL
MODEL 2
REMARK VINA RESULT:      -7.4      0.165      1.120
REMARK  Name = 
REMARK  3 active torsions:
REMARK  status: ('A' for Active; 'I' for Inactive)
REMARK    1  A    between atoms: C_1  and  O_2
REMARK    2  A    between atoms: O_2  and  C_3
REMARK    3  A    between atoms: N_10  and  C_11
REMARK                            x       y       z     vdW  Elec       q    Type
REMARK                         _______ _______ _______ _____ _____    ______ ____
ROOT
ATOM      1  C   UNL     1       6.079   6.248  16.545  0.00  0.00    +0.000 A 
ATOM      2  C   UNL     1       6.818   5.221  15.965  0.00  0.00    +0.000 A 
ATOM      3  C   UNL     1       6.278   3.934  15.866  0.00  0.00    +0.000 A 
ATOM      4  C   UNL     1       5.005   3.649  16.370  0.00  0.00    +0.000 A 
ATOM      5  C   UNL     1       4.266   4.660  16.979  0.00  0.00    +0.000 A 
ATOM      6  C   UNL     1       4.798   5.956  17.021  0.00  0.00    +0.000 A 
ATOM      7  C   UNL     1       3.966   7.022  17.590  0.00  0.00    +0.000 C 
ATOM      8  N   UNL     1       3.009   6.749  18.416  0.00  0.00    +0.000 N 
ATOM      9  C   UNL     1       2.671   5.334  18.778  0.00  0.00    +0.000 C 
ATOM     10  C   UNL     1       2.895   4.431  17.555  0.00  0.00    +0.000 C 
ENDROOT
BRANCH   8  11
ATOM     11  C   UNL     1       2.170   7.799  18.892  0.00  0.00    +0.000 A 
ATOM     12  C   UNL     1       1.767   8.853  18.053  0.00  0.00    +0.000 A 
ATOM     13  C   UNL     1       0.975   9.893  18.550  0.00  0.00    +0.000 A 
ATOM     14  C   UNL     1       0.616   9.912  19.895  0.00  0.00    +0.000 A 
ATOM     15 CL   UNL     1      -0.304  11.222  20.518  0.00  0.00    +0.000 Cl
ATOM     16  C   UNL     1       1.009   8.876  20.739  0.00  0.00    +0.000 A 
ATOM     17  C   UNL     1       1.759   7.806  20.236  0.00  0.00    +0.000 A 
ENDBRANCH   8  11
BRANCH   1  19
ATOM     18  C   UNL     1       7.668   7.642  17.618  0.00  0.00    +0.000 C 
ATOM     19  O   UNL     1       6.525   7.520  16.770  0.00  0.00    +0.000 OA
ENDBRANCH   1  19
TORSDOF 2
ENDMDL
MODEL 3
REMARK VINA RESULT:      -7.2      4.266      6.707
REMARK  Name = 
REMARK  3 active torsions:
REMARK  status: ('A' for Active; 'I' for Inactive)
REMARK    1  A    between atoms: C_1  and  O_2
REMARK    2  A    between atoms: O_2  and  C_3
REMARK    3  A    between atoms: N_10  and  C_11
REMARK                            x       y       z     vdW  Elec       q    Type
REMARK                         _______ _______ _______ _____ _____    ______ ____
ROOT
ATOM      1  C   UNL     1       3.725   2.525  20.435  0.00  0.00    +0.000 A 
ATOM      2  C   UNL     1       2.768   2.366  21.433  0.00  0.00    +0.000 A 
ATOM      3  C   UNL     1       1.558   3.065  21.367  0.00  0.00    +0.000 A 
ATOM      4  C   UNL     1       1.299   3.952  20.318  0.00  0.00    +0.000 A 
ATOM      5  C   UNL     1       2.258   4.143  19.327  0.00  0.00    +0.000 A 
ATOM      6  C   UNL     1       3.442   3.395  19.378  0.00  0.00    +0.000 A 
ATOM      7  C   UNL     1       4.400   3.549  18.277  0.00  0.00    +0.000 C 
ATOM      8  N   UNL     1       4.407   4.615  17.546  0.00  0.00    +0.000 N 
ATOM      9  C   UNL     1       3.400   5.708  17.750  0.00  0.00    +0.000 C 
ATOM     10  C   UNL     1       2.059   5.087  18.173  0.00  0.00    +0.000 C 
ENDROOT
BRANCH   8  11
ATOM     11  C   UNL     1       5.298   4.702  16.437  0.00  0.00    +0.000 A 
ATOM     12  C   UNL     1       6.514   5.404  16.527  0.00  0.00    +0.000 A 
ATOM     13  C   UNL     1       7.357   5.510  15.415  0.00  0.00    +0.000 A 
ATOM     14  C   UNL     1       6.974   4.955  14.197  0.00  0.00    +0.000 A 
ATOM     15 CL   UNL     1       7.980   5.140  12.818  0.00  0.00    +0.000 Cl
ATOM     16  C   UNL     1       5.772   4.259  14.092  0.00  0.00    +0.000 A 
ATOM     17  C   UNL     1       4.948   4.106  15.214  0.00  0.00    +0.000 A 
ENDBRANCH   8  11
BRANCH   1  19
ATOM     18  C   UNL     1       5.250   1.052  21.493  0.00  0.00    +0.000 C 
ATOM     19  O   UNL     1       4.970   1.962  20.428  0.00  0.00    +0.000 OA
ENDBRANCH   1  19
TORSDOF 2
ENDMDL
MODEL 4
REMARK VINA RESULT:      -7.0      1.866      2.941
REMARK  Name = 
REMARK  3 active torsions:
REMARK  status: ('A' for Active; 'I' for Inactive)
REMARK    1  A    between atoms: C_1  and  O_2
REMARK    2  A    between atoms: O_2  and  C_3
REMARK    3  A    between atoms: N_10  and  C_11
REMARK                            x       y       z     vdW  Elec       q    Type
REMARK                         _______ _______ _______ _____ _____    ______ ____
ROOT
ATOM      1  C   UNL     1       3.638   3.762  17.553  0.00  0.00    +0.000 A 
ATOM      2  C   UNL     1       3.779   2.379  17.625  0.00  0.00    +0.000 A 
ATOM      3  C   UNL     1       3.068   1.647  18.582  0.00  0.00    +0.000 A 
ATOM      4  C   UNL     1       2.229   2.288  19.498  0.00  0.00    +0.000 A 
ATOM      5  C   UNL     1       2.100   3.675  19.458  0.00  0.00    +0.000 A 
ATOM      6  C   UNL     1       2.776   4.388  18.459  0.00  0.00    +0.000 A 
ATOM      7  C   UNL     1       2.557   5.837  18.382  0.00  0.00    +0.000 C 
ATOM      8  N   UNL     1       2.155   6.504  19.414  0.00  0.00    +0.000 N 
ATOM      9  C   UNL     1       1.835   5.819  20.709  0.00  0.00    +0.000 C 
ATOM     10  C   UNL     1       1.227   4.439  20.416  0.00  0.00    +0.000 C 
ENDROOT
BRANCH   8  11
ATOM     11  C   UNL     1       1.878   7.897  19.288  0.00  0.00    +0.000 A 
ATOM     12  C   UNL     1       1.254   8.617  20.322  0.00  0.00    +0.000 A 
ATOM     13  C   UNL     1       0.957   9.976  20.162  0.00  0.00    +0.000 A 
ATOM     14  C   UNL     1       1.241  10.612  18.957  0.00  0.00    +0.000 A 
ATOM     15 CL   UNL     1       0.818  12.263  18.741  0.00  0.00    +0.000 Cl
ATOM     16  C   UNL     1       1.857   9.911  17.923  0.00  0.00    +0.000 A 
ATOM     17  C   UNL     1       2.203   8.565  18.095  0.00  0.00    +0.000 A 
ENDBRANCH   8  11
BRANCH   1  19
ATOM     18  C   UNL     1       5.562   4.074  16.206  0.00  0.00    +0.000 C 
ATOM     19  O   UNL     1       4.334   4.592  16.720  0.00  0.00    +0.000 OA
ENDBRANCH   1  19
TORSDOF 2
ENDMDL
MODEL 5
REMARK VINA RESULT:      -6.9      2.417      3.639
REMARK  Name = 
REMARK  3 active torsions:
REMARK  status: ('A' for Active; 'I' for Inactive)
REMARK    1  A    between atoms: C_1  and  O_2
REMARK    2  A    between atoms: O_2  and  C_3
REMARK    3  A    between atoms: N_10  and  C_11
REMARK                            x       y       z     vdW  Elec       q    Type
REMARK                         _______ _______ _______ _____ _____    ______ ____
ROOT
ATOM      1  C   UNL     1       2.652   4.143  19.470  0.00  0.00    +0.000 A 
ATOM      2  C   UNL     1       3.355   3.208  18.715  0.00  0.00    +0.000 A 
ATOM      3  C   UNL     1       4.164   3.624  17.653  0.00  0.00    +0.000 A 
ATOM      4  C   UNL     1       4.261   4.977  17.311  0.00  0.00    +0.000 A 
ATOM      5  C   UNL     1       3.540   5.921  18.039  0.00  0.00    +0.000 A 
ATOM      6  C   UNL     1       2.778   5.494  19.134  0.00  0.00    +0.000 A 
ATOM      7  C   UNL     1       2.097   6.516  19.938  0.00  0.00    +0.000 C 
ATOM      8  N   UNL     1       1.816   7.675  19.439  0.00  0.00    +0.000 N 
ATOM      9  C   UNL     1       2.228   8.046  18.045  0.00  0.00    +0.000 C 
ATOM     10  C   UNL     1       3.582   7.392  17.727  0.00  0.00    +0.000 C 
ENDROOT
BRANCH   8  11
ATOM     11  C   UNL     1       1.223   8.673  20.267  0.00  0.00    +0.000 A 
ATOM     12  C   UNL     1       1.121   8.503  21.660  0.00  0.00    +0.000 A 
ATOM     13  C   UNL     1       0.501   9.477  22.450  0.00  0.00    +0.000 A 
ATOM     14  C   UNL     1      -0.059  10.603  21.854  0.00  0.00    +0.000 A 
ATOM     15 CL   UNL     1      -0.875  11.767  22.818  0.00  0.00    +0.000 Cl
ATOM     16  C   UNL     1       0.033  10.784  20.476  0.00  0.00    +0.000 A 
ATOM     17  C   UNL     1       0.697   9.838  19.685  0.00  0.00    +0.000 A 
ENDBRANCH   8  11
BRANCH   1  19
ATOM     18  C   UNL     1       2.285   3.060  21.545  0.00  0.00    +0.000 C 
ATOM     19  O   UNL     1       1.773   3.856  20.475  0.00  0.00    +0.000 OA
ENDBRANCH   1  19
TORSDOF 2
ENDMDL
MODEL 6
REMARK VINA RESULT:      -6.9      4.245      6.649
REMARK  Name = 
REMARK  3 active torsions:
REMARK  status: ('A' for Active; 'I' for Inactive)
REMARK    1  A    between atoms: C_1  and  O_2
REMARK    2  A    between atoms: O_2  and  C_3
REMARK    3  A    between atoms: N_10  and  C_11
REMARK                            x       y       z     vdW  Elec       q    Type
REMARK                         _______ _______ _______ _____ _____    ______ ____
ROOT
ATOM      1  C   UNL     1       3.656   2.555  20.594  0.00  0.00    +0.000 A 
ATOM      2  C   UNL     1       2.715   2.310  21.590  0.00  0.00    +0.000 A 
ATOM      3  C   UNL     1       1.416   2.817  21.472  0.00  0.00    +0.000 A 
ATOM      4  C   UNL     1       1.048   3.598  20.373  0.00  0.00    +0.000 A 
ATOM      5  C   UNL     1       1.987   3.876  19.382  0.00  0.00    +0.000 A 
ATOM      6  C   UNL     1       3.267   3.316  19.488  0.00  0.00    +0.000 A 
ATOM      7  C   UNL     1       4.212   3.551  18.389  0.00  0.00    +0.000 C 
ATOM      8  N   UNL     1       4.074   4.567  17.600  0.00  0.00    +0.000 N 
ATOM      9  C   UNL     1       2.913   5.506  17.733  0.00  0.00    +0.000 C 
ATOM     10  C   UNL     1       1.671   4.717  18.175  0.00  0.00    +0.000 C 
ENDROOT
BRANCH   8  11
ATOM     11  C   UNL     1       4.964   4.726  16.497  0.00  0.00    +0.000 A 
ATOM     12  C   UNL     1       5.178   3.688  15.573  0.00  0.00    +0.000 A 
ATOM     13  C   UNL     1       6.084   3.851  14.519  0.00  0.00    +0.000 A 
ATOM     14  C   UNL     1       6.814   5.032  14.406  0.00  0.00    +0.000 A 
ATOM     15 CL   UNL     1       7.971   5.206  13.149  0.00  0.00    +0.000 Cl
ATOM     16  C   UNL     1       6.613   6.068  15.315  0.00  0.00    +0.000 A 
ATOM     17  C   UNL     1       5.671   5.930  16.342  0.00  0.00    +0.000 A 
ENDBRANCH   8  11
BRANCH   1  19
ATOM     18  C   UNL     1       5.239   0.887  21.165  0.00  0.00    +0.000 C 
ATOM     19  O   UNL     1       4.971   2.185  20.631  0.00  0.00    +0.000 OA
ENDBRANCH   1  19
TORSDOF 2
ENDMDL
MODEL 7
REMARK VINA RESULT:      -6.9      1.891      3.041
REMARK  Name = 
REMARK  3 active torsions:
REMARK  status: ('A' for Active; 'I' for Inactive)
REMARK    1  A    between atoms: C_1  and  O_2
REMARK    2  A    between atoms: O_2  and  C_3
REMARK    3  A    between atoms: N_10  and  C_11
REMARK                            x       y       z     vdW  Elec       q    Type
REMARK                         _______ _______ _______ _____ _____    ______ ____
ROOT
ATOM      1  C   UNL     1       3.740   3.909  17.496  0.00  0.00    +0.000 A 
ATOM      2  C   UNL     1       3.928   2.532  17.578  0.00  0.00    +0.000 A 
ATOM      3  C   UNL     1       3.237   1.781  18.535  0.00  0.00    +0.000 A 
ATOM      4  C   UNL     1       2.369   2.399  19.441  0.00  0.00    +0.000 A 
ATOM      5  C   UNL     1       2.193   3.780  19.390  0.00  0.00    +0.000 A 
ATOM      6  C   UNL     1       2.850   4.509  18.391  0.00  0.00    +0.000 A 
ATOM      7  C   UNL     1       2.582   5.950  18.303  0.00  0.00    +0.000 C 
ATOM      8  N   UNL     1       2.149   6.609  19.329  0.00  0.00    +0.000 N 
ATOM      9  C   UNL     1       1.844   5.922  20.626  0.00  0.00    +0.000 C 
ATOM     10  C   UNL     1       1.287   4.519  20.337  0.00  0.00    +0.000 C 
ENDROOT
BRANCH   8  11
ATOM     11  C   UNL     1       1.825   7.990  19.191  0.00  0.00    +0.000 A 
ATOM     12  C   UNL     1       2.171   8.713  18.035  0.00  0.00    +0.000 A 
ATOM     13  C   UNL     1       1.879  10.077  17.935  0.00  0.00    +0.000 A 
ATOM     14  C   UNL     1       1.280  10.739  19.004  0.00  0.00    +0.000 A 
ATOM     15 CL   UNL     1       0.978  12.427  18.905  0.00  0.00    +0.000 Cl
ATOM     16  C   UNL     1       0.933  10.038  20.156  0.00  0.00    +0.000 A 
ATOM     17  C   UNL     1       1.177   8.661  20.241  0.00  0.00    +0.000 A 
ENDBRANCH   8  11
BRANCH   1  19
ATOM     18  C   UNL     1       5.369   4.149  15.792  0.00  0.00    +0.000 C 
ATOM     19  O   UNL     1       4.412   4.756  16.662  0.00  0.00    +0.000 OA
ENDBRANCH   1  19
TORSDOF 2
ENDMDL
MODEL 8
REMARK VINA RESULT:      -6.8      1.318      2.188
REMARK  Name = 
REMARK  3 active torsions:
REMARK  status: ('A' for Active; 'I' for Inactive)
REMARK    1  A    between atoms: C_1  and  O_2
REMARK    2  A    between atoms: O_2  and  C_3
REMARK    3  A    between atoms: N_10  and  C_11
REMARK                            x       y       z     vdW  Elec       q    Type
REMARK                         _______ _______ _______ _____ _____    ______ ____
ROOT
ATOM      1  C   UNL     1       4.377   5.697  17.177  0.00  0.00    +0.000 A 
ATOM      2  C   UNL     1       4.833   4.481  16.675  0.00  0.00    +0.000 A 
ATOM      3  C   UNL     1       4.237   3.283  17.082  0.00  0.00    +0.000 A 
ATOM      4  C   UNL     1       3.197   3.279  18.016  0.00  0.00    +0.000 A 
ATOM      5  C   UNL     1       2.749   4.486  18.548  0.00  0.00    +0.000 A 
ATOM      6  C   UNL     1       3.319   5.681  18.090  0.00  0.00    +0.000 A 
ATOM      7  C   UNL     1       2.772   6.943  18.601  0.00  0.00    +0.000 C 
ATOM      8  N   UNL     1       2.138   6.985  19.728  0.00  0.00    +0.000 N 
ATOM      9  C   UNL     1       1.880   5.741  20.525  0.00  0.00    +0.000 C 
ATOM     10  C   UNL     1       1.642   4.565  19.565  0.00  0.00    +0.000 C 
ENDROOT
BRANCH   8  11
ATOM     11  C   UNL     1       1.553   8.211  20.161  0.00  0.00    +0.000 A 
ATOM     12  C   UNL     1       1.294   9.259  19.259  0.00  0.00    +0.000 A 
ATOM     13  C   UNL     1       0.755  10.468  19.710  0.00  0.00    +0.000 A 
ATOM     14  C   UNL     1       0.511  10.657  21.068  0.00  0.00    +0.000 A 
ATOM     15 CL   UNL     1      -0.092  12.164  21.629  0.00  0.00    +0.000 Cl
ATOM     16  C   UNL     1       0.763   9.629  21.973  0.00  0.00    +0.000 A 
ATOM     17  C   UNL     1       1.256   8.398  21.521  0.00  0.00    +0.000 A 
ENDBRANCH   8  11
BRANCH   1  19
ATOM     18  C   UNL     1       6.318   7.056  17.209  0.00  0.00    +0.000 C 
ATOM     19  O   UNL     1       4.926   6.921  16.920  0.00  0.00    +0.000 OA
ENDBRANCH   1  19
TORSDOF 2
ENDMDL
MODEL 9
REMARK VINA RESULT:      -6.8      3.715      6.600
REMARK  Name = 
REMARK  3 active torsions:
REMARK  status: ('A' for Active; 'I' for Inactive)
REMARK    1  A    between atoms: C_1  and  O_2
REMARK    2  A    between atoms: O_2  and  C_3
REMARK    3  A    between atoms: N_10  and  C_11
REMARK                            x       y       z     vdW  Elec       q    Type
REMARK                         _______ _______ _______ _____ _____    ______ ____
ROOT
ATOM      1  C   UNL     1       2.362   5.282  19.831  0.00  0.00    +0.000 A 
ATOM      2  C   UNL     1       1.512   4.904  20.866  0.00  0.00    +0.000 A 
ATOM      3  C   UNL     1       1.349   3.551  21.186  0.00  0.00    +0.000 A 
ATOM      4  C   UNL     1       2.010   2.557  20.458  0.00  0.00    +0.000 A 
ATOM      5  C   UNL     1       2.842   2.919  19.401  0.00  0.00    +0.000 A 
ATOM      6  C   UNL     1       3.037   4.280  19.129  0.00  0.00    +0.000 A 
ATOM      7  C   UNL     1       3.983   4.639  18.066  0.00  0.00    +0.000 C 
ATOM      8  N   UNL     1       4.277   3.800  17.126  0.00  0.00    +0.000 N 
ATOM      9  C   UNL     1       3.714   2.410  17.117  0.00  0.00    +0.000 C 
ATOM     10  C   UNL     1       3.578   1.909  18.564  0.00  0.00    +0.000 C 
ENDROOT
BRANCH   8  11
ATOM     11  C   UNL     1       5.257   4.150  16.152  0.00  0.00    +0.000 A 
ATOM     12  C   UNL     1       6.335   4.996  16.468  0.00  0.00    +0.000 A 
ATOM     13  C   UNL     1       7.265   5.359  15.487  0.00  0.00    +0.000 A 
ATOM     14  C   UNL     1       7.101   4.916  14.177  0.00  0.00    +0.000 A 
ATOM     15 CL   UNL     1       8.208   5.413  12.961  0.00  0.00    +0.000 Cl
ATOM     16  C   UNL     1       6.037   4.080  13.849  0.00  0.00    +0.000 A 
ATOM     17  C   UNL     1       5.132   3.673  14.837  0.00  0.00    +0.000 A 
ENDBRANCH   8  11
BRANCH   1  19
ATOM     18  C   UNL     1       1.924   7.590  20.144  0.00  0.00    +0.000 C 
ATOM     19  O   UNL     1       2.542   6.557  19.375  0.00  0.00    +0.000 OA
ENDBRANCH   1  19
TORSDOF 2
ENDMDL
