MODEL 1
REMARK VINA RESULT:      -6.9      0.000      0.000
REMARK  Name = 
REMARK  11 active torsions:
REMARK  status: ('A' for Active; 'I' for Inactive)
REMARK    1  A    between atoms: C_1  and  O_2
REMARK    2  A    between atoms: O_2  and  C_3
REMARK    3  A    between atoms: C_5  and  C_6
REMARK    4  A    between atoms: C_6  and  O_7
REMARK    5  A    between atoms: C_6  and  C_8
REMARK    6  A    between atoms: C_9  and  C_10
REMARK    7  A    between atoms: C_16  and  N_17
REMARK    8  A    between atoms: C_19  and  O_20
REMARK    9  A    between atoms: O_20  and  C_21
REMARK   10  A    between atoms: C_22  and  O_23
REMARK   11  A    between atoms: O_23  and  C_24
REMARK                            x       y       z     vdW  Elec       q    Type
REMARK                         _______ _______ _______ _____ _____    ______ ____
ROOT
ATOM      1  C   UNL     1       3.835   4.239  17.572  0.00  0.00    +0.000 C 
ENDROOT
BRANCH   1   4
ATOM      2  C   UNL     1       6.196   3.987  14.564  0.00  0.00    +0.000 A 
ATOM      3  C   UNL     1       5.231   3.662  15.530  0.00  0.00    +0.000 A 
ATOM      4  C   UNL     1       5.049   4.428  16.684  0.00  0.00    +0.000 A 
ATOM      5  C   UNL     1       5.951   5.471  16.905  0.00  0.00    +0.000 A 
ATOM      6  C   UNL     1       7.000   5.750  16.011  0.00  0.00    +0.000 A 
ATOM      7  C   UNL     1       7.136   5.006  14.817  0.00  0.00    +0.000 A 
BRANCH   2   9
ATOM      8  C   UNL     1       5.091   3.532  12.520  0.00  0.00    +0.000 C 
ATOM      9  O   UNL     1       6.212   3.292  13.380  0.00  0.00    +0.000 OA
ENDBRANCH   2   9
BRANCH   6  10
ATOM     10  O   UNL     1       7.757   6.806  16.459  0.00  0.00    +0.000 OA
ATOM     11  C   UNL     1       7.393   7.477  17.653  0.00  0.00    +0.000 C 
ENDBRANCH   6  10
BRANCH   7  12
ATOM     12  O   UNL     1       8.182   5.357  14.010  0.00  0.00    +0.000 OA
ATOM     13  C   UNL     1       7.984   5.703  12.651  0.00  0.00    +0.000 C 
ENDBRANCH   7  12
ENDBRANCH   1   4
BRANCH   1  14
ATOM     14  O   UNL     1       2.836   3.466  16.918  0.00  0.00    +0.000 OA
ATOM     15  H   UNL     1       3.189   2.563  16.857  0.00  0.00    +0.000 HD
ENDBRANCH   1  14
BRANCH   1  16
ATOM     16  C   UNL     1       3.195   5.555  17.983  0.00  0.00    +0.000 C 
ATOM     17  C   UNL     1       2.648   6.685  18.335  0.00  0.00    +0.000 C 
BRANCH  17  18
ATOM     18  C   UNL     1       2.067   7.936  18.707  0.00  0.00    +0.000 A 
ATOM     19  C   UNL     1       1.912   8.953  17.794  0.00  0.00    +0.000 A 
ATOM     20  N   UNL     1       1.399  10.162  18.108  0.00  0.00    +0.000 NA
ATOM     21  C   UNL     1       1.047  10.337  19.381  0.00  0.00    +0.000 A 
ATOM     22  N   UNL     1       0.522  11.569  19.731  0.00  0.00    +0.000 N 
ATOM     23  N   UNL     1       1.118   9.408  20.338  0.00  0.00    +0.000 NA
ATOM     24  C   UNL     1       1.639   8.219  19.994  0.00  0.00    +0.000 A 
ATOM     25  H   UNL     1       0.123  12.012  18.916  0.00  0.00    +0.000 HD
ATOM     26  H   UNL     1      -0.070  11.470  20.542  0.00  0.00    +0.000 HD
BRANCH  24  27
ATOM     27  N   UNL     1       1.659   7.257  21.008  0.00  0.00    +0.000 N 
ATOM     28  H   UNL     1       1.075   7.589  21.770  0.00  0.00    +0.000 HD
ATOM     29  H   UNL     1       2.601   7.029  21.307  0.00  0.00    +0.000 HD
ENDBRANCH  24  27
ENDBRANCH  17  18
ENDBRANCH   1  16
TORSDOF 8
ENDMDL
MODEL 2
REMARK VINA RESULT:      -6.8      4.742      8.323
REMARK  Name = 
REMARK  11 active torsions:
REMARK  status: ('A' for Active; 'I' for Inactive)
REMARK    1  A    between atoms: C_1  and  O_2
REMARK    2  A    between atoms: O_2  and  C_3
REMARK    3  A    between atoms: C_5  and  C_6
REMARK    4  A    between atoms: C_6  and  O_7
REMARK    5  A    between atoms: C_6  and  C_8
REMARK    6  A    between atoms: C_9  and  C_10
REMARK    7  A    between atoms: C_16  and  N_17
REMARK    8  A    between atoms: C_19  and  O_20
REMARK    9  A    between atoms: O_20  and  C_21
REMARK   10  A    between atoms: C_22  and  O_23
REMARK   11  A    between atoms: O_23  and  C_24
REMARK                            x       y       z     vdW  Elec       q    Type
REMARK                         _______ _______ _______ _____ _____    ______ ____
ROOT
ATOM      1  C   UNL     1       1.833   6.505  20.119  0.00  0.00    +0.000 C 
ENDROOT
BRANCH   1   4
ATOM      2  C   UNL     1       1.235  10.219  19.382  0.00  0.00    +0.000 A 
ATOM      3  C   UNL     1       1.690   8.895  19.271  0.00  0.00    +0.000 A 
ATOM      4  C   UNL     1       1.603   7.989  20.330  0.00  0.00    +0.000 A 
ATOM      5  C   UNL     1       1.152   8.483  21.556  0.00  0.00    +0.000 A 
ATOM      6  C   UNL     1       0.796   9.832  21.729  0.00  0.00    +0.000 A 
ATOM      7  C   UNL     1       0.831  10.726  20.634  0.00  0.00    +0.000 A 
BRANCH   2   9
ATOM      8  C   UNL     1       2.328  11.873  18.088  0.00  0.00    +0.000 C 
ATOM      9  O   UNL     1       1.199  11.006  18.258  0.00  0.00    +0.000 OA
ENDBRANCH   2   9
BRANCH   6  10
ATOM     10  O   UNL     1       0.405  10.074  23.024  0.00  0.00    +0.000 OA
ATOM     11  C   UNL     1      -0.973  10.191  23.334  0.00  0.00    +0.000 C 
ENDBRANCH   6  10
BRANCH   7  12
ATOM     12  O   UNL     1       0.461  12.014  20.900  0.00  0.00    +0.000 OA
ATOM     13  C   UNL     1      -0.811  12.510  20.525  0.00  0.00    +0.000 C 
ENDBRANCH   7  12
ENDBRANCH   1   4
BRANCH   1  14
ATOM     14  O   UNL     1       2.183   5.862  21.339  0.00  0.00    +0.000 OA
ATOM     15  H   UNL     1       1.439   6.013  21.946  0.00  0.00    +0.000 HD
ENDBRANCH   1  14
BRANCH   1  16
ATOM     16  C   UNL     1       2.942   6.218  19.119  0.00  0.00    +0.000 C 
ATOM     17  C   UNL     1       3.893   5.972  18.262  0.00  0.00    +0.000 C 
BRANCH  17  18
ATOM     18  C   UNL     1       4.919   5.713  17.303  0.00  0.00    +0.000 A 
ATOM     19  C   UNL     1       4.994   6.420  16.126  0.00  0.00    +0.000 A 
ATOM     20  N   UNL     1       5.926   6.187  15.177  0.00  0.00    +0.000 NA
ATOM     21  C   UNL     1       6.791   5.207  15.432  0.00  0.00    +0.000 A 
ATOM     22  N   UNL     1       7.754   4.943  14.474  0.00  0.00    +0.000 N 
ATOM     23  N   UNL     1       6.833   4.484  16.555  0.00  0.00    +0.000 NA
ATOM     24  C   UNL     1       5.887   4.736  17.475  0.00  0.00    +0.000 A 
ATOM     25  H   UNL     1       7.909   5.768  13.912  0.00  0.00    +0.000 HD
ATOM     26  H   UNL     1       8.561   4.521  14.907  0.00  0.00    +0.000 HD
BRANCH  24  27
ATOM     27  N   UNL     1       5.986   3.993  18.656  0.00  0.00    +0.000 N 
ATOM     28  H   UNL     1       5.668   4.578  19.423  0.00  0.00    +0.000 HD
ATOM     29  H   UNL     1       6.919   3.625  18.803  0.00  0.00    +0.000 HD
ENDBRANCH  24  27
ENDBRANCH  17  18
ENDBRANCH   1  16
TORSDOF 8
ENDMDL
MODEL 3
REMARK VINA RESULT:      -6.7      3.211      5.677
REMARK  Name = 
REMARK  11 active torsions:
REMARK  status: ('A' for Active; 'I' for Inactive)
REMARK    1  A    between atoms: C_1  and  O_2
REMARK    2  A    between atoms: O_2  and  C_3
REMARK    3  A    between atoms: C_5  and  C_6
REMARK    4  A    between atoms: C_6  and  O_7
REMARK    5  A    between atoms: C_6  and  C_8
REMARK    6  A    between atoms: C_9  and  C_10
REMARK    7  A    between atoms: C_16  and  N_17
REMARK    8  A    between atoms: C_19  and  O_20
REMARK    9  A    between atoms: O_20  and  C_21
REMARK   10  A    between atoms: C_22  and  O_23
REMARK   11  A    between atoms: O_23  and  C_24
REMARK                            x       y       z     vdW  Elec       q    Type
REMARK                         _______ _______ _______ _____ _____    ______ ____
ROOT
ATOM      1  C   UNL     1       1.545   9.080  17.854  0.00  0.00    +0.000 C 
ENDROOT
BRANCH   1   4
ATOM      2  C   UNL     1       2.705   6.006  19.828  0.00  0.00    +0.000 A 
ATOM      3  C   UNL     1       2.069   7.213  19.495  0.00  0.00    +0.000 A 
ATOM      4  C   UNL     1       2.413   7.941  18.354  0.00  0.00    +0.000 A 
ATOM      5  C   UNL     1       3.504   7.485  17.611  0.00  0.00    +0.000 A 
ATOM      6  C   UNL     1       4.232   6.341  17.984  0.00  0.00    +0.000 A 
ATOM      7  C   UNL     1       3.837   5.579  19.107  0.00  0.00    +0.000 A 
BRANCH   2   9
ATOM      8  C   UNL     1       1.158   4.352  20.518  0.00  0.00    +0.000 C 
ATOM      9  O   UNL     1       2.209   5.260  20.869  0.00  0.00    +0.000 OA
ENDBRANCH   2   9
BRANCH   6  10
ATOM     10  O   UNL     1       5.266   6.111  17.108  0.00  0.00    +0.000 OA
ATOM     11  C   UNL     1       6.515   6.748  17.311  0.00  0.00    +0.000 C 
ENDBRANCH   6  10
BRANCH   7  12
ATOM     12  O   UNL     1       4.604   4.482  19.385  0.00  0.00    +0.000 OA
ATOM     13  C   UNL     1       4.284   3.205  18.861  0.00  0.00    +0.000 C 
ENDBRANCH   7  12
ENDBRANCH   1   4
BRANCH   1  14
ATOM     14  O   UNL     1       2.332  10.088  17.230  0.00  0.00    +0.000 OA
ATOM     15  H   UNL     1       1.922  10.937  17.470  0.00  0.00    +0.000 HD
ENDBRANCH   1  14
BRANCH   1  16
ATOM     16  C   UNL     1       0.752   9.747  18.967  0.00  0.00    +0.000 C 
ATOM     17  C   UNL     1       0.071  10.319  19.921  0.00  0.00    +0.000 C 
BRANCH  17  18
ATOM     18  C   UNL     1      -0.698  10.936  20.953  0.00  0.00    +0.000 A 
ATOM     19  C   UNL     1      -0.520  10.603  22.275  0.00  0.00    +0.000 A 
ATOM     20  N   UNL     1      -1.246  11.136  23.282  0.00  0.00    +0.000 NA
ATOM     21  C   UNL     1      -2.178  12.020  22.928  0.00  0.00    +0.000 A 
ATOM     22  N   UNL     1      -2.940  12.579  23.938  0.00  0.00    +0.000 N 
ATOM     23  N   UNL     1      -2.409  12.444  21.682  0.00  0.00    +0.000 NA
ATOM     24  C   UNL     1      -1.675  11.888  20.704  0.00  0.00    +0.000 A 
ATOM     25  H   UNL     1      -2.431  12.538  24.810  0.00  0.00    +0.000 HD
ATOM     26  H   UNL     1      -3.286  13.480  23.646  0.00  0.00    +0.000 HD
BRANCH  24  27
ATOM     27  N   UNL     1      -1.911  12.385  19.419  0.00  0.00    +0.000 N 
ATOM     28  H   UNL     1      -2.899  12.267  19.212  0.00  0.00    +0.000 HD
ATOM     29  H   UNL     1      -1.310  11.959  18.723  0.00  0.00    +0.000 HD
ENDBRANCH  24  27
ENDBRANCH  17  18
ENDBRANCH   1  16
TORSDOF 8
ENDMDL
MODEL 4
REMARK VINA RESULT:      -6.7      2.945      5.384
REMARK  Name = 
REMARK  11 active torsions:
REMARK  status: ('A' for Active; 'I' for Inactive)
REMARK    1  A    between atoms: C_1  and  O_2
REMARK    2  A    between atoms: O_2  and  C_3
REMARK    3  A    between atoms: C_5  and  C_6
REMARK    4  A    between atoms: C_6  and  O_7
REMARK    5  A    between atoms: C_6  and  C_8
REMARK    6  A    between atoms: C_9  and  C_10
REMARK    7  A    between atoms: C_16  and  N_17
REMARK    8  A    between atoms: C_19  and  O_20
REMARK    9  A    between atoms: O_20  and  C_21
REMARK   10  A    between atoms: C_22  and  O_23
REMARK   11  A    between atoms: O_23  and  C_24
REMARK                            x       y       z     vdW  Elec       q    Type
REMARK                         _______ _______ _______ _____ _____    ______ ____
ROOT
ATOM      1  C   UNL     1       1.756   8.862  17.824  0.00  0.00    +0.000 C 
ENDROOT
BRANCH   1   4
ATOM      2  C   UNL     1       2.782   5.742  19.801  0.00  0.00    +0.000 A 
ATOM      3  C   UNL     1       2.186   6.968  19.461  0.00  0.00    +0.000 A 
ATOM      4  C   UNL     1       2.580   7.697  18.337  0.00  0.00    +0.000 A 
ATOM      5  C   UNL     1       3.681   7.221  17.622  0.00  0.00    +0.000 A 
ATOM      6  C   UNL     1       4.370   6.056  18.004  0.00  0.00    +0.000 A 
ATOM      7  C   UNL     1       3.924   5.294  19.108  0.00  0.00    +0.000 A 
BRANCH   2   9
ATOM      8  C   UNL     1       1.122   4.182  20.446  0.00  0.00    +0.000 C 
ATOM      9  O   UNL     1       2.239   5.000  20.820  0.00  0.00    +0.000 OA
ENDBRANCH   2   9
BRANCH   6  10
ATOM     10  O   UNL     1       5.423   5.808  17.156  0.00  0.00    +0.000 OA
ATOM     11  C   UNL     1       5.210   5.061  15.971  0.00  0.00    +0.000 C 
ENDBRANCH   6  10
BRANCH   7  12
ATOM     12  O   UNL     1       4.655   4.175  19.397  0.00  0.00    +0.000 OA
ATOM     13  C   UNL     1       4.274   2.899  18.917  0.00  0.00    +0.000 C 
ENDBRANCH   7  12
ENDBRANCH   1   4
BRANCH   1  14
ATOM     14  O   UNL     1       2.586   9.863  17.247  0.00  0.00    +0.000 OA
ATOM     15  H   UNL     1       1.994  10.444  16.739  0.00  0.00    +0.000 HD
ENDBRANCH   1  14
BRANCH   1  16
ATOM     16  C   UNL     1       0.935   9.527  18.917  0.00  0.00    +0.000 C 
ATOM     17  C   UNL     1       0.231  10.098  19.855  0.00  0.00    +0.000 C 
BRANCH  17  18
ATOM     18  C   UNL     1      -0.517  10.734  20.892  0.00  0.00    +0.000 A 
ATOM     19  C   UNL     1      -1.380  11.769  20.620  0.00  0.00    +0.000 A 
ATOM     20  N   UNL     1      -2.083  12.422  21.572  0.00  0.00    +0.000 NA
ATOM     21  C   UNL     1      -1.891  12.014  22.825  0.00  0.00    +0.000 A 
ATOM     22  N   UNL     1      -2.594  12.669  23.821  0.00  0.00    +0.000 N 
ATOM     23  N   UNL     1      -1.108  10.998  23.197  0.00  0.00    +0.000 NA
ATOM     24  C   UNL     1      -0.418  10.375  22.227  0.00  0.00    +0.000 A 
ATOM     25  H   UNL     1      -3.428  13.085  23.431  0.00  0.00    +0.000 HD
ATOM     26  H   UNL     1      -2.709  12.058  24.615  0.00  0.00    +0.000 HD
BRANCH  24  27
ATOM     27  N   UNL     1       0.358   9.289  22.644  0.00  0.00    +0.000 N 
ATOM     28  H   UNL     1       0.818   9.546  23.513  0.00  0.00    +0.000 HD
ATOM     29  H   UNL     1       1.009   8.983  21.931  0.00  0.00    +0.000 HD
ENDBRANCH  24  27
ENDBRANCH  17  18
ENDBRANCH   1  16
TORSDOF 8
ENDMDL
MODEL 5
REMARK VINA RESULT:      -6.6      5.104      9.507
REMARK  Name = 
REMARK  11 active torsions:
REMARK  status: ('A' for Active; 'I' for Inactive)
REMARK    1  A    between atoms: C_1  and  O_2
REMARK    2  A    between atoms: O_2  and  C_3
REMARK    3  A    between atoms: C_5  and  C_6
REMARK    4  A    between atoms: C_6  and  O_7
REMARK    5  A    between atoms: C_6  and  C_8
REMARK    6  A    between atoms: C_9  and  C_10
REMARK    7  A    between atoms: C_16  and  N_17
REMARK    8  A    between atoms: C_19  and  O_20
REMARK    9  A    between atoms: O_20  and  C_21
REMARK   10  A    between atoms: C_22  and  O_23
REMARK   11  A    between atoms: O_23  and  C_24
REMARK                            x       y       z     vdW  Elec       q    Type
REMARK                         _______ _______ _______ _____ _____    ______ ____
ROOT
ATOM      1  C   UNL     1       0.985  10.800  18.839  0.00  0.00    +0.000 C 
ENDROOT
BRANCH   1   4
ATOM      2  C   UNL     1      -2.738  11.651  19.160  0.00  0.00    +0.000 A 
ATOM      3  C   UNL     1      -1.382  11.468  19.474  0.00  0.00    +0.000 A 
ATOM      4  C   UNL     1      -0.517  10.756  18.640  0.00  0.00    +0.000 A 
ATOM      5  C   UNL     1      -1.080  10.122  17.530  0.00  0.00    +0.000 A 
ATOM      6  C   UNL     1      -2.456  10.193  17.251  0.00  0.00    +0.000 A 
ATOM      7  C   UNL     1      -3.311  10.967  18.069  0.00  0.00    +0.000 A 
BRANCH   2   9
ATOM      8  C   UNL     1      -2.921  12.822  21.209  0.00  0.00    +0.000 C 
ATOM      9  O   UNL     1      -3.491  12.496  19.935  0.00  0.00    +0.000 OA
ENDBRANCH   2   9
BRANCH   6  10
ATOM     10  O   UNL     1      -2.765   9.474  16.121  0.00  0.00    +0.000 OA
ATOM     11  C   UNL     1      -2.942  10.146  14.886  0.00  0.00    +0.000 C 
ENDBRANCH   6  10
BRANCH   7  12
ATOM     12  O   UNL     1      -4.630  10.978  17.713  0.00  0.00    +0.000 OA
ATOM     13  C   UNL     1      -5.197  12.069  17.010  0.00  0.00    +0.000 C 
ENDBRANCH   7  12
ENDBRANCH   1   4
BRANCH   1  14
ATOM     14  O   UNL     1       1.610  11.614  17.854  0.00  0.00    +0.000 OA
ATOM     15  H   UNL     1       0.952  12.282  17.599  0.00  0.00    +0.000 HD
ENDBRANCH   1  14
BRANCH   1  16
ATOM     16  C   UNL     1       1.629   9.424  18.767  0.00  0.00    +0.000 C 
ATOM     17  C   UNL     1       2.183   8.245  18.705  0.00  0.00    +0.000 C 
BRANCH  17  18
ATOM     18  C   UNL     1       2.812   6.965  18.644  0.00  0.00    +0.000 A 
ATOM     19  C   UNL     1       3.628   6.618  17.594  0.00  0.00    +0.000 A 
ATOM     20  N   UNL     1       4.218   5.408  17.477  0.00  0.00    +0.000 NA
ATOM     21  C   UNL     1       3.959   4.534  18.448  0.00  0.00    +0.000 A 
ATOM     22  N   UNL     1       4.546   3.285  18.352  0.00  0.00    +0.000 N 
ATOM     23  N   UNL     1       3.214   4.778  19.530  0.00  0.00    +0.000 NA
ATOM     24  C   UNL     1       2.637   5.988  19.611  0.00  0.00    +0.000 A 
ATOM     25  H   UNL     1       5.379   3.344  17.784  0.00  0.00    +0.000 HD
ATOM     26  H   UNL     1       4.639   2.880  19.271  0.00  0.00    +0.000 HD
BRANCH  24  27
ATOM     27  N   UNL     1       1.900   6.225  20.776  0.00  0.00    +0.000 N 
ATOM     28  H   UNL     1       2.386   6.934  21.318  0.00  0.00    +0.000 HD
ATOM     29  H   UNL     1       1.729   5.376  21.304  0.00  0.00    +0.000 HD
ENDBRANCH  24  27
ENDBRANCH  17  18
ENDBRANCH   1  16
TORSDOF 8
ENDMDL
MODEL 6
REMARK VINA RESULT:      -6.6      5.043      9.493
REMARK  Name = 
REMARK  11 active torsions:
REMARK  status: ('A' for Active; 'I' for Inactive)
REMARK    1  A    between atoms: C_1  and  O_2
REMARK    2  A    between atoms: O_2  and  C_3
REMARK    3  A    between atoms: C_5  and  C_6
REMARK    4  A    between atoms: C_6  and  O_7
REMARK    5  A    between atoms: C_6  and  C_8
REMARK    6  A    between atoms: C_9  and  C_10
REMARK    7  A    between atoms: C_16  and  N_17
REMARK    8  A    between atoms: C_19  and  O_20
REMARK    9  A    between atoms: O_20  and  C_21
REMARK   10  A    between atoms: C_22  and  O_23
REMARK   11  A    between atoms: O_23  and  C_24
REMARK                            x       y       z     vdW  Elec       q    Type
REMARK                         _______ _______ _______ _____ _____    ______ ____
ROOT
ATOM      1  C   UNL     1       0.310  10.284  17.876  0.00  0.00    +0.000 C 
ENDROOT
BRANCH   1   4
ATOM      2  C   UNL     1      -1.625  12.411  20.411  0.00  0.00    +0.000 A 
ATOM      3  C   UNL     1      -1.064  11.955  19.206  0.00  0.00    +0.000 A 
ATOM      4  C   UNL     1      -0.083  10.962  19.174  0.00  0.00    +0.000 A 
ATOM      5  C   UNL     1       0.413  10.516  20.401  0.00  0.00    +0.000 A 
ATOM      6  C   UNL     1      -0.048  11.036  21.624  0.00  0.00    +0.000 A 
ATOM      7  C   UNL     1      -1.084  11.997  21.644  0.00  0.00    +0.000 A 
BRANCH   2   9
ATOM      8  C   UNL     1      -3.944  12.659  20.006  0.00  0.00    +0.000 C 
ATOM      9  O   UNL     1      -2.696  13.267  20.362  0.00  0.00    +0.000 OA
ENDBRANCH   2   9
BRANCH   6  10
ATOM     10  O   UNL     1       0.606  10.452  22.682  0.00  0.00    +0.000 OA
ATOM     11  C   UNL     1      -0.004   9.383  23.384  0.00  0.00    +0.000 C 
ENDBRANCH   6  10
BRANCH   7  12
ATOM     12  O   UNL     1      -1.468  12.436  22.881  0.00  0.00    +0.000 OA
ATOM     13  C   UNL     1      -2.687  12.016  23.468  0.00  0.00    +0.000 C 
ENDBRANCH   7  12
ENDBRANCH   1   4
BRANCH   1  14
ATOM     14  O   UNL     1      -0.830   9.770  17.200  0.00  0.00    +0.000 OA
ATOM     15  H   UNL     1      -0.622   9.810  16.251  0.00  0.00    +0.000 HD
ENDBRANCH   1  14
BRANCH   1  16
ATOM     16  C   UNL     1       1.274   9.127  18.085  0.00  0.00    +0.000 C 
ATOM     17  C   UNL     1       2.101   8.135  18.266  0.00  0.00    +0.000 C 
BRANCH  17  18
ATOM     18  C   UNL     1       2.994   7.042  18.486  0.00  0.00    +0.000 A 
ATOM     19  C   UNL     1       3.997   6.746  17.594  0.00  0.00    +0.000 A 
ATOM     20  N   UNL     1       4.843   5.704  17.745  0.00  0.00    +0.000 NA
ATOM     21  C   UNL     1       4.653   4.946  18.823  0.00  0.00    +0.000 A 
ATOM     22  N   UNL     1       5.503   3.868  19.000  0.00  0.00    +0.000 N 
ATOM     23  N   UNL     1       3.737   5.164  19.771  0.00  0.00    +0.000 NA
ATOM     24  C   UNL     1       2.907   6.204  19.587  0.00  0.00    +0.000 A 
ATOM     25  H   UNL     1       6.371   4.036  18.513  0.00  0.00    +0.000 HD
ATOM     26  H   UNL     1       5.559   3.635  19.980  0.00  0.00    +0.000 HD
BRANCH  24  27
ATOM     27  N   UNL     1       1.990   6.429  20.618  0.00  0.00    +0.000 N 
ATOM     28  H   UNL     1       1.564   7.340  20.467  0.00  0.00    +0.000 HD
ATOM     29  H   UNL     1       2.410   6.339  21.536  0.00  0.00    +0.000 HD
ENDBRANCH  24  27
ENDBRANCH  17  18
ENDBRANCH   1  16
TORSDOF 8
ENDMDL
MODEL 7
REMARK VINA RESULT:      -6.6      3.081      4.979
REMARK  Name = 
REMARK  11 active torsions:
REMARK  status: ('A' for Active; 'I' for Inactive)
REMARK    1  A    between atoms: C_1  and  O_2
REMARK    2  A    between atoms: O_2  and  C_3
REMARK    3  A    between atoms: C_5  and  C_6
REMARK    4  A    between atoms: C_6  and  O_7
REMARK    5  A    between atoms: C_6  and  C_8
REMARK    6  A    between atoms: C_9  and  C_10
REMARK    7  A    between atoms: C_16  and  N_17
REMARK    8  A    between atoms: C_19  and  O_20
REMARK    9  A    between atoms: O_20  and  C_21
REMARK   10  A    between atoms: C_22  and  O_23
REMARK   11  A    between atoms: O_23  and  C_24
REMARK                            x       y       z     vdW  Elec       q    Type
REMARK                         _______ _______ _______ _____ _____    ______ ____
ROOT
ATOM      1  C   UNL     1       2.832   7.173  17.919  0.00  0.00    +0.000 C 
ENDROOT
BRANCH   1   4
ATOM      2  C   UNL     1       2.922   3.596  19.291  0.00  0.00    +0.000 A 
ATOM      3  C   UNL     1       2.476   4.887  18.968  0.00  0.00    +0.000 A 
ATOM      4  C   UNL     1       3.349   5.885  18.527  0.00  0.00    +0.000 A 
ATOM      5  C   UNL     1       4.713   5.586  18.534  0.00  0.00    +0.000 A 
ATOM      6  C   UNL     1       5.200   4.337  18.960  0.00  0.00    +0.000 A 
ATOM      7  C   UNL     1       4.302   3.316  19.346  0.00  0.00    +0.000 A 
BRANCH   2   9
ATOM      8  C   UNL     1       1.270   2.791  20.783  0.00  0.00    +0.000 C 
ATOM      9  O   UNL     1       1.994   2.620  19.558  0.00  0.00    +0.000 OA
ENDBRANCH   2   9
BRANCH   6  10
ATOM     10  O   UNL     1       6.572   4.296  18.892  0.00  0.00    +0.000 OA
ATOM     11  C   UNL     1       7.228   4.654  17.688  0.00  0.00    +0.000 C 
ENDBRANCH   6  10
BRANCH   7  12
ATOM     12  O   UNL     1       4.871   2.137  19.739  0.00  0.00    +0.000 OA
ATOM     13  C   UNL     1       4.811   1.700  21.084  0.00  0.00    +0.000 C 
ENDBRANCH   7  12
ENDBRANCH   1   4
BRANCH   1  14
ATOM     14  O   UNL     1       3.899   7.968  17.415  0.00  0.00    +0.000 OA
ATOM     15  H   UNL     1       3.565   8.881  17.386  0.00  0.00    +0.000 HD
ENDBRANCH   1  14
BRANCH   1  16
ATOM     16  C   UNL     1       2.062   8.026  18.916  0.00  0.00    +0.000 C 
ATOM     17  C   UNL     1       1.401   8.758  19.769  0.00  0.00    +0.000 C 
BRANCH  17  18
ATOM     18  C   UNL     1       0.656   9.556  20.689  0.00  0.00    +0.000 A 
ATOM     19  C   UNL     1       0.856   9.460  22.046  0.00  0.00    +0.000 A 
ATOM     20  N   UNL     1       0.152  10.170  22.954  0.00  0.00    +0.000 NA
ATOM     21  C   UNL     1      -0.780  10.986  22.466  0.00  0.00    +0.000 A 
ATOM     22  N   UNL     1      -1.520  11.722  23.374  0.00  0.00    +0.000 N 
ATOM     23  N   UNL     1      -1.032  11.185  21.169  0.00  0.00    +0.000 NA
ATOM     24  C   UNL     1      -0.319  10.458  20.293  0.00  0.00    +0.000 A 
ATOM     25  H   UNL     1      -0.995  11.831  24.230  0.00  0.00    +0.000 HD
ATOM     26  H   UNL     1      -1.866  12.560  22.933  0.00  0.00    +0.000 HD
BRANCH  24  27
ATOM     27  N   UNL     1      -0.577  10.722  18.944  0.00  0.00    +0.000 N 
ATOM     28  H   UNL     1      -0.042  10.063  18.386  0.00  0.00    +0.000 HD
ATOM     29  H   UNL     1      -0.390  11.687  18.697  0.00  0.00    +0.000 HD
ENDBRANCH  24  27
ENDBRANCH  17  18
ENDBRANCH   1  16
TORSDOF 8
ENDMDL
MODEL 8
REMARK VINA RESULT:      -6.6      5.068      9.548
REMARK  Name = 
REMARK  11 active torsions:
REMARK  status: ('A' for Active; 'I' for Inactive)
REMARK    1  A    between atoms: C_1  and  O_2
REMARK    2  A    between atoms: O_2  and  C_3
REMARK    3  A    between atoms: C_5  and  C_6
REMARK    4  A    between atoms: C_6  and  O_7
REMARK    5  A    between atoms: C_6  and  C_8
REMARK    6  A    between atoms: C_9  and  C_10
REMARK    7  A    between atoms: C_16  and  N_17
REMARK    8  A    between atoms: C_19  and  O_20
REMARK    9  A    between atoms: O_20  and  C_21
REMARK   10  A    between atoms: C_22  and  O_23
REMARK   11  A    between atoms: O_23  and  C_24
REMARK                            x       y       z     vdW  Elec       q    Type
REMARK                         _______ _______ _______ _____ _____    ______ ____
ROOT
ATOM      1  C   UNL     1       0.170  10.241  18.011  0.00  0.00    +0.000 C 
ENDROOT
BRANCH   1   4
ATOM      2  C   UNL     1      -0.262  10.707  21.791  0.00  0.00    +0.000 A 
ATOM      3  C   UNL     1       0.073  10.147  20.548  0.00  0.00    +0.000 A 
ATOM      4  C   UNL     1      -0.410  10.669  19.345  0.00  0.00    +0.000 A 
ATOM      5  C   UNL     1      -1.343  11.704  19.429  0.00  0.00    +0.000 A 
ATOM      6  C   UNL     1      -1.783  12.211  20.664  0.00  0.00    +0.000 A 
ATOM      7  C   UNL     1      -1.242  11.716  21.872  0.00  0.00    +0.000 A 
BRANCH   2   9
ATOM      8  C   UNL     1       1.341   9.216  22.693  0.00  0.00    +0.000 C 
ATOM      9  O   UNL     1       0.375  10.250  22.918  0.00  0.00    +0.000 OA
ENDBRANCH   2   9
BRANCH   6  10
ATOM     10  O   UNL     1      -2.712  13.208  20.482  0.00  0.00    +0.000 OA
ATOM     11  C   UNL     1      -4.094  12.892  20.489  0.00  0.00    +0.000 C 
ENDBRANCH   6  10
BRANCH   7  12
ATOM     12  O   UNL     1      -1.729  12.276  23.020  0.00  0.00    +0.000 OA
ATOM     13  C   UNL     1      -1.329  13.568  23.439  0.00  0.00    +0.000 C 
ENDBRANCH   7  12
ENDBRANCH   1   4
BRANCH   1  14
ATOM     14  O   UNL     1      -0.849   9.780  17.133  0.00  0.00    +0.000 OA
ATOM     15  H   UNL     1      -0.852   8.810  17.209  0.00  0.00    +0.000 HD
ENDBRANCH   1  14
BRANCH   1  16
ATOM     16  C   UNL     1       1.194   9.124  18.145  0.00  0.00    +0.000 C 
ATOM     17  C   UNL     1       2.071   8.167  18.261  0.00  0.00    +0.000 C 
BRANCH  17  18
ATOM     18  C   UNL     1       3.019   7.110  18.410  0.00  0.00    +0.000 A 
ATOM     19  C   UNL     1       4.010   6.900  17.480  0.00  0.00    +0.000 A 
ATOM     20  N   UNL     1       4.908   5.894  17.563  0.00  0.00    +0.000 NA
ATOM     21  C   UNL     1       4.783   5.082  18.611  0.00  0.00    +0.000 A 
ATOM     22  N   UNL     1       5.686   4.039  18.718  0.00  0.00    +0.000 N 
ATOM     23  N   UNL     1       3.884   5.215  19.590  0.00  0.00    +0.000 NA
ATOM     24  C   UNL     1       3.002   6.221  19.474  0.00  0.00    +0.000 A 
ATOM     25  H   UNL     1       6.532   4.269  18.216  0.00  0.00    +0.000 HD
ATOM     26  H   UNL     1       5.780   3.766  19.684  0.00  0.00    +0.000 HD
BRANCH  24  27
ATOM     27  N   UNL     1       2.104   6.358  20.537  0.00  0.00    +0.000 N 
ATOM     28  H   UNL     1       1.486   7.137  20.329  0.00  0.00    +0.000 HD
ATOM     29  H   UNL     1       2.575   6.458  21.430  0.00  0.00    +0.000 HD
ENDBRANCH  24  27
ENDBRANCH  17  18
ENDBRANCH   1  16
TORSDOF 8
ENDMDL
MODEL 9
REMARK VINA RESULT:      -6.6      3.113      4.910
REMARK  Name = 
REMARK  11 active torsions:
REMARK  status: ('A' for Active; 'I' for Inactive)
REMARK    1  A    between atoms: C_1  and  O_2
REMARK    2  A    between atoms: O_2  and  C_3
REMARK    3  A    between atoms: C_5  and  C_6
REMARK    4  A    between atoms: C_6  and  O_7
REMARK    5  A    between atoms: C_6  and  C_8
REMARK    6  A    between atoms: C_9  and  C_10
REMARK    7  A    between atoms: C_16  and  N_17
REMARK    8  A    between atoms: C_19  and  O_20
REMARK    9  A    between atoms: O_20  and  C_21
REMARK   10  A    between atoms: C_22  and  O_23
REMARK   11  A    between atoms: O_23  and  C_24
REMARK                            x       y       z     vdW  Elec       q    Type
REMARK                         _______ _______ _______ _____ _____    ______ ____
ROOT
ATOM      1  C   UNL     1       2.692   7.184  17.965  0.00  0.00    +0.000 C 
ENDROOT
BRANCH   1   4
ATOM      2  C   UNL     1       2.820   3.756  19.676  0.00  0.00    +0.000 A 
ATOM      3  C   UNL     1       2.375   5.022  19.260  0.00  0.00    +0.000 A 
ATOM      4  C   UNL     1       3.230   5.947  18.656  0.00  0.00    +0.000 A 
ATOM      5  C   UNL     1       4.584   5.612  18.587  0.00  0.00    +0.000 A 
ATOM      6  C   UNL     1       5.078   4.399  19.098  0.00  0.00    +0.000 A 
ATOM      7  C   UNL     1       4.194   3.445  19.652  0.00  0.00    +0.000 A 
BRANCH   2   9
ATOM      8  C   UNL     1       1.623   2.870  21.516  0.00  0.00    +0.000 C 
ATOM      9  O   UNL     1       1.896   2.838  20.110  0.00  0.00    +0.000 OA
ENDBRANCH   2   9
BRANCH   6  10
ATOM     10  O   UNL     1       6.440   4.313  18.929  0.00  0.00    +0.000 OA
ATOM     11  C   UNL     1       7.017   4.663  17.683  0.00  0.00    +0.000 C 
ENDBRANCH   6  10
BRANCH   7  12
ATOM     12  O   UNL     1       4.768   2.295  20.115  0.00  0.00    +0.000 OA
ATOM     13  C   UNL     1       4.631   1.069  19.420  0.00  0.00    +0.000 C 
ENDBRANCH   7  12
ENDBRANCH   1   4
BRANCH   1  14
ATOM     14  O   UNL     1       3.744   7.944  17.381  0.00  0.00    +0.000 OA
ATOM     15  H   UNL     1       3.384   8.836  17.237  0.00  0.00    +0.000 HD
ENDBRANCH   1  14
BRANCH   1  16
ATOM     16  C   UNL     1       1.936   8.104  18.910  0.00  0.00    +0.000 C 
ATOM     17  C   UNL     1       1.287   8.894  19.720  0.00  0.00    +0.000 C 
BRANCH  17  18
ATOM     18  C   UNL     1       0.558   9.739  20.610  0.00  0.00    +0.000 A 
ATOM     19  C   UNL     1      -0.428  10.581  20.150  0.00  0.00    +0.000 A 
ATOM     20  N   UNL     1      -1.120  11.422  20.949  0.00  0.00    +0.000 NA
ATOM     21  C   UNL     1      -0.792  11.407  22.240  0.00  0.00    +0.000 A 
ATOM     22  N   UNL     1      -1.483  12.262  23.081  0.00  0.00    +0.000 N 
ATOM     23  N   UNL     1       0.119  10.605  22.798  0.00  0.00    +0.000 NA
ATOM     24  C   UNL     1       0.795   9.787  21.975  0.00  0.00    +0.000 A 
ATOM     25  H   UNL     1      -2.383  12.481  22.678  0.00  0.00    +0.000 HD
ATOM     26  H   UNL     1      -1.473  11.898  24.021  0.00  0.00    +0.000 HD
BRANCH  24  27
ATOM     27  N   UNL     1       1.709   8.931  22.597  0.00  0.00    +0.000 N 
ATOM     28  H   UNL     1       1.969   9.342  23.489  0.00  0.00    +0.000 HD
ATOM     29  H   UNL     1       2.510   8.730  22.009  0.00  0.00    +0.000 HD
ENDBRANCH  24  27
ENDBRANCH  17  18
ENDBRANCH   1  16
TORSDOF 8
ENDMDL
