MODEL 1
REMARK VINA RESULT:      -7.5      0.000      0.000
REMARK  Name = 
REMARK  8 active torsions:
REMARK  status: ('A' for Active; 'I' for Inactive)
REMARK    1  A    between atoms: C_1  and  O_2
REMARK    2  A    between atoms: O_2  and  C_3
REMARK    3  A    between atoms: C_6  and  C_7
REMARK    4  A    between atoms: C_7  and  N_8
REMARK    5  A    between atoms: C_14  and  O_15
REMARK    6  A    between atoms: O_15  and  C_16
REMARK    7  A    between atoms: C_17  and  O_18
REMARK    8  A    between atoms: O_18  and  C_19
REMARK                            x       y       z     vdW  Elec       q    Type
REMARK                         _______ _______ _______ _____ _____    ______ ____
ROOT
ATOM      1  N   UNL     1       1.308   9.466  19.488  0.00  0.00    +0.000 N 
ATOM      2  C   UNL     1       0.813   8.819  20.603  0.00  0.00    +0.000 A 
ATOM      3  O   UNL     1      -0.291   9.030  21.099  0.00  0.00    +0.000 OA
ATOM      4  N   UNL     1       1.606   7.800  21.084  0.00  0.00    +0.000 N 
ATOM      5  C   UNL     1       2.121   6.894  20.149  0.00  0.00    +0.000 A 
ATOM      6  C   UNL     1       2.460   5.613  20.571  0.00  0.00    +0.000 A 
ATOM      7  C   UNL     1       2.759   4.621  19.636  0.00  0.00    +0.000 A 
ATOM      8  C   UNL     1       2.692   4.921  18.261  0.00  0.00    +0.000 A 
ATOM      9  C   UNL     1       2.442   6.250  17.848  0.00  0.00    +0.000 A 
ATOM     10  C   UNL     1       2.159   7.244  18.804  0.00  0.00    +0.000 A 
ATOM     11  C   UNL     1       1.915   8.693  18.486  0.00  0.00    +0.000 A 
ATOM     12  O   UNL     1       2.221   9.117  17.375  0.00  0.00    +0.000 OA
ATOM     13  H   UNL     1       2.340   8.150  21.692  0.00  0.00    +0.000 HD
ENDROOT
BRANCH   7  14
ATOM     14  O   UNL     1       2.995   3.400  20.216  0.00  0.00    +0.000 OA
ATOM     15  C   UNL     1       1.897   2.729  20.825  0.00  0.00    +0.000 C 
ENDBRANCH   7  14
BRANCH   8  16
ATOM     16  O   UNL     1       2.925   3.900  17.378  0.00  0.00    +0.000 OA
ATOM     17  C   UNL     1       4.269   3.693  16.961  0.00  0.00    +0.000 C 
ENDBRANCH   8  16
BRANCH   1  18
ATOM     18  C   UNL     1       0.674  10.748  19.136  0.00  0.00    +0.000 C 
BRANCH  18  22
ATOM     19  C   UNL     1      -3.357  10.879  17.442  0.00  0.00    +0.000 A 
ATOM     20  C   UNL     1      -3.002  11.662  18.547  0.00  0.00    +0.000 A 
ATOM     21  C   UNL     1      -1.722  11.594  19.129  0.00  0.00    +0.000 A 
ATOM     22  C   UNL     1      -0.772  10.692  18.643  0.00  0.00    +0.000 A 
ATOM     23  C   UNL     1      -1.140   9.878  17.547  0.00  0.00    +0.000 A 
ATOM     24  C   UNL     1      -2.429   9.962  16.957  0.00  0.00    +0.000 A 
BRANCH  19  26
ATOM     25  C   UNL     1      -5.649  11.218  17.997  0.00  0.00    +0.000 C 
ATOM     26  O   UNL     1      -4.640  11.039  17.004  0.00  0.00    +0.000 OA
ENDBRANCH  19  26
ENDBRANCH  18  22
ENDBRANCH   1  18
TORSDOF 5
ENDMDL
MODEL 2
REMARK VINA RESULT:      -7.3      0.354      1.022
REMARK  Name = 
REMARK  8 active torsions:
REMARK  status: ('A' for Active; 'I' for Inactive)
REMARK    1  A    between atoms: C_1  and  O_2
REMARK    2  A    between atoms: O_2  and  C_3
REMARK    3  A    between atoms: C_6  and  C_7
REMARK    4  A    between atoms: C_7  and  N_8
REMARK    5  A    between atoms: C_14  and  O_15
REMARK    6  A    between atoms: O_15  and  C_16
REMARK    7  A    between atoms: C_17  and  O_18
REMARK    8  A    between atoms: O_18  and  C_19
REMARK                            x       y       z     vdW  Elec       q    Type
REMARK                         _______ _______ _______ _____ _____    ______ ____
ROOT
ATOM      1  N   UNL     1       1.395   9.535  19.491  0.00  0.00    +0.000 N 
ATOM      2  C   UNL     1       0.808   8.958  20.600  0.00  0.00    +0.000 A 
ATOM      3  O   UNL     1      -0.288   9.277  21.053  0.00  0.00    +0.000 OA
ATOM      4  N   UNL     1       1.492   7.885  21.128  0.00  0.00    +0.000 N 
ATOM      5  C   UNL     1       1.956   6.917  20.229  0.00  0.00    +0.000 A 
ATOM      6  C   UNL     1       2.167   5.620  20.688  0.00  0.00    +0.000 A 
ATOM      7  C   UNL     1       2.407   4.585  19.783  0.00  0.00    +0.000 A 
ATOM      8  C   UNL     1       2.413   4.859  18.401  0.00  0.00    +0.000 A 
ATOM      9  C   UNL     1       2.295   6.196  17.954  0.00  0.00    +0.000 A 
ATOM     10  C   UNL     1       2.070   7.232  18.880  0.00  0.00    +0.000 A 
ATOM     11  C   UNL     1       1.965   8.689  18.526  0.00  0.00    +0.000 A 
ATOM     12  O   UNL     1       2.344   9.060  17.418  0.00  0.00    +0.000 OA
ATOM     13  H   UNL     1       2.234   8.183  21.755  0.00  0.00    +0.000 HD
ENDROOT
BRANCH   7  14
ATOM     14  O   UNL     1       2.515   3.362  20.395  0.00  0.00    +0.000 OA
ATOM     15  C   UNL     1       1.393   2.882  21.125  0.00  0.00    +0.000 C 
ENDBRANCH   7  14
BRANCH   8  16
ATOM     16  O   UNL     1       2.584   3.802  17.547  0.00  0.00    +0.000 OA
ATOM     17  C   UNL     1       3.910   3.518  17.120  0.00  0.00    +0.000 C 
ENDBRANCH   8  16
BRANCH   1  18
ATOM     18  C   UNL     1       0.889  10.859  19.092  0.00  0.00    +0.000 C 
BRANCH  18  22
ATOM     19  C   UNL     1      -3.307  10.769  17.860  0.00  0.00    +0.000 A 
ATOM     20  C   UNL     1      -2.362   9.897  17.304  0.00  0.00    +0.000 A 
ATOM     21  C   UNL     1      -1.001   9.949  17.659  0.00  0.00    +0.000 A 
ATOM     22  C   UNL     1      -0.540  10.919  18.552  0.00  0.00    +0.000 A 
ATOM     23  C   UNL     1      -1.488  11.820  19.091  0.00  0.00    +0.000 A 
ATOM     24  C   UNL     1      -2.862  11.753  18.738  0.00  0.00    +0.000 A 
BRANCH  19  26
ATOM     25  C   UNL     1      -5.453  11.741  17.502  0.00  0.00    +0.000 C 
ATOM     26  O   UNL     1      -4.583  10.613  17.401  0.00  0.00    +0.000 OA
ENDBRANCH  19  26
ENDBRANCH  18  22
ENDBRANCH   1  18
TORSDOF 5
ENDMDL
MODEL 3
REMARK VINA RESULT:      -7.1      4.287      8.610
REMARK  Name = 
REMARK  8 active torsions:
REMARK  status: ('A' for Active; 'I' for Inactive)
REMARK    1  A    between atoms: C_1  and  O_2
REMARK    2  A    between atoms: O_2  and  C_3
REMARK    3  A    between atoms: C_6  and  C_7
REMARK    4  A    between atoms: C_7  and  N_8
REMARK    5  A    between atoms: C_14  and  O_15
REMARK    6  A    between atoms: O_15  and  C_16
REMARK    7  A    between atoms: C_17  and  O_18
REMARK    8  A    between atoms: O_18  and  C_19
REMARK                            x       y       z     vdW  Elec       q    Type
REMARK                         _______ _______ _______ _____ _____    ______ ____
ROOT
ATOM      1  N   UNL     1       5.809   5.223  16.973  0.00  0.00    +0.000 N 
ATOM      2  C   UNL     1       6.302   4.390  17.960  0.00  0.00    +0.000 A 
ATOM      3  O   UNL     1       7.478   4.347  18.311  0.00  0.00    +0.000 OA
ATOM      4  N   UNL     1       5.348   3.664  18.636  0.00  0.00    +0.000 N 
ATOM      5  C   UNL     1       4.204   4.349  19.065  0.00  0.00    +0.000 A 
ATOM      6  C   UNL     1       3.491   3.852  20.151  0.00  0.00    +0.000 A 
ATOM      7  C   UNL     1       2.490   4.623  20.745  0.00  0.00    +0.000 A 
ATOM      8  C   UNL     1       2.222   5.914  20.250  0.00  0.00    +0.000 A 
ATOM      9  C   UNL     1       2.886   6.367  19.087  0.00  0.00    +0.000 A 
ATOM     10  C   UNL     1       3.882   5.573  18.489  0.00  0.00    +0.000 A 
ATOM     11  C   UNL     1       4.627   5.933  17.233  0.00  0.00    +0.000 A 
ATOM     12  O   UNL     1       4.193   6.837  16.525  0.00  0.00    +0.000 OA
ATOM     13  H   UNL     1       5.096   2.816  18.136  0.00  0.00    +0.000 HD
ENDROOT
BRANCH   7  14
ATOM     14  O   UNL     1       1.941   4.018  21.848  0.00  0.00    +0.000 OA
ATOM     15  C   UNL     1       1.688   2.619  21.783  0.00  0.00    +0.000 C 
ENDBRANCH   7  14
BRANCH   8  16
ATOM     16  O   UNL     1       1.280   6.661  20.906  0.00  0.00    +0.000 OA
ATOM     17  C   UNL     1       1.418   8.075  20.855  0.00  0.00    +0.000 C 
ENDBRANCH   8  16
BRANCH   1  18
ATOM     18  C   UNL     1       6.792   5.766  16.020  0.00  0.00    +0.000 C 
BRANCH  18  22
ATOM     19  C   UNL     1       7.031   3.818  12.111  0.00  0.00    +0.000 A 
ATOM     20  C   UNL     1       6.223   3.308  13.135  0.00  0.00    +0.000 A 
ATOM     21  C   UNL     1       6.174   3.899  14.411  0.00  0.00    +0.000 A 
ATOM     22  C   UNL     1       6.981   5.000  14.711  0.00  0.00    +0.000 A 
ATOM     23  C   UNL     1       7.820   5.497  13.687  0.00  0.00    +0.000 A 
ATOM     24  C   UNL     1       7.854   4.903  12.398  0.00  0.00    +0.000 A 
BRANCH  19  26
ATOM     25  C   UNL     1       7.127   1.705  11.014  0.00  0.00    +0.000 C 
ATOM     26  O   UNL     1       6.989   3.124  10.936  0.00  0.00    +0.000 OA
ENDBRANCH  19  26
ENDBRANCH  18  22
ENDBRANCH   1  18
TORSDOF 5
ENDMDL
MODEL 4
REMARK VINA RESULT:      -7.0      2.479      4.078
REMARK  Name = 
REMARK  8 active torsions:
REMARK  status: ('A' for Active; 'I' for Inactive)
REMARK    1  A    between atoms: C_1  and  O_2
REMARK    2  A    between atoms: O_2  and  C_3
REMARK    3  A    between atoms: C_6  and  C_7
REMARK    4  A    between atoms: C_7  and  N_8
REMARK    5  A    between atoms: C_14  and  O_15
REMARK    6  A    between atoms: O_15  and  C_16
REMARK    7  A    between atoms: C_17  and  O_18
REMARK    8  A    between atoms: O_18  and  C_19
REMARK                            x       y       z     vdW  Elec       q    Type
REMARK                         _______ _______ _______ _____ _____    ______ ____
ROOT
ATOM      1  N   UNL     1       1.356   9.373  19.496  0.00  0.00    +0.000 N 
ATOM      2  C   UNL     1       0.833   8.767  20.622  0.00  0.00    +0.000 A 
ATOM      3  O   UNL     1      -0.270   9.020  21.100  0.00  0.00    +0.000 OA
ATOM      4  N   UNL     1       1.594   7.741  21.136  0.00  0.00    +0.000 N 
ATOM      5  C   UNL     1       2.096   6.798  20.230  0.00  0.00    +0.000 A 
ATOM      6  C   UNL     1       2.397   5.520  20.689  0.00  0.00    +0.000 A 
ATOM      7  C   UNL     1       2.678   4.497  19.782  0.00  0.00    +0.000 A 
ATOM      8  C   UNL     1       2.634   4.763  18.400  0.00  0.00    +0.000 A 
ATOM      9  C   UNL     1       2.423   6.087  17.951  0.00  0.00    +0.000 A 
ATOM     10  C   UNL     1       2.156   7.112  18.878  0.00  0.00    +0.000 A 
ATOM     11  C   UNL     1       1.953   8.559  18.521  0.00  0.00    +0.000 A 
ATOM     12  O   UNL     1       2.281   8.947  17.403  0.00  0.00    +0.000 OA
ATOM     13  H   UNL     1       2.331   8.088  21.744  0.00  0.00    +0.000 HD
ENDROOT
BRANCH   7  14
ATOM     14  O   UNL     1       2.877   3.286  20.396  0.00  0.00    +0.000 OA
ATOM     15  C   UNL     1       1.988   2.918  21.444  0.00  0.00    +0.000 C 
ENDBRANCH   7  14
BRANCH   8  16
ATOM     16  O   UNL     1       2.849   3.714  17.546  0.00  0.00    +0.000 OA
ATOM     17  C   UNL     1       4.176   3.521  17.072  0.00  0.00    +0.000 C 
ENDBRANCH   8  16
BRANCH   1  18
ATOM     18  C   UNL     1       0.759  10.661  19.105  0.00  0.00    +0.000 C 
BRANCH  18  22
ATOM     19  C   UNL     1       2.896  14.455  19.517  0.00  0.00    +0.000 A 
ATOM     20  C   UNL     1       3.016  13.669  18.364  0.00  0.00    +0.000 A 
ATOM     21  C   UNL     1       2.370  12.425  18.240  0.00  0.00    +0.000 A 
ATOM     22  C   UNL     1       1.620  11.909  19.299  0.00  0.00    +0.000 A 
ATOM     23  C   UNL     1       1.523  12.689  20.475  0.00  0.00    +0.000 A 
ATOM     24  C   UNL     1       2.167  13.949  20.589  0.00  0.00    +0.000 A 
BRANCH  19  26
ATOM     25  C   UNL     1       4.448  15.857  18.375  0.00  0.00    +0.000 C 
ATOM     26  O   UNL     1       3.599  15.626  19.499  0.00  0.00    +0.000 OA
ENDBRANCH  19  26
ENDBRANCH  18  22
ENDBRANCH   1  18
TORSDOF 5
ENDMDL
MODEL 5
REMARK VINA RESULT:      -6.9      2.545      4.213
REMARK  Name = 
REMARK  8 active torsions:
REMARK  status: ('A' for Active; 'I' for Inactive)
REMARK    1  A    between atoms: C_1  and  O_2
REMARK    2  A    between atoms: O_2  and  C_3
REMARK    3  A    between atoms: C_6  and  C_7
REMARK    4  A    between atoms: C_7  and  N_8
REMARK    5  A    between atoms: C_14  and  O_15
REMARK    6  A    between atoms: O_15  and  C_16
REMARK    7  A    between atoms: C_17  and  O_18
REMARK    8  A    between atoms: O_18  and  C_19
REMARK                            x       y       z     vdW  Elec       q    Type
REMARK                         _______ _______ _______ _____ _____    ______ ____
ROOT
ATOM      1  N   UNL     1       1.302   9.623  19.399  0.00  0.00    +0.000 N 
ATOM      2  C   UNL     1       0.777   9.008  20.519  0.00  0.00    +0.000 A 
ATOM      3  O   UNL     1      -0.334   9.242  20.986  0.00  0.00    +0.000 OA
ATOM      4  N   UNL     1       1.550   7.994  21.040  0.00  0.00    +0.000 N 
ATOM      5  C   UNL     1       2.076   7.060  20.139  0.00  0.00    +0.000 A 
ATOM      6  C   UNL     1       2.393   5.786  20.599  0.00  0.00    +0.000 A 
ATOM      7  C   UNL     1       2.700   4.769  19.695  0.00  0.00    +0.000 A 
ATOM      8  C   UNL     1       2.665   5.036  18.312  0.00  0.00    +0.000 A 
ATOM      9  C   UNL     1       2.437   6.357  17.862  0.00  0.00    +0.000 A 
ATOM     10  C   UNL     1       2.144   7.376  18.787  0.00  0.00    +0.000 A 
ATOM     11  C   UNL     1       1.922   8.820  18.429  0.00  0.00    +0.000 A 
ATOM     12  O   UNL     1       2.254   9.214  17.315  0.00  0.00    +0.000 OA
ATOM     13  H   UNL     1       2.275   8.352  21.655  0.00  0.00    +0.000 HD
ENDROOT
BRANCH   7  14
ATOM     14  O   UNL     1       2.912   3.560  20.309  0.00  0.00    +0.000 OA
ATOM     15  C   UNL     1       2.214   3.300  21.522  0.00  0.00    +0.000 C 
ENDBRANCH   7  14
BRANCH   8  16
ATOM     16  O   UNL     1       2.905   3.991  17.459  0.00  0.00    +0.000 OA
ATOM     17  C   UNL     1       4.239   3.822  16.995  0.00  0.00    +0.000 C 
ENDBRANCH   8  16
BRANCH   1  18
ATOM     18  C   UNL     1       0.688  10.902  19.003  0.00  0.00    +0.000 C 
BRANCH  18  22
ATOM     19  C   UNL     1       3.379  14.268  19.751  0.00  0.00    +0.000 A 
ATOM     20  C   UNL     1       2.563  13.745  20.762  0.00  0.00    +0.000 A 
ATOM     21  C   UNL     1       1.659  12.693  20.521  0.00  0.00    +0.000 A 
ATOM     22  C   UNL     1       1.515  12.166  19.235  0.00  0.00    +0.000 A 
ATOM     23  C   UNL     1       2.317  12.715  18.207  0.00  0.00    +0.000 A 
ATOM     24  C   UNL     1       3.235  13.767  18.460  0.00  0.00    +0.000 A 
BRANCH  19  26
ATOM     25  C   UNL     1       5.266  14.991  21.015  0.00  0.00    +0.000 C 
ATOM     26  O   UNL     1       4.187  15.301  20.132  0.00  0.00    +0.000 OA
ENDBRANCH  19  26
ENDBRANCH  18  22
ENDBRANCH   1  18
TORSDOF 5
ENDMDL
MODEL 6
REMARK VINA RESULT:      -6.9      3.531      8.156
REMARK  Name = 
REMARK  8 active torsions:
REMARK  status: ('A' for Active; 'I' for Inactive)
REMARK    1  A    between atoms: C_1  and  O_2
REMARK    2  A    between atoms: O_2  and  C_3
REMARK    3  A    between atoms: C_6  and  C_7
REMARK    4  A    between atoms: C_7  and  N_8
REMARK    5  A    between atoms: C_14  and  O_15
REMARK    6  A    between atoms: O_15  and  C_16
REMARK    7  A    between atoms: C_17  and  O_18
REMARK    8  A    between atoms: O_18  and  C_19
REMARK                            x       y       z     vdW  Elec       q    Type
REMARK                         _______ _______ _______ _____ _____    ______ ____
ROOT
ATOM      1  N   UNL     1       5.527   5.624  17.697  0.00  0.00    +0.000 N 
ATOM      2  C   UNL     1       5.525   5.388  19.058  0.00  0.00    +0.000 A 
ATOM      3  O   UNL     1       6.534   5.319  19.755  0.00  0.00    +0.000 OA
ATOM      4  N   UNL     1       4.276   5.348  19.638  0.00  0.00    +0.000 N 
ATOM      5  C   UNL     1       3.374   6.361  19.289  0.00  0.00    +0.000 A 
ATOM      6  C   UNL     1       2.352   6.685  20.175  0.00  0.00    +0.000 A 
ATOM      7  C   UNL     1       1.580   7.830  19.968  0.00  0.00    +0.000 A 
ATOM      8  C   UNL     1       1.858   8.665  18.868  0.00  0.00    +0.000 A 
ATOM      9  C   UNL     1       2.833   8.272  17.923  0.00  0.00    +0.000 A 
ATOM     10  C   UNL     1       3.593   7.106  18.136  0.00  0.00    +0.000 A 
ATOM     11  C   UNL     1       4.628   6.572  17.185  0.00  0.00    +0.000 A 
ATOM     12  O   UNL     1       4.660   7.006  16.037  0.00  0.00    +0.000 OA
ATOM     13  H   UNL     1       3.847   4.432  19.544  0.00  0.00    +0.000 HD
ENDROOT
BRANCH   7  14
ATOM     14  O   UNL     1       0.671   8.044  20.974  0.00  0.00    +0.000 OA
ATOM     15  C   UNL     1       1.062   8.879  22.057  0.00  0.00    +0.000 C 
ENDBRANCH   7  14
BRANCH   8  16
ATOM     16  O   UNL     1       1.121   9.813  18.743  0.00  0.00    +0.000 OA
ATOM     17  C   UNL     1       1.812  10.989  18.340  0.00  0.00    +0.000 C 
ENDBRANCH   8  16
BRANCH   1  18
ATOM     18  C   UNL     1       6.790   5.358  16.986  0.00  0.00    +0.000 C 
BRANCH  18  22
ATOM     19  C   UNL     1       6.198   3.731  12.970  0.00  0.00    +0.000 A 
ATOM     20  C   UNL     1       5.491   3.234  14.072  0.00  0.00    +0.000 A 
ATOM     21  C   UNL     1       5.707   3.718  15.376  0.00  0.00    +0.000 A 
ATOM     22  C   UNL     1       6.684   4.688  15.617  0.00  0.00    +0.000 A 
ATOM     23  C   UNL     1       7.420   5.168  14.508  0.00  0.00    +0.000 A 
ATOM     24  C   UNL     1       7.187   4.684  13.194  0.00  0.00    +0.000 A 
BRANCH  19  26
ATOM     25  C   UNL     1       4.520   3.120  11.392  0.00  0.00    +0.000 C 
ATOM     26  O   UNL     1       5.895   3.147  11.773  0.00  0.00    +0.000 OA
ENDBRANCH  19  26
ENDBRANCH  18  22
ENDBRANCH   1  18
TORSDOF 5
ENDMDL
MODEL 7
REMARK VINA RESULT:      -6.7      1.615      3.026
REMARK  Name = 
REMARK  8 active torsions:
REMARK  status: ('A' for Active; 'I' for Inactive)
REMARK    1  A    between atoms: C_1  and  O_2
REMARK    2  A    between atoms: O_2  and  C_3
REMARK    3  A    between atoms: C_6  and  C_7
REMARK    4  A    between atoms: C_7  and  N_8
REMARK    5  A    between atoms: C_14  and  O_15
REMARK    6  A    between atoms: O_15  and  C_16
REMARK    7  A    between atoms: C_17  and  O_18
REMARK    8  A    between atoms: O_18  and  C_19
REMARK                            x       y       z     vdW  Elec       q    Type
REMARK                         _______ _______ _______ _____ _____    ______ ____
ROOT
ATOM      1  N   UNL     1       1.574   8.609  19.178  0.00  0.00    +0.000 N 
ATOM      2  C   UNL     1       2.374   8.993  18.119  0.00  0.00    +0.000 A 
ATOM      3  O   UNL     1       2.837  10.120  17.969  0.00  0.00    +0.000 OA
ATOM      4  N   UNL     1       2.734   7.974  17.265  0.00  0.00    +0.000 N 
ATOM      5  C   UNL     1       3.183   6.781  17.844  0.00  0.00    +0.000 A 
ATOM      6  C   UNL     1       4.023   5.951  17.108  0.00  0.00    +0.000 A 
ATOM      7  C   UNL     1       4.668   4.879  17.725  0.00  0.00    +0.000 A 
ATOM      8  C   UNL     1       4.481   4.656  19.104  0.00  0.00    +0.000 A 
ATOM      9  C   UNL     1       3.551   5.447  19.818  0.00  0.00    +0.000 A 
ATOM     10  C   UNL     1       2.895   6.515  19.178  0.00  0.00    +0.000 A 
ATOM     11  C   UNL     1       1.863   7.396  19.824  0.00  0.00    +0.000 A 
ATOM     12  O   UNL     1       1.354   7.039  20.883  0.00  0.00    +0.000 OA
ATOM     13  H   UNL     1       2.014   7.792  16.572  0.00  0.00    +0.000 HD
ENDROOT
BRANCH   7  14
ATOM     14  O   UNL     1       5.516   4.212  16.877  0.00  0.00    +0.000 OA
ATOM     15  C   UNL     1       5.935   4.882  15.693  0.00  0.00    +0.000 C 
ENDBRANCH   7  14
BRANCH   8  16
ATOM     16  O   UNL     1       5.188   3.636  19.682  0.00  0.00    +0.000 OA
ATOM     17  C   UNL     1       4.490   2.423  19.938  0.00  0.00    +0.000 C 
ENDBRANCH   8  16
BRANCH   1  18
ATOM     18  C   UNL     1       0.905   9.690  19.923  0.00  0.00    +0.000 C 
BRANCH  18  22
ATOM     19  C   UNL     1      -2.722  11.376  18.153  0.00  0.00    +0.000 A 
ATOM     20  C   UNL     1      -1.977  10.390  17.494  0.00  0.00    +0.000 A 
ATOM     21  C   UNL     1      -0.783   9.874  18.033  0.00  0.00    +0.000 A 
ATOM     22  C   UNL     1      -0.276  10.375  19.234  0.00  0.00    +0.000 A 
ATOM     23  C   UNL     1      -1.012  11.392  19.885  0.00  0.00    +0.000 A 
ATOM     24  C   UNL     1      -2.222  11.898  19.342  0.00  0.00    +0.000 A 
BRANCH  19  26
ATOM     25  C   UNL     1      -4.217  11.070  16.323  0.00  0.00    +0.000 C 
ATOM     26  O   UNL     1      -3.844  11.793  17.496  0.00  0.00    +0.000 OA
ENDBRANCH  19  26
ENDBRANCH  18  22
ENDBRANCH   1  18
TORSDOF 5
ENDMDL
MODEL 8
REMARK VINA RESULT:      -6.7      2.390      3.735
REMARK  Name = 
REMARK  8 active torsions:
REMARK  status: ('A' for Active; 'I' for Inactive)
REMARK    1  A    between atoms: C_1  and  O_2
REMARK    2  A    between atoms: O_2  and  C_3
REMARK    3  A    between atoms: C_6  and  C_7
REMARK    4  A    between atoms: C_7  and  N_8
REMARK    5  A    between atoms: C_14  and  O_15
REMARK    6  A    between atoms: O_15  and  C_16
REMARK    7  A    between atoms: C_17  and  O_18
REMARK    8  A    between atoms: O_18  and  C_19
REMARK                            x       y       z     vdW  Elec       q    Type
REMARK                         _______ _______ _______ _____ _____    ______ ____
ROOT
ATOM      1  N   UNL     1       0.383  10.965  20.078  0.00  0.00    +0.000 N 
ATOM      2  C   UNL     1       1.224  11.287  19.031  0.00  0.00    +0.000 A 
ATOM      3  O   UNL     1       1.869  12.329  18.949  0.00  0.00    +0.000 OA
ATOM      4  N   UNL     1       1.399  10.287  18.099  0.00  0.00    +0.000 N 
ATOM      5  C   UNL     1       1.648   8.997  18.583  0.00  0.00    +0.000 A 
ATOM      6  C   UNL     1       2.327   8.094  17.770  0.00  0.00    +0.000 A 
ATOM      7  C   UNL     1       2.791   6.887  18.296  0.00  0.00    +0.000 A 
ATOM      8  C   UNL     1       2.584   6.599  19.660  0.00  0.00    +0.000 A 
ATOM      9  C   UNL     1       1.808   7.480  20.449  0.00  0.00    +0.000 A 
ATOM     10  C   UNL     1       1.334   8.686  19.900  0.00  0.00    +0.000 A 
ATOM     11  C   UNL     1       0.471   9.678  20.630  0.00  0.00    +0.000 A 
ATOM     12  O   UNL     1      -0.078   9.334  21.673  0.00  0.00    +0.000 OA
ATOM     13  H   UNL     1       0.651  10.279  17.412  0.00  0.00    +0.000 HD
ENDROOT
BRANCH   7  14
ATOM     14  O   UNL     1       3.505   6.152  17.383  0.00  0.00    +0.000 OA
ATOM     15  C   UNL     1       4.845   6.546  17.115  0.00  0.00    +0.000 C 
ENDBRANCH   7  14
BRANCH   8  16
ATOM     16  O   UNL     1       3.116   5.436  20.148  0.00  0.00    +0.000 OA
ATOM     17  C   UNL     1       2.206   4.459  20.638  0.00  0.00    +0.000 C 
ENDBRANCH   8  16
BRANCH   1  18
ATOM     18  C   UNL     1      -0.086  12.086  20.912  0.00  0.00    +0.000 C 
BRANCH  18  22
ATOM     19  C   UNL     1      -4.348  12.836  21.552  0.00  0.00    +0.000 A 
ATOM     20  C   UNL     1      -3.489  12.539  22.618  0.00  0.00    +0.000 A 
ATOM     21  C   UNL     1      -2.125  12.251  22.418  0.00  0.00    +0.000 A 
ATOM     22  C   UNL     1      -1.595  12.202  21.126  0.00  0.00    +0.000 A 
ATOM     23  C   UNL     1      -2.469  12.471  20.048  0.00  0.00    +0.000 A 
ATOM     24  C   UNL     1      -3.840  12.775  20.258  0.00  0.00    +0.000 A 
BRANCH  19  26
ATOM     25  C   UNL     1      -6.639  12.221  21.327  0.00  0.00    +0.000 C 
ATOM     26  O   UNL     1      -5.647  13.072  21.901  0.00  0.00    +0.000 OA
ENDBRANCH  19  26
ENDBRANCH  18  22
ENDBRANCH   1  18
TORSDOF 5
ENDMDL
MODEL 9
REMARK VINA RESULT:      -6.6      1.844      3.275
REMARK  Name = 
REMARK  8 active torsions:
REMARK  status: ('A' for Active; 'I' for Inactive)
REMARK    1  A    between atoms: C_1  and  O_2
REMARK    2  A    between atoms: O_2  and  C_3
REMARK    3  A    between atoms: C_6  and  C_7
REMARK    4  A    between atoms: C_7  and  N_8
REMARK    5  A    between atoms: C_14  and  O_15
REMARK    6  A    between atoms: O_15  and  C_16
REMARK    7  A    between atoms: C_17  and  O_18
REMARK    8  A    between atoms: O_18  and  C_19
REMARK                            x       y       z     vdW  Elec       q    Type
REMARK                         _______ _______ _______ _____ _____    ______ ____
ROOT
ATOM      1  N   UNL     1       0.465  10.753  19.494  0.00  0.00    +0.000 N 
ATOM      2  C   UNL     1       1.454  11.082  18.587  0.00  0.00    +0.000 A 
ATOM      3  O   UNL     1       2.075  12.142  18.587  0.00  0.00    +0.000 OA
ATOM      4  N   UNL     1       1.804  10.072  17.718  0.00  0.00    +0.000 N 
ATOM      5  C   UNL     1       2.008   8.798  18.264  0.00  0.00    +0.000 A 
ATOM      6  C   UNL     1       2.834   7.904  17.591  0.00  0.00    +0.000 A 
ATOM      7  C   UNL     1       3.240   6.721  18.211  0.00  0.00    +0.000 A 
ATOM      8  C   UNL     1       2.825   6.450  19.530  0.00  0.00    +0.000 A 
ATOM      9  C   UNL     1       1.908   7.320  20.165  0.00  0.00    +0.000 A 
ATOM     10  C   UNL     1       1.495   8.501  19.521  0.00  0.00    +0.000 A 
ATOM     11  C   UNL     1       0.499   9.479  20.081  0.00  0.00    +0.000 A 
ATOM     12  O   UNL     1      -0.201   9.136  21.030  0.00  0.00    +0.000 OA
ATOM     13  H   UNL     1       1.177  10.028  16.920  0.00  0.00    +0.000 HD
ENDROOT
BRANCH   7  14
ATOM     14  O   UNL     1       4.111   5.992  17.441  0.00  0.00    +0.000 OA
ATOM     15  C   UNL     1       5.078   6.703  16.677  0.00  0.00    +0.000 C 
ENDBRANCH   7  14
BRANCH   8  16
ATOM     16  O   UNL     1       3.303   5.312  20.123  0.00  0.00    +0.000 OA
ATOM     17  C   UNL     1       2.439   4.184  20.159  0.00  0.00    +0.000 C 
ENDBRANCH   8  16
BRANCH   1  18
ATOM     18  C   UNL     1      -0.163  11.873  20.216  0.00  0.00    +0.000 C 
BRANCH  18  22
ATOM     19  C   UNL     1      -4.452  12.340  19.495  0.00  0.00    +0.000 A 
ATOM     20  C   UNL     1      -3.607  11.767  18.537  0.00  0.00    +0.000 A 
ATOM     21  C   UNL     1      -2.218  11.654  18.739  0.00  0.00    +0.000 A 
ATOM     22  C   UNL     1      -1.630  12.164  19.899  0.00  0.00    +0.000 A 
ATOM     23  C   UNL     1      -2.478  12.770  20.854  0.00  0.00    +0.000 A 
ATOM     24  C   UNL     1      -3.879  12.869  20.648  0.00  0.00    +0.000 A 
BRANCH  19  26
ATOM     25  C   UNL     1      -6.095  12.141  17.781  0.00  0.00    +0.000 C 
ATOM     26  O   UNL     1      -5.771  12.400  19.147  0.00  0.00    +0.000 OA
ENDBRANCH  19  26
ENDBRANCH  18  22
ENDBRANCH   1  18
TORSDOF 5
ENDMDL
