MODEL 1
REMARK VINA RESULT:      -7.6      0.000      0.000
REMARK  Name = 
REMARK  2 active torsions:
REMARK  status: ('A' for Active; 'I' for Inactive)
REMARK    1  A    between atoms: C_1  and  N_2
REMARK    2  A    between atoms: N_4  and  C_5
REMARK                            x       y       z     vdW  Elec       q    Type
REMARK                         _______ _______ _______ _____ _____    ______ ____
ROOT
ATOM      1  C   UNL     1       1.761   7.647  20.461  0.00  0.00    +0.000 C 
ATOM      2  N   UNL     1       2.295   6.512  19.747  0.00  0.00    +0.000 N 
ATOM      3  C   UNL     1       3.143   6.657  18.612  0.00  0.00    +0.000 C 
ATOM      4  N   UNL     1       3.610   5.304  18.320  0.00  0.00    +0.000 N 
ATOM      5  C   UNL     1       2.765   4.300  19.063  0.00  0.00    +0.000 C 
ATOM      6  C   UNL     1       3.495   3.333  19.995  0.00  0.00    +0.000 C 
ATOM      7  C   UNL     1       4.041   2.096  19.298  0.00  0.00    +0.000 C 
ATOM      8  N   UNL     1       3.053   1.408  18.471  0.00  0.00    +0.000 NA
ATOM      9  C   UNL     1       2.338   2.269  17.534  0.00  0.00    +0.000 C 
ATOM     10  C   UNL     1       1.782   3.555  18.144  0.00  0.00    +0.000 C 
ATOM     11  C   UNL     1       1.923   5.205  19.988  0.00  0.00    +0.000 C 
ATOM     12  O   UNL     1       1.089   4.848  20.808  0.00  0.00    +0.000 OA
ATOM     13  H   UNL     1       2.382   0.937  19.074  0.00  0.00    +0.000 HD
ENDROOT
BRANCH   4  14
ATOM     14  C   UNL     1       4.937   5.110  17.966  0.00  0.00    +0.000 A 
ATOM     15  C   UNL     1       6.021   5.493  18.771  0.00  0.00    +0.000 A 
ATOM     16  C   UNL     1       7.353   5.270  18.387  0.00  0.00    +0.000 A 
ATOM     17  C   UNL     1       7.639   4.627  17.188  0.00  0.00    +0.000 A 
ATOM     18  C   UNL     1       6.594   4.257  16.360  0.00  0.00    +0.000 A 
ATOM     19  C   UNL     1       5.275   4.533  16.736  0.00  0.00    +0.000 A 
ENDBRANCH   4  14
TORSDOF 1
ENDMDL
MODEL 2
REMARK VINA RESULT:      -7.4      0.478      1.200
REMARK  Name = 
REMARK  2 active torsions:
REMARK  status: ('A' for Active; 'I' for Inactive)
REMARK    1  A    between atoms: C_1  and  N_2
REMARK    2  A    between atoms: N_4  and  C_5
REMARK                            x       y       z     vdW  Elec       q    Type
REMARK                         _______ _______ _______ _____ _____    ______ ____
ROOT
ATOM      1  C   UNL     1       1.892   7.803  20.226  0.00  0.00    +0.000 C 
ATOM      2  N   UNL     1       2.343   6.623  19.529  0.00  0.00    +0.000 N 
ATOM      3  C   UNL     1       3.004   6.688  18.269  0.00  0.00    +0.000 C 
ATOM      4  N   UNL     1       3.459   5.323  18.016  0.00  0.00    +0.000 N 
ATOM      5  C   UNL     1       2.765   4.369  18.956  0.00  0.00    +0.000 C 
ATOM      6  C   UNL     1       3.654   3.493  19.837  0.00  0.00    +0.000 C 
ATOM      7  C   UNL     1       4.122   2.212  19.163  0.00  0.00    +0.000 C 
ATOM      8  N   UNL     1       3.039   1.444  18.554  0.00  0.00    +0.000 NA
ATOM      9  C   UNL     1       2.167   2.214  17.674  0.00  0.00    +0.000 C 
ATOM     10  C   UNL     1       1.674   3.537  18.259  0.00  0.00    +0.000 C 
ATOM     11  C   UNL     1       2.048   5.334  19.926  0.00  0.00    +0.000 C 
ATOM     12  O   UNL     1       1.359   5.032  20.890  0.00  0.00    +0.000 OA
ATOM     13  H   UNL     1       2.481   1.013  19.287  0.00  0.00    +0.000 HD
ENDROOT
BRANCH   4  14
ATOM     14  C   UNL     1       4.721   5.121  17.477  0.00  0.00    +0.000 A 
ATOM     15  C   UNL     1       4.975   4.275  16.387  0.00  0.00    +0.000 A 
ATOM     16  C   UNL     1       6.265   4.104  15.858  0.00  0.00    +0.000 A 
ATOM     17  C   UNL     1       7.340   4.802  16.394  0.00  0.00    +0.000 A 
ATOM     18  C   UNL     1       7.129   5.627  17.484  0.00  0.00    +0.000 A 
ATOM     19  C   UNL     1       5.846   5.746  18.029  0.00  0.00    +0.000 A 
ENDBRANCH   4  14
TORSDOF 1
ENDMDL
MODEL 3
REMARK VINA RESULT:      -6.9      1.955      4.476
REMARK  Name = 
REMARK  2 active torsions:
REMARK  status: ('A' for Active; 'I' for Inactive)
REMARK    1  A    between atoms: C_1  and  N_2
REMARK    2  A    between atoms: N_4  and  C_5
REMARK                            x       y       z     vdW  Elec       q    Type
REMARK                         _______ _______ _______ _____ _____    ______ ____
ROOT
ATOM      1  C   UNL     1       5.503   3.785  16.176  0.00  0.00    +0.000 C 
ATOM      2  N   UNL     1       4.650   4.050  17.310  0.00  0.00    +0.000 N 
ATOM      3  C   UNL     1       4.725   5.262  18.052  0.00  0.00    +0.000 C 
ATOM      4  N   UNL     1       3.585   5.211  18.964  0.00  0.00    +0.000 N 
ATOM      5  C   UNL     1       3.030   3.810  19.013  0.00  0.00    +0.000 C 
ATOM      6  C   UNL     1       1.552   3.636  18.665  0.00  0.00    +0.000 C 
ATOM      7  C   UNL     1       0.611   3.861  19.839  0.00  0.00    +0.000 C 
ATOM      8  N   UNL     1       0.977   3.107  21.035  0.00  0.00    +0.000 NA
ATOM      9  C   UNL     1       2.371   3.252  21.442  0.00  0.00    +0.000 C 
ATOM     10  C   UNL     1       3.389   3.074  20.315  0.00  0.00    +0.000 C 
ATOM     11  C   UNL     1       3.805   3.115  17.872  0.00  0.00    +0.000 C 
ATOM     12  O   UNL     1       3.689   1.954  17.503  0.00  0.00    +0.000 OA
ATOM     13  H   UNL     1       0.771   2.122  20.886  0.00  0.00    +0.000 HD
ENDROOT
BRANCH   4  14
ATOM     14  C   UNL     1       2.841   6.362  19.179  0.00  0.00    +0.000 A 
ATOM     15  C   UNL     1       2.285   6.709  20.420  0.00  0.00    +0.000 A 
ATOM     16  C   UNL     1       1.547   7.889  20.605  0.00  0.00    +0.000 A 
ATOM     17  C   UNL     1       1.367   8.776  19.552  0.00  0.00    +0.000 A 
ATOM     18  C   UNL     1       1.883   8.455  18.308  0.00  0.00    +0.000 A 
ATOM     19  C   UNL     1       2.571   7.250  18.130  0.00  0.00    +0.000 A 
ENDBRANCH   4  14
TORSDOF 1
ENDMDL
MODEL 4
REMARK VINA RESULT:      -6.7      1.947      4.588
REMARK  Name = 
REMARK  2 active torsions:
REMARK  status: ('A' for Active; 'I' for Inactive)
REMARK    1  A    between atoms: C_1  and  N_2
REMARK    2  A    between atoms: N_4  and  C_5
REMARK                            x       y       z     vdW  Elec       q    Type
REMARK                         _______ _______ _______ _____ _____    ______ ____
ROOT
ATOM      1  C   UNL     1       5.592   3.906  16.212  0.00  0.00    +0.000 C 
ATOM      2  N   UNL     1       4.714   4.155  17.331  0.00  0.00    +0.000 N 
ATOM      3  C   UNL     1       4.770   5.358  18.090  0.00  0.00    +0.000 C 
ATOM      4  N   UNL     1       3.611   5.293  18.977  0.00  0.00    +0.000 N 
ATOM      5  C   UNL     1       3.058   3.890  18.995  0.00  0.00    +0.000 C 
ATOM      6  C   UNL     1       1.588   3.717  18.614  0.00  0.00    +0.000 C 
ATOM      7  C   UNL     1       0.622   3.925  19.769  0.00  0.00    +0.000 C 
ATOM      8  N   UNL     1       0.964   3.156  20.963  0.00  0.00    +0.000 NA
ATOM      9  C   UNL     1       2.349   3.299  21.402  0.00  0.00    +0.000 C 
ATOM     10  C   UNL     1       3.390   3.138  20.296  0.00  0.00    +0.000 C 
ATOM     11  C   UNL     1       3.859   3.211  17.863  0.00  0.00    +0.000 C 
ATOM     12  O   UNL     1       3.754   2.055  17.477  0.00  0.00    +0.000 OA
ATOM     13  H   UNL     1       0.764   2.173  20.797  0.00  0.00    +0.000 HD
ENDROOT
BRANCH   4  14
ATOM     14  C   UNL     1       2.859   6.439  19.190  0.00  0.00    +0.000 A 
ATOM     15  C   UNL     1       2.581   7.383  18.190  0.00  0.00    +0.000 A 
ATOM     16  C   UNL     1       1.805   8.527  18.437  0.00  0.00    +0.000 A 
ATOM     17  C   UNL     1       1.259   8.746  19.696  0.00  0.00    +0.000 A 
ATOM     18  C   UNL     1       1.533   7.846  20.711  0.00  0.00    +0.000 A 
ATOM     19  C   UNL     1       2.350   6.739  20.459  0.00  0.00    +0.000 A 
ENDBRANCH   4  14
TORSDOF 1
ENDMDL
MODEL 5
REMARK VINA RESULT:      -6.7      1.895      4.462
REMARK  Name = 
REMARK  2 active torsions:
REMARK  status: ('A' for Active; 'I' for Inactive)
REMARK    1  A    between atoms: C_1  and  N_2
REMARK    2  A    between atoms: N_4  and  C_5
REMARK                            x       y       z     vdW  Elec       q    Type
REMARK                         _______ _______ _______ _____ _____    ______ ____
ROOT
ATOM      1  C   UNL     1       2.388   2.288  21.587  0.00  0.00    +0.000 C 
ATOM      2  N   UNL     1       2.767   3.177  20.514  0.00  0.00    +0.000 N 
ATOM      3  C   UNL     1       1.842   4.068  19.900  0.00  0.00    +0.000 C 
ATOM      4  N   UNL     1       2.657   4.906  19.024  0.00  0.00    +0.000 N 
ATOM      5  C   UNL     1       4.021   4.289  18.849  0.00  0.00    +0.000 C 
ATOM      6  C   UNL     1       5.227   5.151  19.223  0.00  0.00    +0.000 C 
ATOM      7  C   UNL     1       5.694   6.076  18.111  0.00  0.00    +0.000 C 
ATOM      8  N   UNL     1       5.892   5.398  16.832  0.00  0.00    +0.000 NA
ATOM      9  C   UNL     1       4.764   4.580  16.397  0.00  0.00    +0.000 C 
ATOM     10  C   UNL     1       4.206   3.641  17.466  0.00  0.00    +0.000 C 
ATOM     11  C   UNL     1       3.996   3.145  19.885  0.00  0.00    +0.000 C 
ATOM     12  O   UNL     1       4.897   2.357  20.135  0.00  0.00    +0.000 OA
ATOM     13  H   UNL     1       6.726   4.820  16.884  0.00  0.00    +0.000 HD
ENDROOT
BRANCH   4  14
ATOM     14  C   UNL     1       2.391   6.266  18.954  0.00  0.00    +0.000 A 
ATOM     15  C   UNL     1       2.454   7.011  17.767  0.00  0.00    +0.000 A 
ATOM     16  C   UNL     1       2.166   8.384  17.729  0.00  0.00    +0.000 A 
ATOM     17  C   UNL     1       1.777   9.051  18.884  0.00  0.00    +0.000 A 
ATOM     18  C   UNL     1       1.726   8.352  20.078  0.00  0.00    +0.000 A 
ATOM     19  C   UNL     1       2.066   6.995  20.105  0.00  0.00    +0.000 A 
ENDBRANCH   4  14
TORSDOF 1
ENDMDL
MODEL 6
REMARK VINA RESULT:      -6.6      2.270      4.518
REMARK  Name = 
REMARK  2 active torsions:
REMARK  status: ('A' for Active; 'I' for Inactive)
REMARK    1  A    between atoms: C_1  and  N_2
REMARK    2  A    between atoms: N_4  and  C_5
REMARK                            x       y       z     vdW  Elec       q    Type
REMARK                         _______ _______ _______ _____ _____    ______ ____
ROOT
ATOM      1  C   UNL     1       1.870   9.078  17.800  0.00  0.00    +0.000 C 
ATOM      2  N   UNL     1       2.530   7.872  18.242  0.00  0.00    +0.000 N 
ATOM      3  C   UNL     1       2.268   7.281  19.510  0.00  0.00    +0.000 C 
ATOM      4  N   UNL     1       2.974   6.003  19.479  0.00  0.00    +0.000 N 
ATOM      5  C   UNL     1       3.948   5.984  18.328  0.00  0.00    +0.000 C 
ATOM      6  C   UNL     1       3.802   4.851  17.313  0.00  0.00    +0.000 C 
ATOM      7  C   UNL     1       4.517   3.569  17.711  0.00  0.00    +0.000 C 
ATOM      8  N   UNL     1       5.911   3.773  18.095  0.00  0.00    +0.000 NA
ATOM      9  C   UNL     1       6.121   4.823  19.087  0.00  0.00    +0.000 C 
ATOM     10  C   UNL     1       5.409   6.141  18.784  0.00  0.00    +0.000 C 
ATOM     11  C   UNL     1       3.571   7.272  17.564  0.00  0.00    +0.000 C 
ATOM     12  O   UNL     1       4.076   7.690  16.531  0.00  0.00    +0.000 OA
ATOM     13  H   UNL     1       6.460   3.981  17.265  0.00  0.00    +0.000 HD
ENDROOT
BRANCH   4  14
ATOM     14  C   UNL     1       2.358   4.878  20.010  0.00  0.00    +0.000 A 
ATOM     15  C   UNL     1       1.293   4.209  19.389  0.00  0.00    +0.000 A 
ATOM     16  C   UNL     1       0.701   3.065  19.948  0.00  0.00    +0.000 A 
ATOM     17  C   UNL     1       1.181   2.539  21.141  0.00  0.00    +0.000 A 
ATOM     18  C   UNL     1       2.216   3.188  21.792  0.00  0.00    +0.000 A 
ATOM     19  C   UNL     1       2.759   4.355  21.245  0.00  0.00    +0.000 A 
ENDBRANCH   4  14
TORSDOF 1
ENDMDL
MODEL 7
REMARK VINA RESULT:      -6.6      1.885      4.307
REMARK  Name = 
REMARK  2 active torsions:
REMARK  status: ('A' for Active; 'I' for Inactive)
REMARK    1  A    between atoms: C_1  and  N_2
REMARK    2  A    between atoms: N_4  and  C_5
REMARK                            x       y       z     vdW  Elec       q    Type
REMARK                         _______ _______ _______ _____ _____    ______ ____
ROOT
ATOM      1  C   UNL     1       2.302   2.055  21.587  0.00  0.00    +0.000 C 
ATOM      2  N   UNL     1       2.705   2.962  20.538  0.00  0.00    +0.000 N 
ATOM      3  C   UNL     1       1.796   3.873  19.928  0.00  0.00    +0.000 C 
ATOM      4  N   UNL     1       2.631   4.722  19.081  0.00  0.00    +0.000 N 
ATOM      5  C   UNL     1       3.993   4.096  18.914  0.00  0.00    +0.000 C 
ATOM      6  C   UNL     1       5.200   4.939  19.324  0.00  0.00    +0.000 C 
ATOM      7  C   UNL     1       5.692   5.882  18.237  0.00  0.00    +0.000 C 
ATOM      8  N   UNL     1       5.903   5.228  16.948  0.00  0.00    +0.000 NA
ATOM      9  C   UNL     1       4.775   4.429  16.480  0.00  0.00    +0.000 C 
ATOM     10  C   UNL     1       4.193   3.474  17.521  0.00  0.00    +0.000 C 
ATOM     11  C   UNL     1       3.942   2.931  19.927  0.00  0.00    +0.000 C 
ATOM     12  O   UNL     1       4.833   2.131  20.175  0.00  0.00    +0.000 OA
ATOM     13  H   UNL     1       6.732   4.642  17.002  0.00  0.00    +0.000 HD
ENDROOT
BRANCH   4  14
ATOM     14  C   UNL     1       2.378   6.085  19.035  0.00  0.00    +0.000 A 
ATOM     15  C   UNL     1       2.071   6.858  20.165  0.00  0.00    +0.000 A 
ATOM     16  C   UNL     1       1.833   8.239  20.084  0.00  0.00    +0.000 A 
ATOM     17  C   UNL     1       1.924   8.896  18.863  0.00  0.00    +0.000 A 
ATOM     18  C   UNL     1       2.203   8.160  17.724  0.00  0.00    +0.000 A 
ATOM     19  C   UNL     1       2.386   6.776  17.817  0.00  0.00    +0.000 A 
ENDBRANCH   4  14
TORSDOF 1
ENDMDL
MODEL 8
REMARK VINA RESULT:      -6.5      2.260      4.385
REMARK  Name = 
REMARK  2 active torsions:
REMARK  status: ('A' for Active; 'I' for Inactive)
REMARK    1  A    between atoms: C_1  and  N_2
REMARK    2  A    between atoms: N_4  and  C_5
REMARK                            x       y       z     vdW  Elec       q    Type
REMARK                         _______ _______ _______ _____ _____    ______ ____
ROOT
ATOM      1  C   UNL     1       1.830   9.011  17.827  0.00  0.00    +0.000 C 
ATOM      2  N   UNL     1       2.532   7.824  18.254  0.00  0.00    +0.000 N 
ATOM      3  C   UNL     1       2.320   7.232  19.531  0.00  0.00    +0.000 C 
ATOM      4  N   UNL     1       3.057   5.971  19.484  0.00  0.00    +0.000 N 
ATOM      5  C   UNL     1       3.997   5.971  18.306  0.00  0.00    +0.000 C 
ATOM      6  C   UNL     1       3.850   4.831  17.299  0.00  0.00    +0.000 C 
ATOM      7  C   UNL     1       4.608   3.568  17.681  0.00  0.00    +0.000 C 
ATOM      8  N   UNL     1       6.007   3.808  18.024  0.00  0.00    +0.000 NA
ATOM      9  C   UNL     1       6.219   4.867  19.006  0.00  0.00    +0.000 C 
ATOM     10  C   UNL     1       5.466   6.166  18.719  0.00  0.00    +0.000 C 
ATOM     11  C   UNL     1       3.568   7.246  17.548  0.00  0.00    +0.000 C 
ATOM     12  O   UNL     1       4.033   7.672  16.500  0.00  0.00    +0.000 OA
ATOM     13  H   UNL     1       6.527   4.025  17.178  0.00  0.00    +0.000 HD
ENDROOT
BRANCH   4  14
ATOM     14  C   UNL     1       2.484   4.834  20.036  0.00  0.00    +0.000 A 
ATOM     15  C   UNL     1       3.063   4.102  21.084  0.00  0.00    +0.000 A 
ATOM     16  C   UNL     1       2.449   2.963  21.628  0.00  0.00    +0.000 A 
ATOM     17  C   UNL     1       1.215   2.537  21.154  0.00  0.00    +0.000 A 
ATOM     18  C   UNL     1       0.626   3.222  20.105  0.00  0.00    +0.000 A 
ATOM     19  C   UNL     1       1.277   4.325  19.542  0.00  0.00    +0.000 A 
ENDBRANCH   4  14
TORSDOF 1
ENDMDL
MODEL 9
REMARK VINA RESULT:      -6.4      2.291      4.976
REMARK  Name = 
REMARK  2 active torsions:
REMARK  status: ('A' for Active; 'I' for Inactive)
REMARK    1  A    between atoms: C_1  and  N_2
REMARK    2  A    between atoms: N_4  and  C_5
REMARK                            x       y       z     vdW  Elec       q    Type
REMARK                         _______ _______ _______ _____ _____    ______ ____
ROOT
ATOM      1  C   UNL     1       7.260   4.865  15.601  0.00  0.00    +0.000 C 
ATOM      2  N   UNL     1       6.021   5.059  16.315  0.00  0.00    +0.000 N 
ATOM      3  C   UNL     1       4.844   4.316  16.015  0.00  0.00    +0.000 C 
ATOM      4  N   UNL     1       3.901   4.667  17.074  0.00  0.00    +0.000 N 
ATOM      5  C   UNL     1       4.390   5.889  17.810  0.00  0.00    +0.000 C 
ATOM      6  C   UNL     1       4.578   5.759  19.322  0.00  0.00    +0.000 C 
ATOM      7  C   UNL     1       3.309   5.997  20.125  0.00  0.00    +0.000 C 
ATOM      8  N   UNL     1       2.617   7.234  19.771  0.00  0.00    +0.000 NA
ATOM      9  C   UNL     1       2.377   7.409  18.342  0.00  0.00    +0.000 C 
ATOM     10  C   UNL     1       3.594   7.155  17.453  0.00  0.00    +0.000 C 
ATOM     11  C   UNL     1       5.811   6.068  17.233  0.00  0.00    +0.000 C 
ATOM     12  O   UNL     1       6.626   6.928  17.537  0.00  0.00    +0.000 OA
ATOM     13  H   UNL     1       3.149   8.027  20.122  0.00  0.00    +0.000 HD
ENDROOT
BRANCH   4  14
ATOM     14  C   UNL     1       3.113   3.671  17.633  0.00  0.00    +0.000 A 
ATOM     15  C   UNL     1       3.596   2.400  17.979  0.00  0.00    +0.000 A 
ATOM     16  C   UNL     1       2.773   1.420  18.556  0.00  0.00    +0.000 A 
ATOM     17  C   UNL     1       1.439   1.695  18.828  0.00  0.00    +0.000 A 
ATOM     18  C   UNL     1       0.924   2.932  18.479  0.00  0.00    +0.000 A 
ATOM     19  C   UNL     1       1.747   3.878  17.858  0.00  0.00    +0.000 A 
ENDBRANCH   4  14
TORSDOF 1
ENDMDL
