MODEL 1
REMARK VINA RESULT:      -7.7      0.000      0.000
REMARK  Name = 
REMARK  7 active torsions:
REMARK  status: ('A' for Active; 'I' for Inactive)
REMARK    1  A    between atoms: C_1  and  O_2
REMARK    2  A    between atoms: O_2  and  C_3
REMARK    3  A    between atoms: C_8  and  N_9
REMARK    4  A    between atoms: N_12  and  C_13
REMARK    5  A    between atoms: C_13  and  C_14
REMARK    6  A    between atoms: C_14  and  C_15
REMARK    7  A    between atoms: C_15  and  C_17
REMARK                            x       y       z     vdW  Elec       q    Type
REMARK                         _______ _______ _______ _____ _____    ______ ____
ROOT
ATOM      1  N   UNL     1       4.737   4.778  18.085  0.00  0.00    +0.000 N 
ATOM      2  C   UNL     1       5.227   5.739  19.078  0.00  0.00    +0.000 C 
ATOM      3  C   UNL     1       6.725   5.471  19.334  0.00  0.00    +0.000 C 
ATOM      4  N   UNL     1       7.579   5.583  18.120  0.00  0.00    +0.000 NA
ATOM      5  C   UNL     1       7.024   4.653  17.100  0.00  0.00    +0.000 C 
ATOM      6  C   UNL     1       5.499   4.773  16.822  0.00  0.00    +0.000 C 
ENDROOT
BRANCH   1  12
ATOM      7  C   UNL     1       3.574   2.777  18.978  0.00  0.00    +0.000 A 
ATOM      8  C   UNL     1       2.376   2.050  19.112  0.00  0.00    +0.000 A 
ATOM      9  C   UNL     1       1.183   2.530  18.576  0.00  0.00    +0.000 A 
ATOM     10  C   UNL     1       1.181   3.737  17.896  0.00  0.00    +0.000 A 
ATOM     11  C   UNL     1       2.367   4.461  17.754  0.00  0.00    +0.000 A 
ATOM     12  C   UNL     1       3.599   4.014  18.279  0.00  0.00    +0.000 A 
BRANCH   7  14
ATOM     13  C   UNL     1       4.822   1.939  20.814  0.00  0.00    +0.000 C 
ATOM     14  O   UNL     1       4.763   2.241  19.421  0.00  0.00    +0.000 OA
ENDBRANCH   7  14
ENDBRANCH   1  12
BRANCH   4  15
ATOM     15  C   UNL     1       7.657   6.955  17.579  0.00  0.00    +0.000 C 
BRANCH  15  16
ATOM     16  C   UNL     1       8.430   7.888  18.511  0.00  0.00    +0.000 C 
BRANCH  16  17
ATOM     17  C   UNL     1       8.248   9.342  18.142  0.00  0.00    +0.000 C 
ATOM     18  O   UNL     1       7.327   9.745  17.437  0.00  0.00    +0.000 OA
BRANCH  17  19
ATOM     19  C   UNL     1       9.267  10.308  18.638  0.00  0.00    +0.000 A 
ATOM     20  C   UNL     1       9.342  10.532  20.019  0.00  0.00    +0.000 A 
ATOM     21  C   UNL     1      10.271  11.437  20.531  0.00  0.00    +0.000 A 
ATOM     22  C   UNL     1      11.128  12.103  19.662  0.00  0.00    +0.000 A 
ATOM     23  F   UNL     1      12.020  12.968  20.155  0.00  0.00    +0.000 F 
ATOM     24  C   UNL     1      11.075  11.885  18.292  0.00  0.00    +0.000 A 
ATOM     25  C   UNL     1      10.139  10.987  17.774  0.00  0.00    +0.000 A 
ENDBRANCH  17  19
ENDBRANCH  16  17
ENDBRANCH  15  16
ENDBRANCH   4  15
TORSDOF 6
ENDMDL
MODEL 2
REMARK VINA RESULT:      -7.2      1.966      2.574
REMARK  Name = 
REMARK  7 active torsions:
REMARK  status: ('A' for Active; 'I' for Inactive)
REMARK    1  A    between atoms: C_1  and  O_2
REMARK    2  A    between atoms: O_2  and  C_3
REMARK    3  A    between atoms: C_8  and  N_9
REMARK    4  A    between atoms: N_12  and  C_13
REMARK    5  A    between atoms: C_13  and  C_14
REMARK    6  A    between atoms: C_14  and  C_15
REMARK    7  A    between atoms: C_15  and  C_17
REMARK                            x       y       z     vdW  Elec       q    Type
REMARK                         _______ _______ _______ _____ _____    ______ ____
ROOT
ATOM      1  N   UNL     1       5.186   5.576  18.123  0.00  0.00    +0.000 N 
ATOM      2  C   UNL     1       6.309   5.287  19.021  0.00  0.00    +0.000 C 
ATOM      3  C   UNL     1       7.624   5.378  18.219  0.00  0.00    +0.000 C 
ATOM      4  N   UNL     1       7.863   6.705  17.589  0.00  0.00    +0.000 NA
ATOM      5  C   UNL     1       6.681   7.012  16.739  0.00  0.00    +0.000 C 
ATOM      6  C   UNL     1       5.291   6.868  17.420  0.00  0.00    +0.000 C 
ENDROOT
BRANCH   1  12
ATOM      7  C   UNL     1       2.734   5.203  18.132  0.00  0.00    +0.000 A 
ATOM      8  C   UNL     1       1.661   4.295  18.038  0.00  0.00    +0.000 A 
ATOM      9  C   UNL     1       1.888   2.938  17.820  0.00  0.00    +0.000 A 
ATOM     10  C   UNL     1       3.189   2.477  17.701  0.00  0.00    +0.000 A 
ATOM     11  C   UNL     1       4.258   3.371  17.800  0.00  0.00    +0.000 A 
ATOM     12  C   UNL     1       4.077   4.753  18.021  0.00  0.00    +0.000 A 
BRANCH   7  14
ATOM     13  C   UNL     1       2.206   6.782  19.823  0.00  0.00    +0.000 C 
ATOM     14  O   UNL     1       2.499   6.521  18.451  0.00  0.00    +0.000 OA
ENDBRANCH   7  14
ENDBRANCH   1  12
BRANCH   4  15
ATOM     15  C   UNL     1       8.089   7.788  18.567  0.00  0.00    +0.000 C 
BRANCH  15  16
ATOM     16  C   UNL     1       8.443   9.107  17.880  0.00  0.00    +0.000 C 
BRANCH  16  17
ATOM     17  C   UNL     1       9.095  10.087  18.827  0.00  0.00    +0.000 C 
ATOM     18  O   UNL     1       9.146   9.914  20.042  0.00  0.00    +0.000 OA
BRANCH  17  19
ATOM     19  C   UNL     1       9.664  11.333  18.242  0.00  0.00    +0.000 A 
ATOM     20  C   UNL     1       8.848  12.470  18.195  0.00  0.00    +0.000 A 
ATOM     21  C   UNL     1       9.331  13.656  17.644  0.00  0.00    +0.000 A 
ATOM     22  C   UNL     1      10.632  13.703  17.156  0.00  0.00    +0.000 A 
ATOM     23  F   UNL     1      11.095  14.842  16.631  0.00  0.00    +0.000 F 
ATOM     24  C   UNL     1      11.459  12.588  17.205  0.00  0.00    +0.000 A 
ATOM     25  C   UNL     1      10.975  11.396  17.746  0.00  0.00    +0.000 A 
ENDBRANCH  17  19
ENDBRANCH  16  17
ENDBRANCH  15  16
ENDBRANCH   4  15
TORSDOF 6
ENDMDL
MODEL 3
REMARK VINA RESULT:      -7.1      1.913      2.452
REMARK  Name = 
REMARK  7 active torsions:
REMARK  status: ('A' for Active; 'I' for Inactive)
REMARK    1  A    between atoms: C_1  and  O_2
REMARK    2  A    between atoms: O_2  and  C_3
REMARK    3  A    between atoms: C_8  and  N_9
REMARK    4  A    between atoms: N_12  and  C_13
REMARK    5  A    between atoms: C_13  and  C_14
REMARK    6  A    between atoms: C_14  and  C_15
REMARK    7  A    between atoms: C_15  and  C_17
REMARK                            x       y       z     vdW  Elec       q    Type
REMARK                         _______ _______ _______ _____ _____    ______ ____
ROOT
ATOM      1  N   UNL     1       4.794   5.309  18.061  0.00  0.00    +0.000 N 
ATOM      2  C   UNL     1       6.120   4.998  18.605  0.00  0.00    +0.000 C 
ATOM      3  C   UNL     1       7.184   5.298  17.528  0.00  0.00    +0.000 C 
ATOM      4  N   UNL     1       7.193   6.710  17.058  0.00  0.00    +0.000 NA
ATOM      5  C   UNL     1       5.822   7.027  16.576  0.00  0.00    +0.000 C 
ATOM      6  C   UNL     1       4.658   6.685  17.549  0.00  0.00    +0.000 C 
ENDROOT
BRANCH   1  12
ATOM      7  C   UNL     1       2.456   4.727  18.653  0.00  0.00    +0.000 A 
ATOM      8  C   UNL     1       1.438   3.756  18.690  0.00  0.00    +0.000 A 
ATOM      9  C   UNL     1       1.651   2.474  18.187  0.00  0.00    +0.000 A 
ATOM     10  C   UNL     1       2.886   2.152  17.651  0.00  0.00    +0.000 A 
ATOM     11  C   UNL     1       3.904   3.108  17.616  0.00  0.00    +0.000 A 
ATOM     12  C   UNL     1       3.734   4.418  18.115  0.00  0.00    +0.000 A 
BRANCH   7  14
ATOM     13  C   UNL     1       1.878   5.922  20.619  0.00  0.00    +0.000 C 
ATOM     14  O   UNL     1       2.265   5.954  19.247  0.00  0.00    +0.000 OA
ENDBRANCH   7  14
ENDBRANCH   1  12
BRANCH   4  15
ATOM     15  C   UNL     1       7.610   7.673  18.098  0.00  0.00    +0.000 C 
BRANCH  15  16
ATOM     16  C   UNL     1       8.200   8.944  17.488  0.00  0.00    +0.000 C 
BRANCH  16  17
ATOM     17  C   UNL     1       8.899   9.800  18.520  0.00  0.00    +0.000 C 
ATOM     18  O   UNL     1       9.030   9.463  19.693  0.00  0.00    +0.000 OA
BRANCH  17  19
ATOM     19  C   UNL     1       9.413  11.126  18.076  0.00  0.00    +0.000 A 
ATOM     20  C   UNL     1      10.792  11.259  17.869  0.00  0.00    +0.000 A 
ATOM     21  C   UNL     1      11.323  12.484  17.467  0.00  0.00    +0.000 A 
ATOM     22  C   UNL     1      10.472  13.564  17.260  0.00  0.00    +0.000 A 
ATOM     23  F   UNL     1      10.982  14.737  16.871  0.00  0.00    +0.000 F 
ATOM     24  C   UNL     1       9.101  13.446  17.450  0.00  0.00    +0.000 A 
ATOM     25  C   UNL     1       8.567  12.224  17.863  0.00  0.00    +0.000 A 
ENDBRANCH  17  19
ENDBRANCH  16  17
ENDBRANCH  15  16
ENDBRANCH   4  15
TORSDOF 6
ENDMDL
MODEL 4
REMARK VINA RESULT:      -7.0      5.388      7.184
REMARK  Name = 
REMARK  7 active torsions:
REMARK  status: ('A' for Active; 'I' for Inactive)
REMARK    1  A    between atoms: C_1  and  O_2
REMARK    2  A    between atoms: O_2  and  C_3
REMARK    3  A    between atoms: C_8  and  N_9
REMARK    4  A    between atoms: N_12  and  C_13
REMARK    5  A    between atoms: C_13  and  C_14
REMARK    6  A    between atoms: C_14  and  C_15
REMARK    7  A    between atoms: C_15  and  C_17
REMARK                            x       y       z     vdW  Elec       q    Type
REMARK                         _______ _______ _______ _____ _____    ______ ____
ROOT
ATOM      1  N   UNL     1       4.033   4.321  18.515  0.00  0.00    +0.000 N 
ATOM      2  C   UNL     1       5.082   5.308  18.788  0.00  0.00    +0.000 C 
ATOM      3  C   UNL     1       6.411   4.803  18.187  0.00  0.00    +0.000 C 
ATOM      4  N   UNL     1       6.363   4.571  16.717  0.00  0.00    +0.000 NA
ATOM      5  C   UNL     1       5.248   3.623  16.453  0.00  0.00    +0.000 C 
ATOM      6  C   UNL     1       3.875   3.987  17.087  0.00  0.00    +0.000 C 
ENDROOT
BRANCH   1  12
ATOM      7  C   UNL     1       3.583   2.850  20.460  0.00  0.00    +0.000 A 
ATOM      8  C   UNL     1       2.663   2.379  21.417  0.00  0.00    +0.000 A 
ATOM      9  C   UNL     1       1.358   2.865  21.456  0.00  0.00    +0.000 A 
ATOM     10  C   UNL     1       0.961   3.819  20.535  0.00  0.00    +0.000 A 
ATOM     11  C   UNL     1       1.865   4.287  19.578  0.00  0.00    +0.000 A 
ATOM     12  C   UNL     1       3.197   3.823  19.500  0.00  0.00    +0.000 A 
BRANCH   7  14
ATOM     13  C   UNL     1       5.075   1.171  21.225  0.00  0.00    +0.000 C 
ATOM     14  O   UNL     1       4.835   2.286  20.368  0.00  0.00    +0.000 OA
ENDBRANCH   7  14
ENDBRANCH   1  12
BRANCH   4  15
ATOM     15  C   UNL     1       6.186   5.809  15.931  0.00  0.00    +0.000 C 
BRANCH  15  16
ATOM     16  C   UNL     1       5.763   5.511  14.493  0.00  0.00    +0.000 C 
BRANCH  16  17
ATOM     17  C   UNL     1       6.924   5.054  13.640  0.00  0.00    +0.000 C 
ATOM     18  O   UNL     1       8.018   5.611  13.642  0.00  0.00    +0.000 OA
BRANCH  17  19
ATOM     19  C   UNL     1       6.696   3.892  12.737  0.00  0.00    +0.000 A 
ATOM     20  C   UNL     1       5.393   3.392  12.627  0.00  0.00    +0.000 A 
ATOM     21  C   UNL     1       5.131   2.297  11.803  0.00  0.00    +0.000 A 
ATOM     22  C   UNL     1       6.171   1.718  11.084  0.00  0.00    +0.000 A 
ATOM     23  F   UNL     1       5.918   0.671  10.293  0.00  0.00    +0.000 F 
ATOM     24  C   UNL     1       7.467   2.209  11.173  0.00  0.00    +0.000 A 
ATOM     25  C   UNL     1       7.734   3.298  12.004  0.00  0.00    +0.000 A 
ENDBRANCH  17  19
ENDBRANCH  16  17
ENDBRANCH  15  16
ENDBRANCH   4  15
TORSDOF 6
ENDMDL
MODEL 5
REMARK VINA RESULT:      -6.9      5.353      7.387
REMARK  Name = 
REMARK  7 active torsions:
REMARK  status: ('A' for Active; 'I' for Inactive)
REMARK    1  A    between atoms: C_1  and  O_2
REMARK    2  A    between atoms: O_2  and  C_3
REMARK    3  A    between atoms: C_8  and  N_9
REMARK    4  A    between atoms: N_12  and  C_13
REMARK    5  A    between atoms: C_13  and  C_14
REMARK    6  A    between atoms: C_14  and  C_15
REMARK    7  A    between atoms: C_15  and  C_17
REMARK                            x       y       z     vdW  Elec       q    Type
REMARK                         _______ _______ _______ _____ _____    ______ ____
ROOT
ATOM      1  N   UNL     1       4.757   4.869  18.130  0.00  0.00    +0.000 N 
ATOM      2  C   UNL     1       6.037   5.546  18.363  0.00  0.00    +0.000 C 
ATOM      3  C   UNL     1       7.179   4.643  17.853  0.00  0.00    +0.000 C 
ATOM      4  N   UNL     1       7.088   4.306  16.406  0.00  0.00    +0.000 NA
ATOM      5  C   UNL     1       5.756   3.686  16.177  0.00  0.00    +0.000 C 
ATOM      6  C   UNL     1       4.532   4.469  16.729  0.00  0.00    +0.000 C 
ENDROOT
BRANCH   1  12
ATOM      7  C   UNL     1       3.564   3.493  19.815  0.00  0.00    +0.000 A 
ATOM      8  C   UNL     1       2.558   3.408  20.795  0.00  0.00    +0.000 A 
ATOM      9  C   UNL     1       1.779   4.517  21.119  0.00  0.00    +0.000 A 
ATOM     10  C   UNL     1       1.997   5.716  20.462  0.00  0.00    +0.000 A 
ATOM     11  C   UNL     1       2.990   5.806  19.483  0.00  0.00    +0.000 A 
ATOM     12  C   UNL     1       3.802   4.709  19.121  0.00  0.00    +0.000 A 
BRANCH   7  14
ATOM     13  C   UNL     1       3.545   1.468  18.577  0.00  0.00    +0.000 C 
ATOM     14  O   UNL     1       4.254   2.364  19.431  0.00  0.00    +0.000 OA
ENDBRANCH   7  14
ENDBRANCH   1  12
BRANCH   4  15
ATOM     15  C   UNL     1       7.274   5.472  15.518  0.00  0.00    +0.000 C 
BRANCH  15  16
ATOM     16  C   UNL     1       6.399   5.377  14.268  0.00  0.00    +0.000 C 
BRANCH  16  17
ATOM     17  C   UNL     1       7.198   5.011  13.039  0.00  0.00    +0.000 C 
ATOM     18  O   UNL     1       8.084   5.725  12.578  0.00  0.00    +0.000 OA
BRANCH  17  19
ATOM     19  C   UNL     1       6.852   3.737  12.350  0.00  0.00    +0.000 A 
ATOM     20  C   UNL     1       5.503   3.363  12.298  0.00  0.00    +0.000 A 
ATOM     21  C   UNL     1       5.131   2.172  11.676  0.00  0.00    +0.000 A 
ATOM     22  C   UNL     1       6.107   1.368  11.097  0.00  0.00    +0.000 A 
ATOM     23  F   UNL     1       5.748   0.229  10.499  0.00  0.00    +0.000 F 
ATOM     24  C   UNL     1       7.448   1.729  11.130  0.00  0.00    +0.000 A 
ATOM     25  C   UNL     1       7.825   2.916  11.761  0.00  0.00    +0.000 A 
ENDBRANCH  17  19
ENDBRANCH  16  17
ENDBRANCH  15  16
ENDBRANCH   4  15
TORSDOF 6
ENDMDL
MODEL 6
REMARK VINA RESULT:      -6.9      1.270      1.897
REMARK  Name = 
REMARK  7 active torsions:
REMARK  status: ('A' for Active; 'I' for Inactive)
REMARK    1  A    between atoms: C_1  and  O_2
REMARK    2  A    between atoms: O_2  and  C_3
REMARK    3  A    between atoms: C_8  and  N_9
REMARK    4  A    between atoms: N_12  and  C_13
REMARK    5  A    between atoms: C_13  and  C_14
REMARK    6  A    between atoms: C_14  and  C_15
REMARK    7  A    between atoms: C_15  and  C_17
REMARK                            x       y       z     vdW  Elec       q    Type
REMARK                         _______ _______ _______ _____ _____    ______ ____
ROOT
ATOM      1  N   UNL     1       4.415   4.822  17.932  0.00  0.00    +0.000 N 
ATOM      2  C   UNL     1       5.513   4.345  17.085  0.00  0.00    +0.000 C 
ATOM      3  C   UNL     1       5.662   5.295  15.879  0.00  0.00    +0.000 C 
ATOM      4  N   UNL     1       5.942   6.709  16.249  0.00  0.00    +0.000 NA
ATOM      5  C   UNL     1       4.855   7.152  17.163  0.00  0.00    +0.000 C 
ATOM      6  C   UNL     1       4.557   6.222  18.373  0.00  0.00    +0.000 C 
ENDROOT
BRANCH   1  12
ATOM      7  C   UNL     1       3.522   3.007  19.368  0.00  0.00    +0.000 A 
ATOM      8  C   UNL     1       2.430   2.196  19.730  0.00  0.00    +0.000 A 
ATOM      9  C   UNL     1       1.187   2.355  19.122  0.00  0.00    +0.000 A 
ATOM     10  C   UNL     1       1.028   3.320  18.142  0.00  0.00    +0.000 A 
ATOM     11  C   UNL     1       2.109   4.125  17.772  0.00  0.00    +0.000 A 
ATOM     12  C   UNL     1       3.387   3.999  18.360  0.00  0.00    +0.000 A 
BRANCH   7  14
ATOM     13  C   UNL     1       4.899   1.563  20.651  0.00  0.00    +0.000 C 
ATOM     14  O   UNL     1       4.769   2.770  19.903  0.00  0.00    +0.000 OA
ENDBRANCH   7  14
ENDBRANCH   1  12
BRANCH   4  15
ATOM     15  C   UNL     1       7.261   6.901  16.884  0.00  0.00    +0.000 C 
BRANCH  15  16
ATOM     16  C   UNL     1       7.475   8.351  17.318  0.00  0.00    +0.000 C 
BRANCH  16  17
ATOM     17  C   UNL     1       8.430   8.462  18.484  0.00  0.00    +0.000 C 
ATOM     18  O   UNL     1       8.756   7.503  19.178  0.00  0.00    +0.000 OA
BRANCH  17  19
ATOM     19  C   UNL     1       8.960   9.816  18.810  0.00  0.00    +0.000 A 
ATOM     20  C   UNL     1       9.178  10.708  17.752  0.00  0.00    +0.000 A 
ATOM     21  C   UNL     1       9.685  11.982  18.006  0.00  0.00    +0.000 A 
ATOM     22  C   UNL     1       9.959  12.361  19.315  0.00  0.00    +0.000 A 
ATOM     23  F   UNL     1      10.443  13.584  19.555  0.00  0.00    +0.000 F 
ATOM     24  C   UNL     1       9.738  11.494  20.376  0.00  0.00    +0.000 A 
ATOM     25  C   UNL     1       9.240  10.214  20.126  0.00  0.00    +0.000 A 
ENDBRANCH  17  19
ENDBRANCH  16  17
ENDBRANCH  15  16
ENDBRANCH   4  15
TORSDOF 6
ENDMDL
MODEL 7
REMARK VINA RESULT:      -6.8      5.357      7.207
REMARK  Name = 
REMARK  7 active torsions:
REMARK  status: ('A' for Active; 'I' for Inactive)
REMARK    1  A    between atoms: C_1  and  O_2
REMARK    2  A    between atoms: O_2  and  C_3
REMARK    3  A    between atoms: C_8  and  N_9
REMARK    4  A    between atoms: N_12  and  C_13
REMARK    5  A    between atoms: C_13  and  C_14
REMARK    6  A    between atoms: C_14  and  C_15
REMARK    7  A    between atoms: C_15  and  C_17
REMARK                            x       y       z     vdW  Elec       q    Type
REMARK                         _______ _______ _______ _____ _____    ______ ____
ROOT
ATOM      1  N   UNL     1       4.187   4.442  18.430  0.00  0.00    +0.000 N 
ATOM      2  C   UNL     1       5.320   5.304  18.777  0.00  0.00    +0.000 C 
ATOM      3  C   UNL     1       6.622   4.642  18.278  0.00  0.00    +0.000 C 
ATOM      4  N   UNL     1       6.656   4.398  16.810  0.00  0.00    +0.000 NA
ATOM      5  C   UNL     1       5.460   3.582  16.467  0.00  0.00    +0.000 C 
ATOM      6  C   UNL     1       4.097   4.109  16.996  0.00  0.00    +0.000 C 
ENDROOT
BRANCH   1  12
ATOM      7  C   UNL     1       3.232   2.810  20.037  0.00  0.00    +0.000 A 
ATOM      8  C   UNL     1       2.206   2.485  20.945  0.00  0.00    +0.000 A 
ATOM      9  C   UNL     1       1.171   3.381  21.207  0.00  0.00    +0.000 A 
ATOM     10  C   UNL     1       1.151   4.604  20.558  0.00  0.00    +0.000 A 
ATOM     11  C   UNL     1       2.161   4.931  19.650  0.00  0.00    +0.000 A 
ATOM     12  C   UNL     1       3.228   4.055  19.352  0.00  0.00    +0.000 A 
BRANCH   7  14
ATOM     13  C   UNL     1       5.148   1.594  20.727  0.00  0.00    +0.000 C 
ATOM     14  O   UNL     1       4.189   1.876  19.710  0.00  0.00    +0.000 OA
ENDBRANCH   7  14
ENDBRANCH   1  12
BRANCH   4  15
ATOM     15  C   UNL     1       6.681   5.638  16.008  0.00  0.00    +0.000 C 
BRANCH  15  16
ATOM     16  C   UNL     1       6.032   5.440  14.638  0.00  0.00    +0.000 C 
BRANCH  16  17
ATOM     17  C   UNL     1       7.037   5.044  13.582  0.00  0.00    +0.000 C 
ATOM     18  O   UNL     1       8.087   5.653  13.394  0.00  0.00    +0.000 OA
BRANCH  17  19
ATOM     19  C   UNL     1       6.701   3.880  12.716  0.00  0.00    +0.000 A 
ATOM     20  C   UNL     1       7.749   3.233  12.050  0.00  0.00    +0.000 A 
ATOM     21  C   UNL     1       7.483   2.145  11.218  0.00  0.00    +0.000 A 
ATOM     22  C   UNL     1       6.174   1.703  11.067  0.00  0.00    +0.000 A 
ATOM     23  F   UNL     1       5.921   0.660  10.272  0.00  0.00    +0.000 F 
ATOM     24  C   UNL     1       5.124   2.326  11.730  0.00  0.00    +0.000 A 
ATOM     25  C   UNL     1       5.385   3.422  12.555  0.00  0.00    +0.000 A 
ENDBRANCH  17  19
ENDBRANCH  16  17
ENDBRANCH  15  16
ENDBRANCH   4  15
TORSDOF 6
ENDMDL
MODEL 8
REMARK VINA RESULT:      -6.8      1.196      1.501
REMARK  Name = 
REMARK  7 active torsions:
REMARK  status: ('A' for Active; 'I' for Inactive)
REMARK    1  A    between atoms: C_1  and  O_2
REMARK    2  A    between atoms: O_2  and  C_3
REMARK    3  A    between atoms: C_8  and  N_9
REMARK    4  A    between atoms: N_12  and  C_13
REMARK    5  A    between atoms: C_13  and  C_14
REMARK    6  A    between atoms: C_14  and  C_15
REMARK    7  A    between atoms: C_15  and  C_17
REMARK                            x       y       z     vdW  Elec       q    Type
REMARK                         _______ _______ _______ _____ _____    ______ ____
ROOT
ATOM      1  N   UNL     1       4.776   4.917  18.103  0.00  0.00    +0.000 N 
ATOM      2  C   UNL     1       5.297   5.843  19.114  0.00  0.00    +0.000 C 
ATOM      3  C   UNL     1       6.820   5.633  19.245  0.00  0.00    +0.000 C 
ATOM      4  N   UNL     1       7.575   5.853  17.981  0.00  0.00    +0.000 NA
ATOM      5  C   UNL     1       6.986   4.957  16.950  0.00  0.00    +0.000 C 
ATOM      6  C   UNL     1       5.441   5.019  16.790  0.00  0.00    +0.000 C 
ENDROOT
BRANCH   1  12
ATOM      7  C   UNL     1       2.704   4.321  19.329  0.00  0.00    +0.000 A 
ATOM      8  C   UNL     1       1.640   3.417  19.512  0.00  0.00    +0.000 A 
ATOM      9  C   UNL     1       1.518   2.282  18.712  0.00  0.00    +0.000 A 
ATOM     10  C   UNL     1       2.463   2.039  17.729  0.00  0.00    +0.000 A 
ATOM     11  C   UNL     1       3.525   2.928  17.546  0.00  0.00    +0.000 A 
ATOM     12  C   UNL     1       3.689   4.090  18.332  0.00  0.00    +0.000 A 
BRANCH   7  14
ATOM     13  C   UNL     1       1.668   6.023  20.617  0.00  0.00    +0.000 C 
ATOM     14  O   UNL     1       2.869   5.380  20.193  0.00  0.00    +0.000 OA
ENDBRANCH   7  14
ENDBRANCH   1  12
BRANCH   4  15
ATOM     15  C   UNL     1       7.553   7.255  17.519  0.00  0.00    +0.000 C 
BRANCH  15  16
ATOM     16  C   UNL     1       8.202   8.197  18.533  0.00  0.00    +0.000 C 
BRANCH  16  17
ATOM     17  C   UNL     1       8.268   9.620  18.030  0.00  0.00    +0.000 C 
ATOM     18  O   UNL     1       7.488  10.073  17.196  0.00  0.00    +0.000 OA
BRANCH  17  19
ATOM     19  C   UNL     1       9.359  10.485  18.558  0.00  0.00    +0.000 A 
ATOM     20  C   UNL     1       9.544  10.536  19.946  0.00  0.00    +0.000 A 
ATOM     21  C   UNL     1      10.545  11.341  20.489  0.00  0.00    +0.000 A 
ATOM     22  C   UNL     1      11.363  12.079  19.642  0.00  0.00    +0.000 A 
ATOM     23  F   UNL     1      12.323  12.848  20.165  0.00  0.00    +0.000 F 
ATOM     24  C   UNL     1      11.202  12.032  18.264  0.00  0.00    +0.000 A 
ATOM     25  C   UNL     1      10.194  11.235  17.717  0.00  0.00    +0.000 A 
ENDBRANCH  17  19
ENDBRANCH  16  17
ENDBRANCH  15  16
ENDBRANCH   4  15
TORSDOF 6
ENDMDL
MODEL 9
REMARK VINA RESULT:      -6.8      5.075      7.166
REMARK  Name = 
REMARK  7 active torsions:
REMARK  status: ('A' for Active; 'I' for Inactive)
REMARK    1  A    between atoms: C_1  and  O_2
REMARK    2  A    between atoms: O_2  and  C_3
REMARK    3  A    between atoms: C_8  and  N_9
REMARK    4  A    between atoms: N_12  and  C_13
REMARK    5  A    between atoms: C_13  and  C_14
REMARK    6  A    between atoms: C_14  and  C_15
REMARK    7  A    between atoms: C_15  and  C_17
REMARK                            x       y       z     vdW  Elec       q    Type
REMARK                         _______ _______ _______ _____ _____    ______ ____
ROOT
ATOM      1  N   UNL     1       2.128   6.899  19.344  0.00  0.00    +0.000 N 
ATOM      2  C   UNL     1       2.182   6.189  20.626  0.00  0.00    +0.000 C 
ATOM      3  C   UNL     1       1.338   4.902  20.520  0.00  0.00    +0.000 C 
ATOM      4  N   UNL     1       1.786   3.967  19.452  0.00  0.00    +0.000 NA
ATOM      5  C   UNL     1       1.792   4.725  18.172  0.00  0.00    +0.000 C 
ATOM      6  C   UNL     1       2.542   6.087  18.185  0.00  0.00    +0.000 C 
ENDROOT
BRANCH   1  12
ATOM      7  C   UNL     1       1.120   8.980  20.246  0.00  0.00    +0.000 A 
ATOM      8  C   UNL     1       0.816  10.341  20.056  0.00  0.00    +0.000 A 
ATOM      9  C   UNL     1       1.195  11.005  18.891  0.00  0.00    +0.000 A 
ATOM     10  C   UNL     1       1.874  10.310  17.904  0.00  0.00    +0.000 A 
ATOM     11  C   UNL     1       2.174   8.957  18.082  0.00  0.00    +0.000 A 
ATOM     12  C   UNL     1       1.810   8.244  19.245  0.00  0.00    +0.000 A 
BRANCH   7  14
ATOM     13  C   UNL     1       0.518   9.098  22.537  0.00  0.00    +0.000 C 
ATOM     14  O   UNL     1       0.649   8.313  21.354  0.00  0.00    +0.000 OA
ENDBRANCH   7  14
ENDBRANCH   1  12
BRANCH   4  15
ATOM     15  C   UNL     1       3.115   3.376  19.706  0.00  0.00    +0.000 C 
BRANCH  15  16
ATOM     16  C   UNL     1       3.863   3.080  18.406  0.00  0.00    +0.000 C 
BRANCH  16  17
ATOM     17  C   UNL     1       5.207   3.768  18.351  0.00  0.00    +0.000 C 
ATOM     18  O   UNL     1       5.851   4.064  19.354  0.00  0.00    +0.000 OA
BRANCH  17  19
ATOM     19  C   UNL     1       5.740   4.126  17.007  0.00  0.00    +0.000 A 
ATOM     20  C   UNL     1       7.053   4.607  16.928  0.00  0.00    +0.000 A 
ATOM     21  C   UNL     1       7.592   4.968  15.694  0.00  0.00    +0.000 A 
ATOM     22  C   UNL     1       6.821   4.833  14.545  0.00  0.00    +0.000 A 
ATOM     23  F   UNL     1       7.341   5.177  13.362  0.00  0.00    +0.000 F 
ATOM     24  C   UNL     1       5.521   4.347  14.604  0.00  0.00    +0.000 A 
ATOM     25  C   UNL     1       4.974   3.995  15.839  0.00  0.00    +0.000 A 
ENDBRANCH  17  19
ENDBRANCH  16  17
ENDBRANCH  15  16
ENDBRANCH   4  15
TORSDOF 6
ENDMDL
