MODEL 1
REMARK VINA RESULT:      -7.6      0.000      0.000
REMARK  Name = 
REMARK  2 active torsions:
REMARK  status: ('A' for Active; 'I' for Inactive)
REMARK    1  A    between atoms: C_5  and  C_6
REMARK    2  A    between atoms: N_13  and  C_14
REMARK                            x       y       z     vdW  Elec       q    Type
REMARK                         _______ _______ _______ _____ _____    ______ ____
ROOT
ATOM      1  O   UNL     1       4.884   2.111  20.293  0.00  0.00    +0.000 OA
ATOM      2  C   UNL     1       3.889   2.801  20.078  0.00  0.00    +0.000 C 
ATOM      3  C   UNL     1       2.541   2.383  20.614  0.00  0.00    +0.000 C 
ATOM      4  S   UNL     1       1.339   3.605  20.094  0.00  0.00    +0.000 S 
ATOM      5  C   UNL     1       2.508   4.457  18.995  0.00  0.00    +0.000 C 
ATOM      6  N   UNL     1       3.838   3.966  19.305  0.00  0.00    +0.000 N 
ENDROOT
BRANCH   5   7
ATOM      7  C   UNL     1       2.325   5.966  19.107  0.00  0.00    +0.000 A 
ATOM      8  C   UNL     1       2.456   6.772  17.959  0.00  0.00    +0.000 A 
ATOM      9  C   UNL     1       2.208   8.149  18.009  0.00  0.00    +0.000 A 
ATOM     10  C   UNL     1       1.816   8.741  19.205  0.00  0.00    +0.000 A 
ATOM     11  C   UNL     1       1.698   7.959  20.346  0.00  0.00    +0.000 A 
ATOM     12  F   UNL     1       1.309   8.528  21.495  0.00  0.00    +0.000 F 
ATOM     13  C   UNL     1       1.959   6.589  20.316  0.00  0.00    +0.000 A 
ENDBRANCH   5   7
BRANCH   6  14
ATOM     14  C   UNL     1       4.989   4.398  18.581  0.00  0.00    +0.000 A 
ATOM     15  C   UNL     1       5.976   5.199  19.173  0.00  0.00    +0.000 A 
ATOM     16  C   UNL     1       7.063   5.663  18.426  0.00  0.00    +0.000 A 
ATOM     17  C   UNL     1       7.199   5.304  17.087  0.00  0.00    +0.000 A 
ATOM     18  C   UNL     1       6.245   4.486  16.493  0.00  0.00    +0.000 A 
ATOM     19  C   UNL     1       5.144   4.046  17.232  0.00  0.00    +0.000 A 
ENDBRANCH   6  14
TORSDOF 2
ENDMDL
MODEL 2
REMARK VINA RESULT:      -7.5      0.179      1.116
REMARK  Name = 
REMARK  2 active torsions:
REMARK  status: ('A' for Active; 'I' for Inactive)
REMARK    1  A    between atoms: C_5  and  C_6
REMARK    2  A    between atoms: N_13  and  C_14
REMARK                            x       y       z     vdW  Elec       q    Type
REMARK                         _______ _______ _______ _____ _____    ______ ____
ROOT
ATOM      1  O   UNL     1       4.836   2.098  20.134  0.00  0.00    +0.000 OA
ATOM      2  C   UNL     1       3.849   2.796  19.905  0.00  0.00    +0.000 C 
ATOM      3  C   UNL     1       2.479   2.348  20.352  0.00  0.00    +0.000 C 
ATOM      4  S   UNL     1       1.298   3.591  19.835  0.00  0.00    +0.000 S 
ATOM      5  C   UNL     1       2.515   4.500  18.839  0.00  0.00    +0.000 C 
ATOM      6  N   UNL     1       3.831   3.998  19.189  0.00  0.00    +0.000 N 
ENDROOT
BRANCH   5   7
ATOM      7  C   UNL     1       2.320   6.002  19.017  0.00  0.00    +0.000 A 
ATOM      8  C   UNL     1       2.427   6.857  17.902  0.00  0.00    +0.000 A 
ATOM      9  C   UNL     1       2.167   8.228  18.014  0.00  0.00    +0.000 A 
ATOM     10  C   UNL     1       1.786   8.765  19.239  0.00  0.00    +0.000 A 
ATOM     11  C   UNL     1       1.692   7.934  20.347  0.00  0.00    +0.000 A 
ATOM     12  F   UNL     1       1.314   8.450  21.525  0.00  0.00    +0.000 F 
ATOM     13  C   UNL     1       1.966   6.570  20.256  0.00  0.00    +0.000 A 
ENDBRANCH   5   7
BRANCH   6  14
ATOM     14  C   UNL     1       5.015   4.469  18.546  0.00  0.00    +0.000 A 
ATOM     15  C   UNL     1       5.308   4.150  17.213  0.00  0.00    +0.000 A 
ATOM     16  C   UNL     1       6.505   4.569  16.625  0.00  0.00    +0.000 A 
ATOM     17  C   UNL     1       7.409   5.343  17.348  0.00  0.00    +0.000 A 
ATOM     18  C   UNL     1       7.120   5.694  18.661  0.00  0.00    +0.000 A 
ATOM     19  C   UNL     1       5.937   5.251  19.258  0.00  0.00    +0.000 A 
ENDBRANCH   6  14
TORSDOF 2
ENDMDL
MODEL 3
REMARK VINA RESULT:      -7.3      1.038      1.515
REMARK  Name = 
REMARK  2 active torsions:
REMARK  status: ('A' for Active; 'I' for Inactive)
REMARK    1  A    between atoms: C_5  and  C_6
REMARK    2  A    between atoms: N_13  and  C_14
REMARK                            x       y       z     vdW  Elec       q    Type
REMARK                         _______ _______ _______ _____ _____    ______ ____
ROOT
ATOM      1  O   UNL     1       5.049   2.095  20.293  0.00  0.00    +0.000 OA
ATOM      2  C   UNL     1       4.006   2.720  20.103  0.00  0.00    +0.000 C 
ATOM      3  C   UNL     1       2.702   2.221  20.676  0.00  0.00    +0.000 C 
ATOM      4  S   UNL     1       1.412   3.362  20.185  0.00  0.00    +0.000 S 
ATOM      5  C   UNL     1       2.495   4.281  19.053  0.00  0.00    +0.000 C 
ATOM      6  N   UNL     1       3.861   3.877  19.328  0.00  0.00    +0.000 N 
ENDROOT
BRANCH   5   7
ATOM      7  C   UNL     1       2.221   5.776  19.165  0.00  0.00    +0.000 A 
ATOM      8  C   UNL     1       1.890   6.333  20.417  0.00  0.00    +0.000 A 
ATOM      9  C   UNL     1       1.718   7.713  20.573  0.00  0.00    +0.000 A 
ATOM     10  C   UNL     1       1.883   8.561  19.482  0.00  0.00    +0.000 A 
ATOM     11  C   UNL     1       2.195   8.022  18.242  0.00  0.00    +0.000 A 
ATOM     12  F   UNL     1       2.365   8.840  17.194  0.00  0.00    +0.000 F 
ATOM     13  C   UNL     1       2.351   6.647  18.067  0.00  0.00    +0.000 A 
ENDBRANCH   5   7
BRANCH   6  14
ATOM     14  C   UNL     1       4.964   4.377  18.573  0.00  0.00    +0.000 A 
ATOM     15  C   UNL     1       5.931   5.216  19.145  0.00  0.00    +0.000 A 
ATOM     16  C   UNL     1       6.966   5.745  18.369  0.00  0.00    +0.000 A 
ATOM     17  C   UNL     1       7.072   5.416  17.020  0.00  0.00    +0.000 A 
ATOM     18  C   UNL     1       6.139   4.561  16.444  0.00  0.00    +0.000 A 
ATOM     19  C   UNL     1       5.088   4.055  17.214  0.00  0.00    +0.000 A 
ENDBRANCH   6  14
TORSDOF 2
ENDMDL
MODEL 4
REMARK VINA RESULT:      -7.3      1.031      1.870
REMARK  Name = 
REMARK  2 active torsions:
REMARK  status: ('A' for Active; 'I' for Inactive)
REMARK    1  A    between atoms: C_5  and  C_6
REMARK    2  A    between atoms: N_13  and  C_14
REMARK                            x       y       z     vdW  Elec       q    Type
REMARK                         _______ _______ _______ _____ _____    ______ ____
ROOT
ATOM      1  O   UNL     1       5.022   2.132  20.260  0.00  0.00    +0.000 OA
ATOM      2  C   UNL     1       3.981   2.756  20.062  0.00  0.00    +0.000 C 
ATOM      3  C   UNL     1       2.669   2.242  20.604  0.00  0.00    +0.000 C 
ATOM      4  S   UNL     1       1.383   3.386  20.108  0.00  0.00    +0.000 S 
ATOM      5  C   UNL     1       2.482   4.327  19.010  0.00  0.00    +0.000 C 
ATOM      6  N   UNL     1       3.844   3.924  19.302  0.00  0.00    +0.000 N 
ENDROOT
BRANCH   5   7
ATOM      7  C   UNL     1       2.198   5.819  19.141  0.00  0.00    +0.000 A 
ATOM      8  C   UNL     1       1.849   6.356  20.396  0.00  0.00    +0.000 A 
ATOM      9  C   UNL     1       1.669   7.733  20.570  0.00  0.00    +0.000 A 
ATOM     10  C   UNL     1       1.844   8.597  19.495  0.00  0.00    +0.000 A 
ATOM     11  C   UNL     1       2.174   8.078  18.250  0.00  0.00    +0.000 A 
ATOM     12  F   UNL     1       2.353   8.913  17.217  0.00  0.00    +0.000 F 
ATOM     13  C   UNL     1       2.338   6.707  18.057  0.00  0.00    +0.000 A 
ENDBRANCH   5   7
BRANCH   6  14
ATOM     14  C   UNL     1       4.957   4.441  18.574  0.00  0.00    +0.000 A 
ATOM     15  C   UNL     1       5.150   4.152  17.216  0.00  0.00    +0.000 A 
ATOM     16  C   UNL     1       6.283   4.617  16.541  0.00  0.00    +0.000 A 
ATOM     17  C   UNL     1       7.220   5.407  17.202  0.00  0.00    +0.000 A 
ATOM     18  C   UNL     1       7.028   5.729  18.541  0.00  0.00    +0.000 A 
ATOM     19  C   UNL     1       5.911   5.240  19.223  0.00  0.00    +0.000 A 
ENDBRANCH   6  14
TORSDOF 2
ENDMDL
MODEL 5
REMARK VINA RESULT:      -7.3      2.264      4.755
REMARK  Name = 
REMARK  2 active torsions:
REMARK  status: ('A' for Active; 'I' for Inactive)
REMARK    1  A    between atoms: C_5  and  C_6
REMARK    2  A    between atoms: N_13  and  C_14
REMARK                            x       y       z     vdW  Elec       q    Type
REMARK                         _______ _______ _______ _____ _____    ______ ____
ROOT
ATOM      1  O   UNL     1       0.699   3.683  19.285  0.00  0.00    +0.000 OA
ATOM      2  C   UNL     1       1.918   3.526  19.345  0.00  0.00    +0.000 C 
ATOM      3  C   UNL     1       2.499   2.157  19.601  0.00  0.00    +0.000 C 
ATOM      4  S   UNL     1       4.283   2.314  19.641  0.00  0.00    +0.000 S 
ATOM      5  C   UNL     1       4.239   4.130  19.608  0.00  0.00    +0.000 C 
ATOM      6  N   UNL     1       2.889   4.530  19.257  0.00  0.00    +0.000 N 
ENDROOT
BRANCH   5   7
ATOM      7  C   UNL     1       5.337   4.663  18.694  0.00  0.00    +0.000 A 
ATOM      8  C   UNL     1       5.287   4.393  17.312  0.00  0.00    +0.000 A 
ATOM      9  C   UNL     1       6.229   4.939  16.433  0.00  0.00    +0.000 A 
ATOM     10  C   UNL     1       7.232   5.772  16.920  0.00  0.00    +0.000 A 
ATOM     11  C   UNL     1       7.300   6.032  18.282  0.00  0.00    +0.000 A 
ATOM     12  F   UNL     1       8.259   6.843  18.748  0.00  0.00    +0.000 F 
ATOM     13  C   UNL     1       6.379   5.480  19.172  0.00  0.00    +0.000 A 
ENDBRANCH   5   7
BRANCH   6  14
ATOM     14  C   UNL     1       2.500   5.902  19.194  0.00  0.00    +0.000 A 
ATOM     15  C   UNL     1       2.541   6.627  17.995  0.00  0.00    +0.000 A 
ATOM     16  C   UNL     1       2.217   7.986  17.971  0.00  0.00    +0.000 A 
ATOM     17  C   UNL     1       1.811   8.633  19.136  0.00  0.00    +0.000 A 
ATOM     18  C   UNL     1       1.736   7.921  20.328  0.00  0.00    +0.000 A 
ATOM     19  C   UNL     1       2.088   6.569  20.357  0.00  0.00    +0.000 A 
ENDBRANCH   6  14
TORSDOF 2
ENDMDL
MODEL 6
REMARK VINA RESULT:      -7.3      2.263      4.678
REMARK  Name = 
REMARK  2 active torsions:
REMARK  status: ('A' for Active; 'I' for Inactive)
REMARK    1  A    between atoms: C_5  and  C_6
REMARK    2  A    between atoms: N_13  and  C_14
REMARK                            x       y       z     vdW  Elec       q    Type
REMARK                         _______ _______ _______ _____ _____    ______ ____
ROOT
ATOM      1  O   UNL     1       0.658   3.706  19.050  0.00  0.00    +0.000 OA
ATOM      2  C   UNL     1       1.869   3.505  19.131  0.00  0.00    +0.000 C 
ATOM      3  C   UNL     1       2.400   2.102  19.299  0.00  0.00    +0.000 C 
ATOM      4  S   UNL     1       4.186   2.198  19.399  0.00  0.00    +0.000 S 
ATOM      5  C   UNL     1       4.199   4.012  19.500  0.00  0.00    +0.000 C 
ATOM      6  N   UNL     1       2.873   4.480  19.144  0.00  0.00    +0.000 N 
ENDROOT
BRANCH   5   7
ATOM      7  C   UNL     1       5.339   4.574  18.658  0.00  0.00    +0.000 A 
ATOM      8  C   UNL     1       5.376   4.317  17.273  0.00  0.00    +0.000 A 
ATOM      9  C   UNL     1       6.359   4.890  16.457  0.00  0.00    +0.000 A 
ATOM     10  C   UNL     1       7.314   5.736  17.010  0.00  0.00    +0.000 A 
ATOM     11  C   UNL     1       7.296   5.984  18.376  0.00  0.00    +0.000 A 
ATOM     12  F   UNL     1       8.211   6.808  18.906  0.00  0.00    +0.000 F 
ATOM     13  C   UNL     1       6.335   5.405  19.205  0.00  0.00    +0.000 A 
ENDBRANCH   5   7
BRANCH   6  14
ATOM     14  C   UNL     1       2.528   5.865  19.173  0.00  0.00    +0.000 A 
ATOM     15  C   UNL     1       2.104   6.496  20.351  0.00  0.00    +0.000 A 
ATOM     16  C   UNL     1       1.711   7.837  20.340  0.00  0.00    +0.000 A 
ATOM     17  C   UNL     1       1.769   8.578  19.162  0.00  0.00    +0.000 A 
ATOM     18  C   UNL     1       2.216   7.975  17.992  0.00  0.00    +0.000 A 
ATOM     19  C   UNL     1       2.582   6.627  17.997  0.00  0.00    +0.000 A 
ENDBRANCH   6  14
TORSDOF 2
ENDMDL
MODEL 7
REMARK VINA RESULT:      -7.1      2.564      4.937
REMARK  Name = 
REMARK  2 active torsions:
REMARK  status: ('A' for Active; 'I' for Inactive)
REMARK    1  A    between atoms: C_5  and  C_6
REMARK    2  A    between atoms: N_13  and  C_14
REMARK                            x       y       z     vdW  Elec       q    Type
REMARK                         _______ _______ _______ _____ _____    ______ ____
ROOT
ATOM      1  O   UNL     1       0.635   3.953  19.916  0.00  0.00    +0.000 OA
ATOM      2  C   UNL     1       1.837   3.727  19.782  0.00  0.00    +0.000 C 
ATOM      3  C   UNL     1       2.391   2.351  20.066  0.00  0.00    +0.000 C 
ATOM      4  S   UNL     1       4.159   2.401  19.786  0.00  0.00    +0.000 S 
ATOM      5  C   UNL     1       4.194   4.207  19.586  0.00  0.00    +0.000 C 
ATOM      6  N   UNL     1       2.823   4.657  19.434  0.00  0.00    +0.000 N 
ENDROOT
BRANCH   5   7
ATOM      7  C   UNL     1       5.138   4.589  18.452  0.00  0.00    +0.000 A 
ATOM      8  C   UNL     1       6.203   5.478  18.699  0.00  0.00    +0.000 A 
ATOM      9  C   UNL     1       7.139   5.780  17.704  0.00  0.00    +0.000 A 
ATOM     10  C   UNL     1       7.032   5.193  16.447  0.00  0.00    +0.000 A 
ATOM     11  C   UNL     1       5.978   4.328  16.188  0.00  0.00    +0.000 A 
ATOM     12  F   UNL     1       5.881   3.753  14.981  0.00  0.00    +0.000 F 
ATOM     13  C   UNL     1       5.026   4.031  17.164  0.00  0.00    +0.000 A 
ENDBRANCH   5   7
BRANCH   6  14
ATOM     14  C   UNL     1       2.492   6.039  19.306  0.00  0.00    +0.000 A 
ATOM     15  C   UNL     1       2.076   6.804  20.405  0.00  0.00    +0.000 A 
ATOM     16  C   UNL     1       1.696   8.139  20.243  0.00  0.00    +0.000 A 
ATOM     17  C   UNL     1       1.760   8.741  18.989  0.00  0.00    +0.000 A 
ATOM     18  C   UNL     1       2.199   8.006  17.894  0.00  0.00    +0.000 A 
ATOM     19  C   UNL     1       2.552   6.663  18.051  0.00  0.00    +0.000 A 
ENDBRANCH   6  14
TORSDOF 2
ENDMDL
MODEL 8
REMARK VINA RESULT:      -7.0      2.574      5.018
REMARK  Name = 
REMARK  2 active torsions:
REMARK  status: ('A' for Active; 'I' for Inactive)
REMARK    1  A    between atoms: C_5  and  C_6
REMARK    2  A    between atoms: N_13  and  C_14
REMARK                            x       y       z     vdW  Elec       q    Type
REMARK                         _______ _______ _______ _____ _____    ______ ____
ROOT
ATOM      1  O   UNL     1       0.668   3.914  19.973  0.00  0.00    +0.000 OA
ATOM      2  C   UNL     1       1.870   3.717  19.796  0.00  0.00    +0.000 C 
ATOM      3  C   UNL     1       2.471   2.362  20.078  0.00  0.00    +0.000 C 
ATOM      4  S   UNL     1       4.225   2.454  19.728  0.00  0.00    +0.000 S 
ATOM      5  C   UNL     1       4.203   4.256  19.500  0.00  0.00    +0.000 C 
ATOM      6  N   UNL     1       2.816   4.668  19.395  0.00  0.00    +0.000 N 
ENDROOT
BRANCH   5   7
ATOM      7  C   UNL     1       5.092   4.645  18.324  0.00  0.00    +0.000 A 
ATOM      8  C   UNL     1       6.134   5.574  18.514  0.00  0.00    +0.000 A 
ATOM      9  C   UNL     1       7.023   5.886  17.479  0.00  0.00    +0.000 A 
ATOM     10  C   UNL     1       6.890   5.268  16.240  0.00  0.00    +0.000 A 
ATOM     11  C   UNL     1       5.858   4.362  16.037  0.00  0.00    +0.000 A 
ATOM     12  F   UNL     1       5.738   3.759  14.846  0.00  0.00    +0.000 F 
ATOM     13  C   UNL     1       4.954   4.055  17.053  0.00  0.00    +0.000 A 
ENDBRANCH   5   7
BRANCH   6  14
ATOM     14  C   UNL     1       2.443   6.039  19.260  0.00  0.00    +0.000 A 
ATOM     15  C   UNL     1       2.477   6.695  18.022  0.00  0.00    +0.000 A 
ATOM     16  C   UNL     1       2.169   8.055  17.925  0.00  0.00    +0.000 A 
ATOM     17  C   UNL     1       1.788   8.771  19.057  0.00  0.00    +0.000 A 
ATOM     18  C   UNL     1       1.719   8.128  20.288  0.00  0.00    +0.000 A 
ATOM     19  C   UNL     1       2.055   6.775  20.389  0.00  0.00    +0.000 A 
ENDBRANCH   6  14
TORSDOF 2
ENDMDL
MODEL 9
REMARK VINA RESULT:      -7.0      1.155      1.521
REMARK  Name = 
REMARK  2 active torsions:
REMARK  status: ('A' for Active; 'I' for Inactive)
REMARK    1  A    between atoms: C_5  and  C_6
REMARK    2  A    between atoms: N_13  and  C_14
REMARK                            x       y       z     vdW  Elec       q    Type
REMARK                         _______ _______ _______ _____ _____    ______ ____
ROOT
ATOM      1  O   UNL     1       5.234   2.814  19.512  0.00  0.00    +0.000 OA
ATOM      2  C   UNL     1       4.212   3.447  19.251  0.00  0.00    +0.000 C 
ATOM      3  C   UNL     1       2.863   2.771  19.301  0.00  0.00    +0.000 C 
ATOM      4  S   UNL     1       1.623   3.982  18.849  0.00  0.00    +0.000 S 
ATOM      5  C   UNL     1       2.852   5.223  18.347  0.00  0.00    +0.000 C 
ATOM      6  N   UNL     1       4.145   4.781  18.833  0.00  0.00    +0.000 N 
ENDROOT
BRANCH   5   7
ATOM      7  C   UNL     1       2.416   6.608  18.814  0.00  0.00    +0.000 A 
ATOM      8  C   UNL     1       2.279   7.650  17.874  0.00  0.00    +0.000 A 
ATOM      9  C   UNL     1       1.797   8.908  18.254  0.00  0.00    +0.000 A 
ATOM     10  C   UNL     1       1.434   9.142  19.577  0.00  0.00    +0.000 A 
ATOM     11  C   UNL     1       1.579   8.127  20.513  0.00  0.00    +0.000 A 
ATOM     12  F   UNL     1       1.219   8.351  21.785  0.00  0.00    +0.000 F 
ATOM     13  C   UNL     1       2.076   6.875  20.153  0.00  0.00    +0.000 A 
ENDBRANCH   5   7
BRANCH   6  14
ATOM     14  C   UNL     1       5.342   5.509  18.563  0.00  0.00    +0.000 A 
ATOM     15  C   UNL     1       5.464   6.341  17.442  0.00  0.00    +0.000 A 
ATOM     16  C   UNL     1       6.669   6.993  17.163  0.00  0.00    +0.000 A 
ATOM     17  C   UNL     1       7.758   6.855  18.021  0.00  0.00    +0.000 A 
ATOM     18  C   UNL     1       7.644   6.058  19.155  0.00  0.00    +0.000 A 
ATOM     19  C   UNL     1       6.449   5.383  19.417  0.00  0.00    +0.000 A 
ENDBRANCH   6  14
TORSDOF 2
ENDMDL
