MODEL 1
REMARK VINA RESULT:      -7.6      0.000      0.000
REMARK  Name = 
REMARK  11 active torsions:
REMARK  status: ('A' for Active; 'I' for Inactive)
REMARK    1  A    between atoms: C_1  and  C_2
REMARK    2  A    between atoms: C_2  and  C_3
REMARK    3  A    between atoms: C_3  and  C_4
REMARK    4  A    between atoms: C_4  and  N_5
REMARK    5  A    between atoms: C_7  and  C_8
REMARK    6  A    between atoms: C_8  and  C_9
REMARK    7  A    between atoms: C_16  and  C_17
REMARK    8  A    between atoms: C_17  and  C_18
REMARK    9  A    between atoms: C_17  and  N_19
REMARK   10  A    between atoms: C_21  and  C_22
REMARK   11  A    between atoms: C_24  and  C_25
REMARK                            x       y       z     vdW  Elec       q    Type
REMARK                         _______ _______ _______ _____ _____    ______ ____
ROOT
ATOM      1  N   UNL     1       2.568   6.115  19.222  0.00  0.00    +0.000 N 
ATOM      2  N   UNL     1       2.214   7.396  19.474  0.00  0.00    +0.000 NA
ATOM      3  C   UNL     1       2.387   7.987  18.285  0.00  0.00    +0.000 A 
ATOM      4  N   UNL     1       2.879   7.155  17.314  0.00  0.00    +0.000 NA
ATOM      5  C   UNL     1       3.057   5.996  17.931  0.00  0.00    +0.000 A 
ENDROOT
BRANCH   5   6
ATOM      6  C   UNL     1       3.750   4.815  17.301  0.00  0.00    +0.000 C 
ATOM      7  C   UNL     1       3.160   3.458  17.679  0.00  0.00    +0.000 C 
BRANCH   6   8
ATOM      8  N   UNL     1       5.205   4.876  17.479  0.00  0.00    +0.000 N 
ATOM      9  N   UNL     1       5.708   5.318  18.655  0.00  0.00    +0.000 NA
ATOM     10  C   UNL     1       7.033   5.289  18.492  0.00  0.00    +0.000 A 
ATOM     11  C   UNL     1       7.933   5.776  19.562  0.00  0.00    +0.000 C 
ATOM     12  C   UNL     1       7.387   4.757  17.239  0.00  0.00    +0.000 A 
ATOM     13  C   UNL     1       6.196   4.479  16.605  0.00  0.00    +0.000 A 
ATOM     14  C   UNL     1       5.955   3.882  15.267  0.00  0.00    +0.000 C 
ENDBRANCH   6   8
ENDBRANCH   5   6
BRANCH   1  15
ATOM     15  C   UNL     1       2.527   5.127  20.280  0.00  0.00    +0.000 C 
BRANCH  15  16
ATOM     16  C   UNL     1       1.166   4.496  20.602  0.00  0.00    +0.000 C 
BRANCH  16  18
ATOM     17  C   UNL     1       2.454   2.601  21.647  0.00  0.00    +0.000 C 
ATOM     18  C   UNL     1       1.227   2.987  20.835  0.00  0.00    +0.000 C 
ENDBRANCH  16  18
ENDBRANCH  15  16
ENDBRANCH   1  15
BRANCH   3  19
ATOM     19  C   UNL     1       2.338   9.461  18.083  0.00  0.00    +0.000 C 
BRANCH  19  20
ATOM     20  C   UNL     1       1.018   9.988  18.570  0.00  0.00    +0.000 A 
ATOM     21  C   UNL     1      -0.176   9.747  17.880  0.00  0.00    +0.000 A 
ATOM     22  C   UNL     1      -1.358  10.348  18.309  0.00  0.00    +0.000 A 
ATOM     23  C   UNL     1      -1.311  11.168  19.422  0.00  0.00    +0.000 A 
ATOM     24  N   UNL     1      -0.184  11.413  20.125  0.00  0.00    +0.000 NA
ATOM     25  C   UNL     1       0.948  10.815  19.688  0.00  0.00    +0.000 A 
ENDBRANCH  19  20
ENDBRANCH   3  19
TORSDOF 7
ENDMDL
MODEL 2
REMARK VINA RESULT:      -7.4      1.967      5.609
REMARK  Name = 
REMARK  11 active torsions:
REMARK  status: ('A' for Active; 'I' for Inactive)
REMARK    1  A    between atoms: C_1  and  C_2
REMARK    2  A    between atoms: C_2  and  C_3
REMARK    3  A    between atoms: C_3  and  C_4
REMARK    4  A    between atoms: C_4  and  N_5
REMARK    5  A    between atoms: C_7  and  C_8
REMARK    6  A    between atoms: C_8  and  C_9
REMARK    7  A    between atoms: C_16  and  C_17
REMARK    8  A    between atoms: C_17  and  C_18
REMARK    9  A    between atoms: C_17  and  N_19
REMARK   10  A    between atoms: C_21  and  C_22
REMARK   11  A    between atoms: C_24  and  C_25
REMARK                            x       y       z     vdW  Elec       q    Type
REMARK                         _______ _______ _______ _____ _____    ______ ____
ROOT
ATOM      1  N   UNL     1       3.347   6.784  17.550  0.00  0.00    +0.000 N 
ATOM      2  N   UNL     1       2.344   5.996  18.004  0.00  0.00    +0.000 NA
ATOM      3  C   UNL     1       2.830   4.764  17.812  0.00  0.00    +0.000 A 
ATOM      4  N   UNL     1       4.064   4.736  17.216  0.00  0.00    +0.000 NA
ATOM      5  C   UNL     1       4.350   6.010  16.991  0.00  0.00    +0.000 A 
ENDROOT
BRANCH   5   6
ATOM      6  C   UNL     1       5.542   6.465  16.188  0.00  0.00    +0.000 C 
ATOM      7  C   UNL     1       6.019   5.465  15.139  0.00  0.00    +0.000 C 
BRANCH   6   8
ATOM      8  N   UNL     1       6.626   6.953  17.048  0.00  0.00    +0.000 N 
ATOM      9  N   UNL     1       6.884   8.280  17.096  0.00  0.00    +0.000 NA
ATOM     10  C   UNL     1       7.928   8.396  17.921  0.00  0.00    +0.000 A 
ATOM     11  C   UNL     1       8.546   9.718  18.171  0.00  0.00    +0.000 C 
ATOM     12  C   UNL     1       8.296   7.152  18.465  0.00  0.00    +0.000 A 
ATOM     13  C   UNL     1       7.434   6.234  17.904  0.00  0.00    +0.000 A 
ATOM     14  C   UNL     1       7.341   4.769  18.127  0.00  0.00    +0.000 C 
ENDBRANCH   6   8
ENDBRANCH   5   6
BRANCH   1  15
ATOM     15  C   UNL     1       3.209   8.225  17.577  0.00  0.00    +0.000 C 
BRANCH  15  16
ATOM     16  C   UNL     1       1.815   8.793  17.872  0.00  0.00    +0.000 C 
BRANCH  16  18
ATOM     17  C   UNL     1       0.562  10.743  18.859  0.00  0.00    +0.000 C 
ATOM     18  C   UNL     1       1.802  10.305  18.094  0.00  0.00    +0.000 C 
ENDBRANCH  16  18
ENDBRANCH  15  16
ENDBRANCH   1  15
BRANCH   3  19
ATOM     19  C   UNL     1       2.015   3.525  17.951  0.00  0.00    +0.000 C 
BRANCH  19  20
ATOM     20  C   UNL     1       2.062   3.055  19.377  0.00  0.00    +0.000 A 
ATOM     21  C   UNL     1       0.931   3.076  20.202  0.00  0.00    +0.000 A 
ATOM     22  C   UNL     1       1.048   2.736  21.548  0.00  0.00    +0.000 A 
ATOM     23  C   UNL     1       2.295   2.376  22.028  0.00  0.00    +0.000 A 
ATOM     24  N   UNL     1       3.407   2.327  21.263  0.00  0.00    +0.000 NA
ATOM     25  C   UNL     1       3.264   2.660  19.959  0.00  0.00    +0.000 A 
ENDBRANCH  19  20
ENDBRANCH   3  19
TORSDOF 7
ENDMDL
MODEL 3
REMARK VINA RESULT:      -7.1      0.915      1.904
REMARK  Name = 
REMARK  11 active torsions:
REMARK  status: ('A' for Active; 'I' for Inactive)
REMARK    1  A    between atoms: C_1  and  C_2
REMARK    2  A    between atoms: C_2  and  C_3
REMARK    3  A    between atoms: C_3  and  C_4
REMARK    4  A    between atoms: C_4  and  N_5
REMARK    5  A    between atoms: C_7  and  C_8
REMARK    6  A    between atoms: C_8  and  C_9
REMARK    7  A    between atoms: C_16  and  C_17
REMARK    8  A    between atoms: C_17  and  C_18
REMARK    9  A    between atoms: C_17  and  N_19
REMARK   10  A    between atoms: C_21  and  C_22
REMARK   11  A    between atoms: C_24  and  C_25
REMARK                            x       y       z     vdW  Elec       q    Type
REMARK                         _______ _______ _______ _____ _____    ______ ____
ROOT
ATOM      1  N   UNL     1       2.534   6.290  19.625  0.00  0.00    +0.000 N 
ATOM      2  N   UNL     1       1.880   7.462  19.448  0.00  0.00    +0.000 NA
ATOM      3  C   UNL     1       2.482   7.973  18.367  0.00  0.00    +0.000 A 
ATOM      4  N   UNL     1       3.513   7.207  17.887  0.00  0.00    +0.000 NA
ATOM      5  C   UNL     1       3.583   6.185  18.727  0.00  0.00    +0.000 A 
ENDROOT
BRANCH   5   6
ATOM      6  C   UNL     1       4.690   5.161  18.701  0.00  0.00    +0.000 C 
ATOM      7  C   UNL     1       5.952   5.573  19.455  0.00  0.00    +0.000 C 
BRANCH   6   8
ATOM      8  N   UNL     1       4.965   4.689  17.339  0.00  0.00    +0.000 N 
ATOM      9  N   UNL     1       6.081   5.116  16.706  0.00  0.00    +0.000 NA
ATOM     10  C   UNL     1       6.027   4.549  15.498  0.00  0.00    +0.000 A 
ATOM     11  C   UNL     1       7.063   4.842  14.482  0.00  0.00    +0.000 C 
ATOM     12  C   UNL     1       4.915   3.695  15.379  0.00  0.00    +0.000 A 
ATOM     13  C   UNL     1       4.250   3.784  16.582  0.00  0.00    +0.000 A 
ATOM     14  C   UNL     1       3.020   3.085  17.035  0.00  0.00    +0.000 C 
ENDBRANCH   6   8
ENDBRANCH   5   6
BRANCH   1  15
ATOM     15  C   UNL     1       2.178   5.417  20.724  0.00  0.00    +0.000 C 
BRANCH  15  16
ATOM     16  C   UNL     1       1.006   4.451  20.505  0.00  0.00    +0.000 C 
BRANCH  16  18
ATOM     17  C   UNL     1       2.670   2.755  21.341  0.00  0.00    +0.000 C 
ATOM     18  C   UNL     1       1.414   2.979  20.512  0.00  0.00    +0.000 C 
ENDBRANCH  16  18
ENDBRANCH  15  16
ENDBRANCH   1  15
BRANCH   3  19
ATOM     19  C   UNL     1       2.272   9.367  17.888  0.00  0.00    +0.000 C 
BRANCH  19  20
ATOM     20  C   UNL     1       1.000   9.908  18.474  0.00  0.00    +0.000 A 
ATOM     21  C   UNL     1      -0.246   9.683  17.877  0.00  0.00    +0.000 A 
ATOM     22  C   UNL     1      -1.385  10.297  18.394  0.00  0.00    +0.000 A 
ATOM     23  C   UNL     1      -1.244  11.116  19.500  0.00  0.00    +0.000 A 
ATOM     24  N   UNL     1      -0.065  11.346  20.116  0.00  0.00    +0.000 NA
ATOM     25  C   UNL     1       1.024  10.735  19.594  0.00  0.00    +0.000 A 
ENDBRANCH  19  20
ENDBRANCH   3  19
TORSDOF 7
ENDMDL
MODEL 4
REMARK VINA RESULT:      -7.0      1.148      2.091
REMARK  Name = 
REMARK  11 active torsions:
REMARK  status: ('A' for Active; 'I' for Inactive)
REMARK    1  A    between atoms: C_1  and  C_2
REMARK    2  A    between atoms: C_2  and  C_3
REMARK    3  A    between atoms: C_3  and  C_4
REMARK    4  A    between atoms: C_4  and  N_5
REMARK    5  A    between atoms: C_7  and  C_8
REMARK    6  A    between atoms: C_8  and  C_9
REMARK    7  A    between atoms: C_16  and  C_17
REMARK    8  A    between atoms: C_17  and  C_18
REMARK    9  A    between atoms: C_17  and  N_19
REMARK   10  A    between atoms: C_21  and  C_22
REMARK   11  A    between atoms: C_24  and  C_25
REMARK                            x       y       z     vdW  Elec       q    Type
REMARK                         _______ _______ _______ _____ _____    ______ ____
ROOT
ATOM      1  N   UNL     1       2.603   5.468  19.857  0.00  0.00    +0.000 N 
ATOM      2  N   UNL     1       2.196   6.759  19.840  0.00  0.00    +0.000 NA
ATOM      3  C   UNL     1       2.562   7.165  18.618  0.00  0.00    +0.000 A 
ATOM      4  N   UNL     1       3.222   6.212  17.887  0.00  0.00    +0.000 NA
ATOM      5  C   UNL     1       3.306   5.171  18.702  0.00  0.00    +0.000 A 
ENDROOT
BRANCH   5   6
ATOM      6  C   UNL     1       4.109   3.934  18.392  0.00  0.00    +0.000 C 
ATOM      7  C   UNL     1       4.621   3.186  19.621  0.00  0.00    +0.000 C 
BRANCH   6   8
ATOM      8  N   UNL     1       5.162   4.199  17.404  0.00  0.00    +0.000 N 
ATOM      9  N   UNL     1       4.965   3.836  16.116  0.00  0.00    +0.000 NA
ATOM     10  C   UNL     1       6.096   4.171  15.490  0.00  0.00    +0.000 A 
ATOM     11  C   UNL     1       6.281   3.860  14.054  0.00  0.00    +0.000 C 
ATOM     12  C   UNL     1       6.993   4.820  16.358  0.00  0.00    +0.000 A 
ATOM     13  C   UNL     1       6.368   4.845  17.586  0.00  0.00    +0.000 A 
ATOM     14  C   UNL     1       6.834   5.424  18.871  0.00  0.00    +0.000 C 
ENDBRANCH   6   8
ENDBRANCH   5   6
BRANCH   1  15
ATOM     15  C   UNL     1       2.393   4.656  21.037  0.00  0.00    +0.000 C 
BRANCH  15  16
ATOM     16  C   UNL     1       1.439   3.461  20.909  0.00  0.00    +0.000 C 
BRANCH  16  18
ATOM     17  C   UNL     1       0.822   2.291  18.766  0.00  0.00    +0.000 C 
ATOM     18  C   UNL     1       0.570   3.501  19.653  0.00  0.00    +0.000 C 
ENDBRANCH  16  18
ENDBRANCH  15  16
ENDBRANCH   1  15
BRANCH   3  19
ATOM     19  C   UNL     1       2.532   8.587  18.179  0.00  0.00    +0.000 C 
BRANCH  19  20
ATOM     20  C   UNL     1       1.251   9.224  18.639  0.00  0.00    +0.000 A 
ATOM     21  C   UNL     1       0.226   9.557  17.745  0.00  0.00    +0.000 A 
ATOM     22  C   UNL     1      -0.895  10.246  18.201  0.00  0.00    +0.000 A 
ATOM     23  C   UNL     1      -0.962  10.576  19.544  0.00  0.00    +0.000 A 
ATOM     24  N   UNL     1      -0.004  10.259  20.441  0.00  0.00    +0.000 NA
ATOM     25  C   UNL     1       1.073   9.588  19.971  0.00  0.00    +0.000 A 
ENDBRANCH  19  20
ENDBRANCH   3  19
TORSDOF 7
ENDMDL
MODEL 5
REMARK VINA RESULT:      -7.0      0.698      1.146
REMARK  Name = 
REMARK  11 active torsions:
REMARK  status: ('A' for Active; 'I' for Inactive)
REMARK    1  A    between atoms: C_1  and  C_2
REMARK    2  A    between atoms: C_2  and  C_3
REMARK    3  A    between atoms: C_3  and  C_4
REMARK    4  A    between atoms: C_4  and  N_5
REMARK    5  A    between atoms: C_7  and  C_8
REMARK    6  A    between atoms: C_8  and  C_9
REMARK    7  A    between atoms: C_16  and  C_17
REMARK    8  A    between atoms: C_17  and  C_18
REMARK    9  A    between atoms: C_17  and  N_19
REMARK   10  A    between atoms: C_21  and  C_22
REMARK   11  A    between atoms: C_24  and  C_25
REMARK                            x       y       z     vdW  Elec       q    Type
REMARK                         _______ _______ _______ _____ _____    ______ ____
ROOT
ATOM      1  N   UNL     1       2.692   6.076  19.125  0.00  0.00    +0.000 N 
ATOM      2  N   UNL     1       2.333   7.344  19.434  0.00  0.00    +0.000 NA
ATOM      3  C   UNL     1       2.503   7.987  18.272  0.00  0.00    +0.000 A 
ATOM      4  N   UNL     1       2.997   7.201  17.265  0.00  0.00    +0.000 NA
ATOM      5  C   UNL     1       3.180   6.016  17.830  0.00  0.00    +0.000 A 
ENDROOT
BRANCH   5   6
ATOM      6  C   UNL     1       3.877   4.867  17.148  0.00  0.00    +0.000 C 
ATOM      7  C   UNL     1       3.255   3.499  17.418  0.00  0.00    +0.000 C 
BRANCH   6   8
ATOM      8  N   UNL     1       5.326   4.892  17.376  0.00  0.00    +0.000 N 
ATOM      9  N   UNL     1       5.799   5.344  18.560  0.00  0.00    +0.000 NA
ATOM     10  C   UNL     1       7.128   5.277  18.445  0.00  0.00    +0.000 A 
ATOM     11  C   UNL     1       8.003   5.760  19.537  0.00  0.00    +0.000 C 
ATOM     12  C   UNL     1       7.511   4.710  17.215  0.00  0.00    +0.000 A 
ATOM     13  C   UNL     1       6.335   4.451  16.545  0.00  0.00    +0.000 A 
ATOM     14  C   UNL     1       6.125   3.835  15.211  0.00  0.00    +0.000 C 
ENDBRANCH   6   8
ENDBRANCH   5   6
BRANCH   1  15
ATOM     15  C   UNL     1       2.656   5.042  20.138  0.00  0.00    +0.000 C 
BRANCH  15  16
ATOM     16  C   UNL     1       1.276   4.589  20.633  0.00  0.00    +0.000 C 
BRANCH  16  18
ATOM     17  C   UNL     1       0.626   2.561  19.289  0.00  0.00    +0.000 C 
ATOM     18  C   UNL     1       1.094   3.072  20.643  0.00  0.00    +0.000 C 
ENDBRANCH  16  18
ENDBRANCH  15  16
ENDBRANCH   1  15
BRANCH   3  19
ATOM     19  C   UNL     1       2.449   9.469  18.135  0.00  0.00    +0.000 C 
BRANCH  19  20
ATOM     20  C   UNL     1       1.113   9.965  18.612  0.00  0.00    +0.000 A 
ATOM     21  C   UNL     1       0.942  10.527  19.883  0.00  0.00    +0.000 A 
ATOM     22  C   UNL     1      -0.334  10.870  20.323  0.00  0.00    +0.000 A 
ATOM     23  C   UNL     1      -1.404  10.647  19.473  0.00  0.00    +0.000 A 
ATOM     24  N   UNL     1      -1.280  10.123  18.235  0.00  0.00    +0.000 NA
ATOM     25  C   UNL     1      -0.029   9.801  17.832  0.00  0.00    +0.000 A 
ENDBRANCH  19  20
ENDBRANCH   3  19
TORSDOF 7
ENDMDL
MODEL 6
REMARK VINA RESULT:      -7.0      1.229      2.226
REMARK  Name = 
REMARK  11 active torsions:
REMARK  status: ('A' for Active; 'I' for Inactive)
REMARK    1  A    between atoms: C_1  and  C_2
REMARK    2  A    between atoms: C_2  and  C_3
REMARK    3  A    between atoms: C_3  and  C_4
REMARK    4  A    between atoms: C_4  and  N_5
REMARK    5  A    between atoms: C_7  and  C_8
REMARK    6  A    between atoms: C_8  and  C_9
REMARK    7  A    between atoms: C_16  and  C_17
REMARK    8  A    between atoms: C_17  and  C_18
REMARK    9  A    between atoms: C_17  and  N_19
REMARK   10  A    between atoms: C_21  and  C_22
REMARK   11  A    between atoms: C_24  and  C_25
REMARK                            x       y       z     vdW  Elec       q    Type
REMARK                         _______ _______ _______ _____ _____    ______ ____
ROOT
ATOM      1  N   UNL     1       2.475   5.545  18.404  0.00  0.00    +0.000 N 
ATOM      2  N   UNL     1       1.801   6.719  18.427  0.00  0.00    +0.000 NA
ATOM      3  C   UNL     1       2.669   7.566  17.859  0.00  0.00    +0.000 A 
ATOM      4  N   UNL     1       3.870   6.995  17.527  0.00  0.00    +0.000 NA
ATOM      5  C   UNL     1       3.764   5.740  17.939  0.00  0.00    +0.000 A 
ENDROOT
BRANCH   5   6
ATOM      6  C   UNL     1       4.914   4.766  17.942  0.00  0.00    +0.000 C 
ATOM      7  C   UNL     1       5.797   4.832  19.186  0.00  0.00    +0.000 C 
BRANCH   6   8
ATOM      8  N   UNL     1       5.682   4.821  16.693  0.00  0.00    +0.000 N 
ATOM      9  N   UNL     1       5.268   4.091  15.632  0.00  0.00    +0.000 NA
ATOM     10  C   UNL     1       6.178   4.322  14.682  0.00  0.00    +0.000 A 
ATOM     11  C   UNL     1       6.094   3.630  13.376  0.00  0.00    +0.000 C 
ATOM     12  C   UNL     1       7.137   5.261  15.105  0.00  0.00    +0.000 A 
ATOM     13  C   UNL     1       6.792   5.585  16.399  0.00  0.00    +0.000 A 
ATOM     14  C   UNL     1       7.434   6.542  17.335  0.00  0.00    +0.000 C 
ENDBRANCH   6   8
ENDBRANCH   5   6
BRANCH   1  15
ATOM     15  C   UNL     1       1.868   4.348  18.948  0.00  0.00    +0.000 C 
BRANCH  15  16
ATOM     16  C   UNL     1       1.219   4.455  20.335  0.00  0.00    +0.000 C 
BRANCH  16  18
ATOM     17  C   UNL     1       2.721   2.687  21.315  0.00  0.00    +0.000 C 
ATOM     18  C   UNL     1       1.286   3.161  21.145  0.00  0.00    +0.000 C 
ENDBRANCH  16  18
ENDBRANCH  15  16
ENDBRANCH   1  15
BRANCH   3  19
ATOM     19  C   UNL     1       2.489   9.044  17.844  0.00  0.00    +0.000 C 
BRANCH  19  20
ATOM     20  C   UNL     1       1.269   9.405  18.642  0.00  0.00    +0.000 A 
ATOM     21  C   UNL     1       0.109   9.904  18.038  0.00  0.00    +0.000 A 
ATOM     22  C   UNL     1      -0.957  10.330  18.828  0.00  0.00    +0.000 A 
ATOM     23  C   UNL     1      -0.832  10.237  20.204  0.00  0.00    +0.000 A 
ATOM     24  N   UNL     1       0.262   9.748  20.825  0.00  0.00    +0.000 NA
ATOM     25  C   UNL     1       1.280   9.339  20.033  0.00  0.00    +0.000 A 
ENDBRANCH  19  20
ENDBRANCH   3  19
TORSDOF 7
ENDMDL
MODEL 7
REMARK VINA RESULT:      -6.9      3.536      6.149
REMARK  Name = 
REMARK  11 active torsions:
REMARK  status: ('A' for Active; 'I' for Inactive)
REMARK    1  A    between atoms: C_1  and  C_2
REMARK    2  A    between atoms: C_2  and  C_3
REMARK    3  A    between atoms: C_3  and  C_4
REMARK    4  A    between atoms: C_4  and  N_5
REMARK    5  A    between atoms: C_7  and  C_8
REMARK    6  A    between atoms: C_8  and  C_9
REMARK    7  A    between atoms: C_16  and  C_17
REMARK    8  A    between atoms: C_17  and  C_18
REMARK    9  A    between atoms: C_17  and  N_19
REMARK   10  A    between atoms: C_21  and  C_22
REMARK   11  A    between atoms: C_24  and  C_25
REMARK                            x       y       z     vdW  Elec       q    Type
REMARK                         _______ _______ _______ _____ _____    ______ ____
ROOT
ATOM      1  N   UNL     1       6.449   4.350  17.474  0.00  0.00    +0.000 N 
ATOM      2  N   UNL     1       5.698   3.593  18.308  0.00  0.00    +0.000 NA
ATOM      3  C   UNL     1       4.663   3.244  17.534  0.00  0.00    +0.000 A 
ATOM      4  N   UNL     1       4.700   3.783  16.275  0.00  0.00    +0.000 NA
ATOM      5  C   UNL     1       5.791   4.534  16.269  0.00  0.00    +0.000 A 
ENDROOT
BRANCH   5   6
ATOM      6  C   UNL     1       6.154   5.467  15.142  0.00  0.00    +0.000 C 
ATOM      7  C   UNL     1       5.214   6.659  14.978  0.00  0.00    +0.000 C 
BRANCH   6   8
ATOM      8  N   UNL     1       6.385   4.743  13.886  0.00  0.00    +0.000 N 
ATOM      9  N   UNL     1       5.470   3.839  13.469  0.00  0.00    +0.000 NA
ATOM     10  C   UNL     1       5.976   3.337  12.339  0.00  0.00    +0.000 A 
ATOM     11  C   UNL     1       5.274   2.252  11.617  0.00  0.00    +0.000 C 
ATOM     12  C   UNL     1       7.182   3.972  11.988  0.00  0.00    +0.000 A 
ATOM     13  C   UNL     1       7.422   4.889  12.989  0.00  0.00    +0.000 A 
ATOM     14  C   UNL     1       8.539   5.856  13.134  0.00  0.00    +0.000 C 
ENDBRANCH   6   8
ENDBRANCH   5   6
BRANCH   1  15
ATOM     15  C   UNL     1       7.685   4.941  17.943  0.00  0.00    +0.000 C 
BRANCH  15  16
ATOM     16  C   UNL     1       7.603   6.336  18.577  0.00  0.00    +0.000 C 
BRANCH  16  18
ATOM     17  C   UNL     1       8.299   8.704  18.078  0.00  0.00    +0.000 C 
ATOM     18  C   UNL     1       7.572   7.474  17.557  0.00  0.00    +0.000 C 
ENDBRANCH  16  18
ENDBRANCH  15  16
ENDBRANCH   1  15
BRANCH   3  19
ATOM     19  C   UNL     1       3.435   2.580  18.051  0.00  0.00    +0.000 C 
BRANCH  19  20
ATOM     20  C   UNL     1       2.803   3.450  19.100  0.00  0.00    +0.000 A 
ATOM     21  C   UNL     1       2.367   4.751  18.820  0.00  0.00    +0.000 A 
ATOM     22  C   UNL     1       1.890   5.559  19.850  0.00  0.00    +0.000 A 
ATOM     23  C   UNL     1       1.855   5.037  21.132  0.00  0.00    +0.000 A 
ATOM     24  N   UNL     1       2.250   3.783  21.441  0.00  0.00    +0.000 NA
ATOM     25  C   UNL     1       2.706   3.020  20.421  0.00  0.00    +0.000 A 
ENDBRANCH  19  20
ENDBRANCH   3  19
TORSDOF 7
ENDMDL
MODEL 8
REMARK VINA RESULT:      -6.8      2.711      7.881
REMARK  Name = 
REMARK  11 active torsions:
REMARK  status: ('A' for Active; 'I' for Inactive)
REMARK    1  A    between atoms: C_1  and  C_2
REMARK    2  A    between atoms: C_2  and  C_3
REMARK    3  A    between atoms: C_3  and  C_4
REMARK    4  A    between atoms: C_4  and  N_5
REMARK    5  A    between atoms: C_7  and  C_8
REMARK    6  A    between atoms: C_8  and  C_9
REMARK    7  A    between atoms: C_16  and  C_17
REMARK    8  A    between atoms: C_17  and  C_18
REMARK    9  A    between atoms: C_17  and  N_19
REMARK   10  A    between atoms: C_21  and  C_22
REMARK   11  A    between atoms: C_24  and  C_25
REMARK                            x       y       z     vdW  Elec       q    Type
REMARK                         _______ _______ _______ _____ _____    ______ ____
ROOT
ATOM      1  N   UNL     1       6.922   4.697  16.505  0.00  0.00    +0.000 N 
ATOM      2  N   UNL     1       7.646   4.964  15.393  0.00  0.00    +0.000 NA
ATOM      3  C   UNL     1       6.720   4.935  14.427  0.00  0.00    +0.000 A 
ATOM      4  N   UNL     1       5.462   4.614  14.867  0.00  0.00    +0.000 NA
ATOM      5  C   UNL     1       5.613   4.397  16.165  0.00  0.00    +0.000 A 
ENDROOT
BRANCH   5   6
ATOM      6  C   UNL     1       4.524   3.843  17.048  0.00  0.00    +0.000 C 
ATOM      7  C   UNL     1       3.504   2.968  16.323  0.00  0.00    +0.000 C 
BRANCH   6   8
ATOM      8  N   UNL     1       3.901   4.888  17.869  0.00  0.00    +0.000 N 
ATOM      9  N   UNL     1       3.592   6.076  17.301  0.00  0.00    +0.000 NA
ATOM     10  C   UNL     1       3.084   6.809  18.295  0.00  0.00    +0.000 A 
ATOM     11  C   UNL     1       2.688   8.217  18.066  0.00  0.00    +0.000 C 
ATOM     12  C   UNL     1       2.995   6.068  19.488  0.00  0.00    +0.000 A 
ATOM     13  C   UNL     1       3.510   4.825  19.191  0.00  0.00    +0.000 A 
ATOM     14  C   UNL     1       3.648   3.628  20.058  0.00  0.00    +0.000 C 
ENDBRANCH   6   8
ENDBRANCH   5   6
BRANCH   1  15
ATOM     15  C   UNL     1       7.572   4.628  17.797  0.00  0.00    +0.000 C 
BRANCH  15  16
ATOM     16  C   UNL     1       7.294   5.768  18.786  0.00  0.00    +0.000 C 
BRANCH  16  18
ATOM     17  C   UNL     1       7.586   7.931  17.530  0.00  0.00    +0.000 C 
ATOM     18  C   UNL     1       8.178   6.996  18.573  0.00  0.00    +0.000 C 
ENDBRANCH  16  18
ENDBRANCH  15  16
ENDBRANCH   1  15
BRANCH   3  19
ATOM     19  C   UNL     1       7.044   4.955  12.974  0.00  0.00    +0.000 C 
BRANCH  19  20
ATOM     20  C   UNL     1       6.597   3.666  12.346  0.00  0.00    +0.000 A 
ATOM     21  C   UNL     1       7.511   2.710  11.885  0.00  0.00    +0.000 A 
ATOM     22  C   UNL     1       7.052   1.581  11.210  0.00  0.00    +0.000 A 
ATOM     23  C   UNL     1       5.689   1.438  11.022  0.00  0.00    +0.000 A 
ATOM     24  N   UNL     1       4.774   2.326  11.464  0.00  0.00    +0.000 NA
ATOM     25  C   UNL     1       5.247   3.412  12.119  0.00  0.00    +0.000 A 
ENDBRANCH  19  20
ENDBRANCH   3  19
TORSDOF 7
ENDMDL
MODEL 9
REMARK VINA RESULT:      -6.7      1.740      2.797
REMARK  Name = 
REMARK  11 active torsions:
REMARK  status: ('A' for Active; 'I' for Inactive)
REMARK    1  A    between atoms: C_1  and  C_2
REMARK    2  A    between atoms: C_2  and  C_3
REMARK    3  A    between atoms: C_3  and  C_4
REMARK    4  A    between atoms: C_4  and  N_5
REMARK    5  A    between atoms: C_7  and  C_8
REMARK    6  A    between atoms: C_8  and  C_9
REMARK    7  A    between atoms: C_16  and  C_17
REMARK    8  A    between atoms: C_17  and  C_18
REMARK    9  A    between atoms: C_17  and  N_19
REMARK   10  A    between atoms: C_21  and  C_22
REMARK   11  A    between atoms: C_24  and  C_25
REMARK                            x       y       z     vdW  Elec       q    Type
REMARK                         _______ _______ _______ _____ _____    ______ ____
ROOT
ATOM      1  N   UNL     1       3.853   5.688  18.789  0.00  0.00    +0.000 N 
ATOM      2  N   UNL     1       2.782   6.511  18.885  0.00  0.00    +0.000 NA
ATOM      3  C   UNL     1       3.023   7.417  17.930  0.00  0.00    +0.000 A 
ATOM      4  N   UNL     1       4.212   7.235  17.273  0.00  0.00    +0.000 NA
ATOM      5  C   UNL     1       4.760   6.186  17.869  0.00  0.00    +0.000 A 
ENDROOT
BRANCH   5   6
ATOM      6  C   UNL     1       6.166   5.715  17.596  0.00  0.00    +0.000 C 
ATOM      7  C   UNL     1       7.250   6.746  17.903  0.00  0.00    +0.000 C 
BRANCH   6   8
ATOM      8  N   UNL     1       6.297   5.129  16.258  0.00  0.00    +0.000 N 
ATOM      9  N   UNL     1       7.215   5.635  15.403  0.00  0.00    +0.000 NA
ATOM     10  C   UNL     1       7.065   4.926  14.281  0.00  0.00    +0.000 A 
ATOM     11  C   UNL     1       7.866   5.245  13.077  0.00  0.00    +0.000 C 
ATOM     12  C   UNL     1       6.103   3.912  14.437  0.00  0.00    +0.000 A 
ATOM     13  C   UNL     1       5.629   4.046  15.724  0.00  0.00    +0.000 A 
ATOM     14  C   UNL     1       4.617   3.235  16.447  0.00  0.00    +0.000 C 
ENDBRANCH   6   8
ENDBRANCH   5   6
BRANCH   1  15
ATOM     15  C   UNL     1       3.980   4.552  19.678  0.00  0.00    +0.000 C 
BRANCH  15  16
ATOM     16  C   UNL     1       2.685   3.939  20.226  0.00  0.00    +0.000 C 
BRANCH  16  18
ATOM     17  C   UNL     1       0.968   2.663  18.896  0.00  0.00    +0.000 C 
ATOM     18  C   UNL     1       2.321   2.599  19.589  0.00  0.00    +0.000 C 
ENDBRANCH  16  18
ENDBRANCH  15  16
ENDBRANCH   1  15
BRANCH   3  19
ATOM     19  C   UNL     1       2.242   8.675  17.771  0.00  0.00    +0.000 C 
BRANCH  19  20
ATOM     20  C   UNL     1       1.489   8.957  19.040  0.00  0.00    +0.000 A 
ATOM     21  C   UNL     1       1.747   8.258  20.226  0.00  0.00    +0.000 A 
ATOM     22  C   UNL     1       0.949   8.476  21.347  0.00  0.00    +0.000 A 
ATOM     23  C   UNL     1      -0.082   9.394  21.250  0.00  0.00    +0.000 A 
ATOM     24  N   UNL     1      -0.354  10.099  20.132  0.00  0.00    +0.000 NA
ATOM     25  C   UNL     1       0.438   9.870  19.059  0.00  0.00    +0.000 A 
ENDBRANCH  19  20
ENDBRANCH   3  19
TORSDOF 7
ENDMDL
