MODEL 1
REMARK VINA RESULT:      -7.6      0.000      0.000
REMARK  Name = 
REMARK  7 active torsions:
REMARK  status: ('A' for Active; 'I' for Inactive)
REMARK    1  A    between atoms: C_1  and  C_2
REMARK    2  A    between atoms: C_2  and  N_3
REMARK    3  A    between atoms: N_3  and  C_4
REMARK    4  A    between atoms: N_7  and  C_8
REMARK    5  A    between atoms: C_11  and  C_12
REMARK    6  A    between atoms: C_12  and  C_13
REMARK    7  A    between atoms: C_13  and  N_14
REMARK                            x       y       z     vdW  Elec       q    Type
REMARK                         _______ _______ _______ _____ _____    ______ ____
ROOT
ATOM      1  C   UNL     1       8.056   7.604  17.449  0.00  0.00    +0.000 C 
ENDROOT
BRANCH   1   2
ATOM      2  N   UNL     1       7.103   6.796  16.674  0.00  0.00    +0.000 NA
ATOM      3  C   UNL     1       7.411   5.341  16.719  0.00  0.00    +0.000 C 
ATOM      4  C   UNL     1       7.124   4.637  18.072  0.00  0.00    +0.000 C 
ATOM      5  N   UNL     1       5.730   4.901  18.427  0.00  0.00    +0.000 N 
ATOM      6  C   UNL     1       4.937   3.926  18.960  0.00  0.00    +0.000 A 
ATOM      7  N   UNL     1       5.395   2.950  19.737  0.00  0.00    +0.000 NA
ATOM      8  S   UNL     1       4.140   1.985  20.204  0.00  0.00    +0.000 S 
ATOM      9  C   UNL     1       2.921   2.796  19.312  0.00  0.00    +0.000 A 
ATOM     10  C   UNL     1       1.546   2.515  19.206  0.00  0.00    +0.000 A 
ATOM     11  C   UNL     1       0.762   3.324  18.376  0.00  0.00    +0.000 A 
ATOM     12  C   UNL     1       1.329   4.361  17.656  0.00  0.00    +0.000 A 
ATOM     13  C   UNL     1       2.697   4.623  17.762  0.00  0.00    +0.000 A 
ATOM     14  C   UNL     1       3.519   3.855  18.630  0.00  0.00    +0.000 A 
ATOM     15  C   UNL     1       5.398   6.322  18.523  0.00  0.00    +0.000 C 
ATOM     16  C   UNL     1       5.718   7.002  17.168  0.00  0.00    +0.000 C 
ENDBRANCH   1   2
BRANCH   1  17
ATOM     17  C   UNL     1       7.561   9.025  17.766  0.00  0.00    +0.000 C 
BRANCH  17  21
ATOM     18  C   UNL     1       9.615  12.573  19.266  0.00  0.00    +0.000 C 
ATOM     19  C   UNL     1       9.195  12.579  17.797  0.00  0.00    +0.000 C 
ATOM     20  C   UNL     1       8.169  11.484  17.519  0.00  0.00    +0.000 C 
ATOM     21  C   UNL     1       8.672  10.087  17.923  0.00  0.00    +0.000 C 
ATOM     22  C   UNL     1       9.193  10.091  19.374  0.00  0.00    +0.000 C 
ATOM     23  C   UNL     1      10.215  11.206  19.625  0.00  0.00    +0.000 C 
BRANCH  18  28
ATOM     24  N   UNL     1      11.144  15.628  20.678  0.00  0.00    +0.000 N 
ATOM     25  C   UNL     1      12.330  15.809  19.857  0.00  0.00    +0.000 C 
ATOM     26  C   UNL     1      10.219  14.614  20.511  0.00  0.00    +0.000 C 
ATOM     27  O   UNL     1       9.178  14.558  21.155  0.00  0.00    +0.000 OA
ATOM     28  N   UNL     1      10.521  13.678  19.545  0.00  0.00    +0.000 N 
ATOM     29  H   UNL     1      11.460  13.628  19.199  0.00  0.00    +0.000 HD
BRANCH  24  31
ATOM     30  C   UNL     1      12.086  17.257  22.305  0.00  0.00    +0.000 C 
ATOM     31  C   UNL     1      10.840  16.670  21.657  0.00  0.00    +0.000 C 
ENDBRANCH  24  31
ENDBRANCH  18  28
ENDBRANCH  17  21
ENDBRANCH   1  17
TORSDOF 5
ENDMDL
MODEL 2
REMARK VINA RESULT:      -7.5      3.854     11.518
REMARK  Name = 
REMARK  7 active torsions:
REMARK  status: ('A' for Active; 'I' for Inactive)
REMARK    1  A    between atoms: C_1  and  C_2
REMARK    2  A    between atoms: C_2  and  N_3
REMARK    3  A    between atoms: N_3  and  C_4
REMARK    4  A    between atoms: N_7  and  C_8
REMARK    5  A    between atoms: C_11  and  C_12
REMARK    6  A    between atoms: C_12  and  C_13
REMARK    7  A    between atoms: C_13  and  N_14
REMARK                            x       y       z     vdW  Elec       q    Type
REMARK                         _______ _______ _______ _____ _____    ______ ____
ROOT
ATOM      1  C   UNL     1       8.652   9.585  18.975  0.00  0.00    +0.000 C 
ENDROOT
BRANCH   1   2
ATOM      2  N   UNL     1       9.815  10.482  19.042  0.00  0.00    +0.000 NA
ATOM      3  C   UNL     1       9.920  11.379  17.859  0.00  0.00    +0.000 C 
ATOM      4  C   UNL     1       8.867  12.518  17.788  0.00  0.00    +0.000 C 
ATOM      5  N   UNL     1       8.937  13.272  19.039  0.00  0.00    +0.000 N 
ATOM      6  C   UNL     1       8.858  14.634  19.052  0.00  0.00    +0.000 A 
ATOM      7  N   UNL     1       8.152  15.337  18.173  0.00  0.00    +0.000 NA
ATOM      8  S   UNL     1       8.279  16.945  18.526  0.00  0.00    +0.000 S 
ATOM      9  C   UNL     1       9.364  16.775  19.842  0.00  0.00    +0.000 A 
ATOM     10  C   UNL     1       9.950  17.761  20.658  0.00  0.00    +0.000 A 
ATOM     11  C   UNL     1      10.839  17.357  21.660  0.00  0.00    +0.000 A 
ATOM     12  C   UNL     1      11.154  16.019  21.830  0.00  0.00    +0.000 A 
ATOM     13  C   UNL     1      10.574  15.052  21.006  0.00  0.00    +0.000 A 
ATOM     14  C   UNL     1       9.630  15.417  20.008  0.00  0.00    +0.000 A 
ATOM     15  C   UNL     1       8.715  12.461  20.236  0.00  0.00    +0.000 C 
ATOM     16  C   UNL     1       9.762  11.319  20.268  0.00  0.00    +0.000 C 
ENDBRANCH   1   2
BRANCH   1  17
ATOM     17  C   UNL     1       8.396   8.993  17.578  0.00  0.00    +0.000 C 
BRANCH  17  21
ATOM     18  C   UNL     1       5.820   5.671  18.754  0.00  0.00    +0.000 C 
ATOM     19  C   UNL     1       7.321   5.503  18.979  0.00  0.00    +0.000 C 
ATOM     20  C   UNL     1       8.038   6.847  18.899  0.00  0.00    +0.000 C 
ATOM     21  C   UNL     1       7.779   7.577  17.570  0.00  0.00    +0.000 C 
ATOM     22  C   UNL     1       6.267   7.665  17.279  0.00  0.00    +0.000 C 
ATOM     23  C   UNL     1       5.573   6.302  17.376  0.00  0.00    +0.000 C 
BRANCH  18  28
ATOM     24  N   UNL     1       3.309   3.091  19.590  0.00  0.00    +0.000 N 
ATOM     25  C   UNL     1       4.006   1.850  19.296  0.00  0.00    +0.000 C 
ATOM     26  C   UNL     1       3.859   4.352  19.458  0.00  0.00    +0.000 C 
ATOM     27  O   UNL     1       3.275   5.367  19.818  0.00  0.00    +0.000 OA
ATOM     28  N   UNL     1       5.129   4.401  18.925  0.00  0.00    +0.000 N 
ATOM     29  H   UNL     1       5.484   3.594  18.448  0.00  0.00    +0.000 HD
BRANCH  24  31
ATOM     30  C   UNL     1       2.033   2.672  21.685  0.00  0.00    +0.000 C 
ATOM     31  C   UNL     1       1.982   2.989  20.197  0.00  0.00    +0.000 C 
ENDBRANCH  24  31
ENDBRANCH  18  28
ENDBRANCH  17  21
ENDBRANCH   1  17
TORSDOF 5
ENDMDL
MODEL 3
REMARK VINA RESULT:      -7.2      8.598     10.673
REMARK  Name = 
REMARK  7 active torsions:
REMARK  status: ('A' for Active; 'I' for Inactive)
REMARK    1  A    between atoms: C_1  and  C_2
REMARK    2  A    between atoms: C_2  and  N_3
REMARK    3  A    between atoms: N_3  and  C_4
REMARK    4  A    between atoms: N_7  and  C_8
REMARK    5  A    between atoms: C_11  and  C_12
REMARK    6  A    between atoms: C_12  and  C_13
REMARK    7  A    between atoms: C_13  and  N_14
REMARK                            x       y       z     vdW  Elec       q    Type
REMARK                         _______ _______ _______ _____ _____    ______ ____
ROOT
ATOM      1  C   UNL     1       0.975  11.237  19.614  0.00  0.00    +0.000 C 
ENDROOT
BRANCH   1   2
ATOM      2  N   UNL     1       0.294   9.980  19.273  0.00  0.00    +0.000 NA
ATOM      3  C   UNL     1       0.705   9.442  17.948  0.00  0.00    +0.000 C 
ATOM      4  C   UNL     1       2.138   8.848  17.882  0.00  0.00    +0.000 C 
ATOM      5  N   UNL     1       2.250   7.834  18.931  0.00  0.00    +0.000 N 
ATOM      6  C   UNL     1       2.889   6.649  18.705  0.00  0.00    +0.000 A 
ATOM      7  N   UNL     1       3.918   6.516  17.874  0.00  0.00    +0.000 NA
ATOM      8  S   UNL     1       4.435   4.948  17.887  0.00  0.00    +0.000 S 
ATOM      9  C   UNL     1       3.240   4.352  18.961  0.00  0.00    +0.000 A 
ATOM     10  C   UNL     1       3.033   3.046  19.442  0.00  0.00    +0.000 A 
ATOM     11  C   UNL     1       1.952   2.813  20.299  0.00  0.00    +0.000 A 
ATOM     12  C   UNL     1       1.090   3.839  20.647  0.00  0.00    +0.000 A 
ATOM     13  C   UNL     1       1.300   5.129  20.155  0.00  0.00    +0.000 A 
ATOM     14  C   UNL     1       2.414   5.417  19.320  0.00  0.00    +0.000 A 
ATOM     15  C   UNL     1       1.979   8.336  20.277  0.00  0.00    +0.000 C 
ATOM     16  C   UNL     1       0.555   8.945  20.306  0.00  0.00    +0.000 C 
ENDBRANCH   1   2
BRANCH   1  17
ATOM     17  C   UNL     1       1.059  11.516  21.125  0.00  0.00    +0.000 C 
BRANCH  17  21
ATOM     18  C   UNL     1      -3.113  12.492  21.963  0.00  0.00    +0.000 C 
ATOM     19  C   UNL     1      -2.306  13.510  21.158  0.00  0.00    +0.000 C 
ATOM     20  C   UNL     1      -1.026  12.883  20.614  0.00  0.00    +0.000 C 
ATOM     21  C   UNL     1      -0.152  12.268  21.721  0.00  0.00    +0.000 C 
ATOM     22  C   UNL     1      -0.980  11.313  22.605  0.00  0.00    +0.000 C 
ATOM     23  C   UNL     1      -2.262  11.967  23.129  0.00  0.00    +0.000 C 
BRANCH  18  28
ATOM     24  N   UNL     1      -6.651  13.546  22.136  0.00  0.00    +0.000 N 
ATOM     25  C   UNL     1      -6.693  14.352  23.345  0.00  0.00    +0.000 C 
ATOM     26  C   UNL     1      -5.514  12.945  21.630  0.00  0.00    +0.000 C 
ATOM     27  O   UNL     1      -5.499  12.363  20.552  0.00  0.00    +0.000 OA
ATOM     28  N   UNL     1      -4.377  13.068  22.400  0.00  0.00    +0.000 N 
ATOM     29  H   UNL     1      -4.469  13.351  23.356  0.00  0.00    +0.000 HD
BRANCH  24  31
ATOM     30  C   UNL     1      -7.891  14.513  20.208  0.00  0.00    +0.000 C 
ATOM     31  C   UNL     1      -7.869  13.483  21.329  0.00  0.00    +0.000 C 
ENDBRANCH  24  31
ENDBRANCH  18  28
ENDBRANCH  17  21
ENDBRANCH   1  17
TORSDOF 5
ENDMDL
MODEL 4
REMARK VINA RESULT:      -7.1      8.746     10.488
REMARK  Name = 
REMARK  7 active torsions:
REMARK  status: ('A' for Active; 'I' for Inactive)
REMARK    1  A    between atoms: C_1  and  C_2
REMARK    2  A    between atoms: C_2  and  N_3
REMARK    3  A    between atoms: N_3  and  C_4
REMARK    4  A    between atoms: N_7  and  C_8
REMARK    5  A    between atoms: C_11  and  C_12
REMARK    6  A    between atoms: C_12  and  C_13
REMARK    7  A    between atoms: C_13  and  N_14
REMARK                            x       y       z     vdW  Elec       q    Type
REMARK                         _______ _______ _______ _____ _____    ______ ____
ROOT
ATOM      1  C   UNL     1       1.053  10.712  19.911  0.00  0.00    +0.000 C 
ENDROOT
BRANCH   1   2
ATOM      2  N   UNL     1       0.392   9.499  19.407  0.00  0.00    +0.000 NA
ATOM      3  C   UNL     1       0.925   9.057  18.089  0.00  0.00    +0.000 C 
ATOM      4  C   UNL     1       2.349   8.440  18.116  0.00  0.00    +0.000 C 
ATOM      5  N   UNL     1       2.346   7.346  19.086  0.00  0.00    +0.000 N 
ATOM      6  C   UNL     1       2.988   6.170  18.831  0.00  0.00    +0.000 A 
ATOM      7  N   UNL     1       4.091   6.080  18.095  0.00  0.00    +0.000 NA
ATOM      8  S   UNL     1       4.585   4.506  18.034  0.00  0.00    +0.000 S 
ATOM      9  C   UNL     1       3.282   3.853  18.937  0.00  0.00    +0.000 A 
ATOM     10  C   UNL     1       3.013   2.518  19.291  0.00  0.00    +0.000 A 
ATOM     11  C   UNL     1       1.850   2.241  20.018  0.00  0.00    +0.000 A 
ATOM     12  C   UNL     1       0.971   3.255  20.361  0.00  0.00    +0.000 A 
ATOM     13  C   UNL     1       1.245   4.575  19.995  0.00  0.00    +0.000 A 
ATOM     14  C   UNL     1       2.439   4.903  19.298  0.00  0.00    +0.000 A 
ATOM     15  C   UNL     1       1.950   7.748  20.435  0.00  0.00    +0.000 C 
ATOM     16  C   UNL     1       0.538   8.382  20.375  0.00  0.00    +0.000 C 
ENDBRANCH   1   2
BRANCH   1  17
ATOM     17  C   UNL     1       0.856  10.954  21.417  0.00  0.00    +0.000 C 
BRANCH  17  21
ATOM     18  C   UNL     1      -2.962  13.028  21.835  0.00  0.00    +0.000 C 
ATOM     19  C   UNL     1      -1.950  13.620  20.856  0.00  0.00    +0.000 C 
ATOM     20  C   UNL     1      -0.858  12.608  20.522  0.00  0.00    +0.000 C 
ATOM     21  C   UNL     1      -0.139  12.080  21.775  0.00  0.00    +0.000 C 
ATOM     22  C   UNL     1      -1.156  11.570  22.817  0.00  0.00    +0.000 C 
ATOM     23  C   UNL     1      -2.244  12.604  23.125  0.00  0.00    +0.000 C 
BRANCH  18  28
ATOM     24  N   UNL     1      -6.262  14.490  22.633  0.00  0.00    +0.000 N 
ATOM     25  C   UNL     1      -6.062  15.906  22.375  0.00  0.00    +0.000 C 
ATOM     26  C   UNL     1      -5.301  13.514  22.449  0.00  0.00    +0.000 C 
ATOM     27  O   UNL     1      -5.541  12.319  22.576  0.00  0.00    +0.000 OA
ATOM     28  N   UNL     1      -4.052  13.963  22.076  0.00  0.00    +0.000 N 
ATOM     29  H   UNL     1      -3.833  14.934  22.193  0.00  0.00    +0.000 HD
BRANCH  24  31
ATOM     30  C   UNL     1      -7.916  14.187  24.467  0.00  0.00    +0.000 C 
ATOM     31  C   UNL     1      -7.613  14.055  22.981  0.00  0.00    +0.000 C 
ENDBRANCH  24  31
ENDBRANCH  18  28
ENDBRANCH  17  21
ENDBRANCH   1  17
TORSDOF 5
ENDMDL
MODEL 5
REMARK VINA RESULT:      -7.1      4.985      5.835
REMARK  Name = 
REMARK  7 active torsions:
REMARK  status: ('A' for Active; 'I' for Inactive)
REMARK    1  A    between atoms: C_1  and  C_2
REMARK    2  A    between atoms: C_2  and  N_3
REMARK    3  A    between atoms: N_3  and  C_4
REMARK    4  A    between atoms: N_7  and  C_8
REMARK    5  A    between atoms: C_11  and  C_12
REMARK    6  A    between atoms: C_12  and  C_13
REMARK    7  A    between atoms: C_13  and  N_14
REMARK                            x       y       z     vdW  Elec       q    Type
REMARK                         _______ _______ _______ _____ _____    ______ ____
ROOT
ATOM      1  C   UNL     1       0.509  11.436  20.301  0.00  0.00    +0.000 C 
ENDROOT
BRANCH   1   2
ATOM      2  N   UNL     1      -0.124  10.159  19.940  0.00  0.00    +0.000 NA
ATOM      3  C   UNL     1       0.163   9.749  18.538  0.00  0.00    +0.000 C 
ATOM      4  C   UNL     1       1.613   9.269  18.265  0.00  0.00    +0.000 C 
ATOM      5  N   UNL     1       1.914   8.193  19.209  0.00  0.00    +0.000 N 
ATOM      6  C   UNL     1       2.598   7.079  18.820  0.00  0.00    +0.000 A 
ATOM      7  N   UNL     1       3.528   7.082  17.871  0.00  0.00    +0.000 NA
ATOM      8  S   UNL     1       4.145   5.560  17.700  0.00  0.00    +0.000 S 
ATOM      9  C   UNL     1       3.125   4.801  18.851  0.00  0.00    +0.000 A 
ATOM     10  C   UNL     1       3.062   3.452  19.246  0.00  0.00    +0.000 A 
ATOM     11  C   UNL     1       2.106   3.079  20.198  0.00  0.00    +0.000 A 
ATOM     12  C   UNL     1       1.226   4.011  20.721  0.00  0.00    +0.000 A 
ATOM     13  C   UNL     1       1.292   5.345  20.313  0.00  0.00    +0.000 A 
ATOM     14  C   UNL     1       2.280   5.773  19.384  0.00  0.00    +0.000 A 
ATOM     15  C   UNL     1       1.771   8.577  20.613  0.00  0.00    +0.000 C 
ATOM     16  C   UNL     1       0.324   9.075  20.851  0.00  0.00    +0.000 C 
ENDBRANCH   1   2
BRANCH   1  17
ATOM     17  C   UNL     1       0.365  12.532  19.232  0.00  0.00    +0.000 C 
BRANCH  17  21
ATOM     18  C   UNL     1       4.203  14.608  19.110  0.00  0.00    +0.000 C 
ATOM     19  C   UNL     1       3.526  14.474  20.473  0.00  0.00    +0.000 C 
ATOM     20  C   UNL     1       2.427  13.415  20.433  0.00  0.00    +0.000 C 
ATOM     21  C   UNL     1       1.378  13.693  19.343  0.00  0.00    +0.000 C 
ATOM     22  C   UNL     1       2.056  13.931  17.978  0.00  0.00    +0.000 C 
ATOM     23  C   UNL     1       3.159  14.992  18.051  0.00  0.00    +0.000 C 
BRANCH  18  28
ATOM     24  N   UNL     1       7.444  16.306  18.583  0.00  0.00    +0.000 N 
ATOM     25  C   UNL     1       7.395  17.404  19.534  0.00  0.00    +0.000 C 
ATOM     26  C   UNL     1       6.451  15.358  18.425  0.00  0.00    +0.000 C 
ATOM     27  O   UNL     1       6.576  14.387  17.687  0.00  0.00    +0.000 OA
ATOM     28  N   UNL     1       5.312  15.550  19.177  0.00  0.00    +0.000 N 
ATOM     29  H   UNL     1       5.153  16.447  19.593  0.00  0.00    +0.000 HD
BRANCH  24  31
ATOM     30  C   UNL     1       9.611  17.324  17.907  0.00  0.00    +0.000 C 
ATOM     31  C   UNL     1       8.689  16.115  17.841  0.00  0.00    +0.000 C 
ENDBRANCH  24  31
ENDBRANCH  18  28
ENDBRANCH  17  21
ENDBRANCH   1  17
TORSDOF 5
ENDMDL
MODEL 6
REMARK VINA RESULT:      -7.0      8.208     10.380
REMARK  Name = 
REMARK  7 active torsions:
REMARK  status: ('A' for Active; 'I' for Inactive)
REMARK    1  A    between atoms: C_1  and  C_2
REMARK    2  A    between atoms: C_2  and  N_3
REMARK    3  A    between atoms: N_3  and  C_4
REMARK    4  A    between atoms: N_7  and  C_8
REMARK    5  A    between atoms: C_11  and  C_12
REMARK    6  A    between atoms: C_12  and  C_13
REMARK    7  A    between atoms: C_13  and  N_14
REMARK                            x       y       z     vdW  Elec       q    Type
REMARK                         _______ _______ _______ _____ _____    ______ ____
ROOT
ATOM      1  C   UNL     1       1.297  10.779  19.800  0.00  0.00    +0.000 C 
ENDROOT
BRANCH   1   2
ATOM      2  N   UNL     1       0.564   9.574  19.385  0.00  0.00    +0.000 NA
ATOM      3  C   UNL     1       0.990   9.070  18.051  0.00  0.00    +0.000 C 
ATOM      4  C   UNL     1       2.392   8.405  18.003  0.00  0.00    +0.000 C 
ATOM      5  N   UNL     1       2.419   7.345  19.010  0.00  0.00    +0.000 N 
ATOM      6  C   UNL     1       3.004   6.139  18.753  0.00  0.00    +0.000 A 
ATOM      7  N   UNL     1       4.050   5.986  17.948  0.00  0.00    +0.000 NA
ATOM      8  S   UNL     1       4.487   4.395  17.910  0.00  0.00    +0.000 S 
ATOM      9  C   UNL     1       3.229   3.818  18.921  0.00  0.00    +0.000 A 
ATOM     10  C   UNL     1       2.941   2.506  19.340  0.00  0.00    +0.000 A 
ATOM     11  C   UNL     1       1.822   2.294  20.153  0.00  0.00    +0.000 A 
ATOM     12  C   UNL     1       1.003   3.349  20.519  0.00  0.00    +0.000 A 
ATOM     13  C   UNL     1       1.294   4.645  20.088  0.00  0.00    +0.000 A 
ATOM     14  C   UNL     1       2.447   4.908  19.301  0.00  0.00    +0.000 A 
ATOM     15  C   UNL     1       2.131   7.805  20.367  0.00  0.00    +0.000 C 
ATOM     16  C   UNL     1       0.739   8.485  20.380  0.00  0.00    +0.000 C 
ENDBRANCH   1   2
BRANCH   1  17
ATOM     17  C   UNL     1       1.042  12.006  18.908  0.00  0.00    +0.000 C 
BRANCH  17  21
ATOM     18  C   UNL     1      -2.955  12.709  20.516  0.00  0.00    +0.000 C 
ATOM     19  C   UNL     1      -2.858  12.276  19.055  0.00  0.00    +0.000 C 
ATOM     20  C   UNL     1      -1.479  11.697  18.748  0.00  0.00    +0.000 C 
ATOM     21  C   UNL     1      -0.340  12.673  19.091  0.00  0.00    +0.000 C 
ATOM     22  C   UNL     1      -0.483  13.198  20.534  0.00  0.00    +0.000 C 
ATOM     23  C   UNL     1      -1.879  13.764  20.814  0.00  0.00    +0.000 C 
BRANCH  18  28
ATOM     24  N   UNL     1      -6.161  13.383  22.229  0.00  0.00    +0.000 N 
ATOM     25  C   UNL     1      -6.951  14.035  21.198  0.00  0.00    +0.000 C 
ATOM     26  C   UNL     1      -4.874  12.911  22.053  0.00  0.00    +0.000 C 
ATOM     27  O   UNL     1      -4.281  12.272  22.914  0.00  0.00    +0.000 OA
ATOM     28  N   UNL     1      -4.300  13.172  20.827  0.00  0.00    +0.000 N 
ATOM     29  H   UNL     1      -4.715  13.869  20.239  0.00  0.00    +0.000 HD
BRANCH  24  31
ATOM     30  C   UNL     1      -7.915  12.031  23.362  0.00  0.00    +0.000 C 
ATOM     31  C   UNL     1      -6.825  13.086  23.497  0.00  0.00    +0.000 C 
ENDBRANCH  24  31
ENDBRANCH  18  28
ENDBRANCH  17  21
ENDBRANCH   1  17
TORSDOF 5
ENDMDL
MODEL 7
REMARK VINA RESULT:      -7.0      3.802     11.675
REMARK  Name = 
REMARK  7 active torsions:
REMARK  status: ('A' for Active; 'I' for Inactive)
REMARK    1  A    between atoms: C_1  and  C_2
REMARK    2  A    between atoms: C_2  and  N_3
REMARK    3  A    between atoms: N_3  and  C_4
REMARK    4  A    between atoms: N_7  and  C_8
REMARK    5  A    between atoms: C_11  and  C_12
REMARK    6  A    between atoms: C_12  and  C_13
REMARK    7  A    between atoms: C_13  and  N_14
REMARK                            x       y       z     vdW  Elec       q    Type
REMARK                         _______ _______ _______ _____ _____    ______ ____
ROOT
ATOM      1  C   UNL     1       8.909   9.671  19.178  0.00  0.00    +0.000 C 
ENDROOT
BRANCH   1   2
ATOM      2  N   UNL     1      10.012  10.601  18.892  0.00  0.00    +0.000 NA
ATOM      3  C   UNL     1       9.772  11.423  17.675  0.00  0.00    +0.000 C 
ATOM      4  C   UNL     1       8.690  12.527  17.816  0.00  0.00    +0.000 C 
ATOM      5  N   UNL     1       9.048  13.361  18.963  0.00  0.00    +0.000 N 
ATOM      6  C   UNL     1       8.918  14.718  18.920  0.00  0.00    +0.000 A 
ATOM      7  N   UNL     1       7.980  15.345  18.217  0.00  0.00    +0.000 NA
ATOM      8  S   UNL     1       8.127  16.975  18.435  0.00  0.00    +0.000 S 
ATOM      9  C   UNL     1       9.520  16.919  19.432  0.00  0.00    +0.000 A 
ATOM     10  C   UNL     1      10.254  17.970  20.013  0.00  0.00    +0.000 A 
ATOM     11  C   UNL     1      11.387  17.654  20.772  0.00  0.00    +0.000 A 
ATOM     12  C   UNL     1      11.791  16.339  20.928  0.00  0.00    +0.000 A 
ATOM     13  C   UNL     1      11.060  15.305  20.337  0.00  0.00    +0.000 A 
ATOM     14  C   UNL     1       9.877  15.581  19.599  0.00  0.00    +0.000 A 
ATOM     15  C   UNL     1       9.175  12.623  20.219  0.00  0.00    +0.000 C 
ATOM     16  C   UNL     1      10.241  11.513  20.042  0.00  0.00    +0.000 C 
ENDBRANCH   1   2
BRANCH   1  17
ATOM     17  C   UNL     1       8.513   8.783  17.987  0.00  0.00    +0.000 C 
BRANCH  17  21
ATOM     18  C   UNL     1       6.315   5.016  17.803  0.00  0.00    +0.000 C 
ATOM     19  C   UNL     1       5.625   6.254  17.234  0.00  0.00    +0.000 C 
ATOM     20  C   UNL     1       6.629   7.381  17.006  0.00  0.00    +0.000 C 
ATOM     21  C   UNL     1       7.407   7.745  18.282  0.00  0.00    +0.000 C 
ATOM     22  C   UNL     1       8.026   6.487  18.925  0.00  0.00    +0.000 C 
ATOM     23  C   UNL     1       6.996   5.371  19.133  0.00  0.00    +0.000 C 
BRANCH  18  28
ATOM     24  N   UNL     1       3.526   2.850  18.897  0.00  0.00    +0.000 N 
ATOM     25  C   UNL     1       3.725   1.642  18.114  0.00  0.00    +0.000 C 
ATOM     26  C   UNL     1       4.350   3.959  18.855  0.00  0.00    +0.000 C 
ATOM     27  O   UNL     1       4.210   4.915  19.609  0.00  0.00    +0.000 OA
ATOM     28  N   UNL     1       5.371   3.914  17.929  0.00  0.00    +0.000 N 
ATOM     29  H   UNL     1       5.327   3.234  17.195  0.00  0.00    +0.000 HD
BRANCH  24  31
ATOM     30  C   UNL     1       1.087   3.114  19.307  0.00  0.00    +0.000 C 
ATOM     31  C   UNL     1       2.461   2.834  19.898  0.00  0.00    +0.000 C 
ENDBRANCH  24  31
ENDBRANCH  18  28
ENDBRANCH  17  21
ENDBRANCH   1  17
TORSDOF 5
ENDMDL
MODEL 8
REMARK VINA RESULT:      -7.0      8.598     11.793
REMARK  Name = 
REMARK  7 active torsions:
REMARK  status: ('A' for Active; 'I' for Inactive)
REMARK    1  A    between atoms: C_1  and  C_2
REMARK    2  A    between atoms: C_2  and  N_3
REMARK    3  A    between atoms: N_3  and  C_4
REMARK    4  A    between atoms: N_7  and  C_8
REMARK    5  A    between atoms: C_11  and  C_12
REMARK    6  A    between atoms: C_12  and  C_13
REMARK    7  A    between atoms: C_13  and  N_14
REMARK                            x       y       z     vdW  Elec       q    Type
REMARK                         _______ _______ _______ _____ _____    ______ ____
ROOT
ATOM      1  C   UNL     1       0.980  12.319  19.950  0.00  0.00    +0.000 C 
ENDROOT
BRANCH   1   2
ATOM      2  N   UNL     1       0.004  13.366  19.613  0.00  0.00    +0.000 NA
ATOM      3  C   UNL     1      -0.644  13.146  18.292  0.00  0.00    +0.000 C 
ATOM      4  C   UNL     1      -1.665  11.977  18.234  0.00  0.00    +0.000 C 
ATOM      5  N   UNL     1      -2.656  12.196  19.287  0.00  0.00    +0.000 N 
ATOM      6  C   UNL     1      -3.983  11.968  19.069  0.00  0.00    +0.000 A 
ATOM      7  N   UNL     1      -4.442  11.034  18.242  0.00  0.00    +0.000 NA
ATOM      8  S   UNL     1      -6.093  11.043  18.264  0.00  0.00    +0.000 S 
ATOM      9  C   UNL     1      -6.271  12.369  19.337  0.00  0.00    +0.000 A 
ATOM     10  C   UNL     1      -7.440  12.982  19.824  0.00  0.00    +0.000 A 
ATOM     11  C   UNL     1      -7.312  14.083  20.678  0.00  0.00    +0.000 A 
ATOM     12  C   UNL     1      -6.062  14.573  21.018  0.00  0.00    +0.000 A 
ATOM     13  C   UNL     1      -4.909  13.961  20.520  0.00  0.00    +0.000 A 
ATOM     14  C   UNL     1      -4.997  12.812  19.688  0.00  0.00    +0.000 A 
ATOM     15  C   UNL     1      -2.086  12.295  20.630  0.00  0.00    +0.000 C 
ATOM     16  C   UNL     1      -1.054  13.450  20.652  0.00  0.00    +0.000 C 
ENDBRANCH   1   2
BRANCH   1  17
ATOM     17  C   UNL     1       1.423  11.465  18.750  0.00  0.00    +0.000 C 
BRANCH  17  21
ATOM     18  C   UNL     1       2.203   7.291  19.765  0.00  0.00    +0.000 C 
ATOM     19  C   UNL     1       2.037   7.630  18.284  0.00  0.00    +0.000 C 
ATOM     20  C   UNL     1       2.164   9.133  18.052  0.00  0.00    +0.000 C 
ATOM     21  C   UNL     1       1.171   9.947  18.898  0.00  0.00    +0.000 C 
ATOM     22  C   UNL     1       1.256   9.544  20.384  0.00  0.00    +0.000 C 
ATOM     23  C   UNL     1       1.134   8.029  20.585  0.00  0.00    +0.000 C 
BRANCH  18  28
ATOM     24  N   UNL     1       3.126   3.714  19.886  0.00  0.00    +0.000 N 
ATOM     25  C   UNL     1       1.891   3.073  20.309  0.00  0.00    +0.000 C 
ATOM     26  C   UNL     1       3.273   5.071  19.669  0.00  0.00    +0.000 C 
ATOM     27  O   UNL     1       4.299   5.559  19.211  0.00  0.00    +0.000 OA
ATOM     28  N   UNL     1       2.175   5.850  19.969  0.00  0.00    +0.000 N 
ATOM     29  H   UNL     1       1.446   5.460  20.535  0.00  0.00    +0.000 HD
BRANCH  24  31
ATOM     30  C   UNL     1       3.821   1.610  18.756  0.00  0.00    +0.000 C 
ATOM     31  C   UNL     1       4.248   2.845  19.536  0.00  0.00    +0.000 C 
ENDBRANCH  24  31
ENDBRANCH  18  28
ENDBRANCH  17  21
ENDBRANCH   1  17
TORSDOF 5
ENDMDL
MODEL 9
REMARK VINA RESULT:      -7.0      9.928     12.759
REMARK  Name = 
REMARK  7 active torsions:
REMARK  status: ('A' for Active; 'I' for Inactive)
REMARK    1  A    between atoms: C_1  and  C_2
REMARK    2  A    between atoms: C_2  and  N_3
REMARK    3  A    between atoms: N_3  and  C_4
REMARK    4  A    between atoms: N_7  and  C_8
REMARK    5  A    between atoms: C_11  and  C_12
REMARK    6  A    between atoms: C_12  and  C_13
REMARK    7  A    between atoms: C_13  and  N_14
REMARK                            x       y       z     vdW  Elec       q    Type
REMARK                         _______ _______ _______ _____ _____    ______ ____
ROOT
ATOM      1  C   UNL     1      -0.352  12.064  19.867  0.00  0.00    +0.000 C 
ENDROOT
BRANCH   1   2
ATOM      2  N   UNL     1      -1.607  12.027  20.632  0.00  0.00    +0.000 NA
ATOM      3  C   UNL     1      -1.395  11.734  22.075  0.00  0.00    +0.000 C 
ATOM      4  C   UNL     1      -0.759  12.882  22.905  0.00  0.00    +0.000 C 
ATOM      5  N   UNL     1      -1.579  14.078  22.716  0.00  0.00    +0.000 N 
ATOM      6  C   UNL     1      -1.869  14.910  23.758  0.00  0.00    +0.000 A 
ATOM      7  N   UNL     1      -1.051  15.115  24.785  0.00  0.00    +0.000 NA
ATOM      8  S   UNL     1      -1.735  16.199  25.825  0.00  0.00    +0.000 S 
ATOM      9  C   UNL     1      -3.212  16.386  24.976  0.00  0.00    +0.000 A 
ATOM     10  C   UNL     1      -4.336  17.174  25.288  0.00  0.00    +0.000 A 
ATOM     11  C   UNL     1      -5.443  17.127  24.434  0.00  0.00    +0.000 A 
ATOM     12  C   UNL     1      -5.443  16.305  23.319  0.00  0.00    +0.000 A 
ATOM     13  C   UNL     1      -4.325  15.520  23.026  0.00  0.00    +0.000 A 
ATOM     14  C   UNL     1      -3.163  15.575  23.843  0.00  0.00    +0.000 A 
ATOM     15  C   UNL     1      -1.719  14.489  21.320  0.00  0.00    +0.000 C 
ATOM     16  C   UNL     1      -2.332  13.318  20.513  0.00  0.00    +0.000 C 
ENDBRANCH   1   2
BRANCH   1  17
ATOM     17  C   UNL     1      -0.213  10.932  18.835  0.00  0.00    +0.000 C 
BRANCH  17  21
ATOM     18  C   UNL     1       2.156   7.265  18.877  0.00  0.00    +0.000 C 
ATOM     19  C   UNL     1       1.873   7.929  20.224  0.00  0.00    +0.000 C 
ATOM     20  C   UNL     1       0.739   8.943  20.105  0.00  0.00    +0.000 C 
ATOM     21  C   UNL     1       1.012  10.012  19.032  0.00  0.00    +0.000 C 
ATOM     22  C   UNL     1       1.397   9.356  17.691  0.00  0.00    +0.000 C 
ATOM     23  C   UNL     1       2.532   8.337  17.844  0.00  0.00    +0.000 C 
BRANCH  18  28
ATOM     24  N   UNL     1       3.871   4.027  19.360  0.00  0.00    +0.000 N 
ATOM     25  C   UNL     1       5.275   4.402  19.387  0.00  0.00    +0.000 C 
ATOM     26  C   UNL     1       2.821   4.917  19.226  0.00  0.00    +0.000 C 
ATOM     27  O   UNL     1       1.649   4.573  19.315  0.00  0.00    +0.000 OA
ATOM     28  N   UNL     1       3.173   6.233  19.016  0.00  0.00    +0.000 N 
ATOM     29  H   UNL     1       4.111   6.444  18.734  0.00  0.00    +0.000 HD
BRANCH  24  31
ATOM     30  C   UNL     1       3.546   1.764  18.380  0.00  0.00    +0.000 C 
ATOM     31  C   UNL     1       3.544   2.628  19.633  0.00  0.00    +0.000 C 
ENDBRANCH  24  31
ENDBRANCH  18  28
ENDBRANCH  17  21
ENDBRANCH   1  17
TORSDOF 5
ENDMDL
