MODEL 1
REMARK VINA RESULT:      -6.8      0.000      0.000
REMARK  Name = 
REMARK  15 active torsions:
REMARK  status: ('A' for Active; 'I' for Inactive)
REMARK    1  A    between atoms: C_2  and  C_3
REMARK    2  A    between atoms: C_3  and  C_4
REMARK    3  A    between atoms: C_4  and  C_5
REMARK    4  A    between atoms: C_4  and  O_27
REMARK    5  A    between atoms: C_5  and  C_6
REMARK    6  A    between atoms: C_6  and  C_7
REMARK    7  A    between atoms: C_7  and  C_8
REMARK    8  A    between atoms: C_10  and  C_11
REMARK    9  A    between atoms: C_13  and  C_14
REMARK   10  A    between atoms: C_14  and  C_15
REMARK   11  A    between atoms: C_15  and  C_16
REMARK   12  A    between atoms: C_17  and  C_18
REMARK   13  A    between atoms: C_21  and  C_22
REMARK   14  A    between atoms: C_24  and  C_25
REMARK   15  A    between atoms: O_27  and  C_28
REMARK                            x       y       z     vdW  Elec       q    Type
REMARK                         _______ _______ _______ _____ _____    ______ ____
ROOT
ATOM      1  C   UNL     1       2.596   7.074  18.726  0.00  0.00    +0.000 C 
ATOM      2  C   UNL     1       3.485   7.603  17.630  0.00  0.00    +0.000 C 
ATOM      3  C   UNL     1       2.069   8.105  17.724  0.00  0.00    +0.000 C 
ENDROOT
BRANCH   1   7
ATOM      4  C   UNL     1       2.616   4.330  18.619  0.00  0.00    +0.000 C 
ATOM      5  C   UNL     1       1.795   3.188  18.062  0.00  0.00    +0.000 C 
ATOM      6  C   UNL     1       2.197   4.818  19.984  0.00  0.00    +0.000 C 
ATOM      7  C   UNL     1       1.940   5.692  18.773  0.00  0.00    +0.000 C 
BRANCH   4   8
ATOM      8  C   UNL     1       4.112   4.231  18.328  0.00  0.00    +0.000 C 
BRANCH   8   9
ATOM      9  C   UNL     1       4.381   3.937  16.846  0.00  0.00    +0.000 C 
BRANCH   9  10
ATOM     10  C   UNL     1       5.835   4.155  16.385  0.00  0.00    +0.000 C 
BRANCH  10  11
ATOM     11  O   UNL     1       5.921   4.881  15.149  0.00  0.00    +0.000 OA
ATOM     12  C   UNL     1       6.315   4.089  14.037  0.00  0.00    +0.000 C 
ENDBRANCH  10  11
BRANCH  10  13
ATOM     13  C   UNL     1       6.718   4.912  17.402  0.00  0.00    +0.000 C 
BRANCH  13  15
ATOM     14  C   UNL     1       7.240   7.368  17.515  0.00  0.00    +0.000 C 
ATOM     15  C   UNL     1       7.341   6.183  16.890  0.00  0.00    +0.000 C 
ENDBRANCH  13  15
ENDBRANCH  10  13
ENDBRANCH   9  10
ENDBRANCH   8   9
ENDBRANCH   4   8
ENDBRANCH   1   7
BRANCH   3  16
ATOM     16  C   UNL     1       1.746   9.538  18.053  0.00  0.00    +0.000 C 
BRANCH  16  17
ATOM     17  C   UNL     1       0.575   9.789  19.000  0.00  0.00    +0.000 C 
BRANCH  17  18
ATOM     18  C   UNL     1      -0.139  11.082  18.722  0.00  0.00    +0.000 C 
ATOM     19  C   UNL     1      -1.256  11.203  17.989  0.00  0.00    +0.000 C 
BRANCH  19  20
ATOM     20  C   UNL     1      -2.077  10.068  17.427  0.00  0.00    +0.000 C 
ATOM     21  C   UNL     1      -2.457  10.244  15.952  0.00  0.00    +0.000 C 
ATOM     22  S   UNL     1      -4.019  11.149  16.020  0.00  0.00    +0.000 S 
ATOM     23  C   UNL     1      -4.265  10.569  17.640  0.00  0.00    +0.000 C 
ATOM     24  N   UNL     1      -3.304   9.971  18.253  0.00  0.00    +0.000 NA
BRANCH  23  25
ATOM     25  C   UNL     1      -5.595  10.708  18.250  0.00  0.00    +0.000 C 
ATOM     26  C   UNL     1      -6.439  11.933  17.973  0.00  0.00    +0.000 C 
ATOM     27  C   UNL     1      -5.912  11.697  19.359  0.00  0.00    +0.000 C 
ATOM     28  C   UNL     1      -4.913  12.641  19.939  0.00  0.00    +0.000 C 
ENDBRANCH  23  25
ENDBRANCH  19  20
ENDBRANCH  17  18
ENDBRANCH  16  17
ENDBRANCH   3  16
TORSDOF 12
ENDMDL
MODEL 2
REMARK VINA RESULT:      -6.8      2.353      3.013
REMARK  Name = 
REMARK  15 active torsions:
REMARK  status: ('A' for Active; 'I' for Inactive)
REMARK    1  A    between atoms: C_2  and  C_3
REMARK    2  A    between atoms: C_3  and  C_4
REMARK    3  A    between atoms: C_4  and  C_5
REMARK    4  A    between atoms: C_4  and  O_27
REMARK    5  A    between atoms: C_5  and  C_6
REMARK    6  A    between atoms: C_6  and  C_7
REMARK    7  A    between atoms: C_7  and  C_8
REMARK    8  A    between atoms: C_10  and  C_11
REMARK    9  A    between atoms: C_13  and  C_14
REMARK   10  A    between atoms: C_14  and  C_15
REMARK   11  A    between atoms: C_15  and  C_16
REMARK   12  A    between atoms: C_17  and  C_18
REMARK   13  A    between atoms: C_21  and  C_22
REMARK   14  A    between atoms: C_24  and  C_25
REMARK   15  A    between atoms: O_27  and  C_28
REMARK                            x       y       z     vdW  Elec       q    Type
REMARK                         _______ _______ _______ _____ _____    ______ ____
ROOT
ATOM      1  C   UNL     1       2.837   6.789  18.527  0.00  0.00    +0.000 C 
ATOM      2  C   UNL     1       3.724   7.398  17.472  0.00  0.00    +0.000 C 
ATOM      3  C   UNL     1       2.340   7.954  17.668  0.00  0.00    +0.000 C 
ENDROOT
BRANCH   1   7
ATOM      4  C   UNL     1       2.707   4.046  18.589  0.00  0.00    +0.000 C 
ATOM      5  C   UNL     1       2.036   2.903  17.859  0.00  0.00    +0.000 C 
ATOM      6  C   UNL     1       1.902   4.654  19.710  0.00  0.00    +0.000 C 
ATOM      7  C   UNL     1       2.110   5.444  18.434  0.00  0.00    +0.000 C 
BRANCH   4   8
ATOM      8  C   UNL     1       4.206   3.859  18.810  0.00  0.00    +0.000 C 
BRANCH   8   9
ATOM      9  C   UNL     1       4.974   3.823  17.482  0.00  0.00    +0.000 C 
BRANCH   9  10
ATOM     10  C   UNL     1       6.245   4.691  17.433  0.00  0.00    +0.000 C 
BRANCH  10  11
ATOM     11  O   UNL     1       7.054   4.557  18.612  0.00  0.00    +0.000 OA
ATOM     12  C   UNL     1       7.693   5.759  19.018  0.00  0.00    +0.000 C 
ENDBRANCH  10  11
BRANCH  10  13
ATOM     13  C   UNL     1       7.170   4.399  16.230  0.00  0.00    +0.000 C 
BRANCH  13  15
ATOM     14  C   UNL     1       6.085   4.005  13.997  0.00  0.00    +0.000 C 
ATOM     15  C   UNL     1       6.642   4.840  14.891  0.00  0.00    +0.000 C 
ENDBRANCH  13  15
ENDBRANCH  10  13
ENDBRANCH   9  10
ENDBRANCH   8   9
ENDBRANCH   4   8
ENDBRANCH   1   7
BRANCH   3  16
ATOM     16  C   UNL     1       2.100   9.353  18.170  0.00  0.00    +0.000 C 
BRANCH  16  17
ATOM     17  C   UNL     1       0.655   9.846  18.199  0.00  0.00    +0.000 C 
BRANCH  17  18
ATOM     18  C   UNL     1       0.094   9.939  19.591  0.00  0.00    +0.000 C 
ATOM     19  C   UNL     1      -0.774  10.871  20.011  0.00  0.00    +0.000 C 
BRANCH  19  20
ATOM     20  C   UNL     1      -1.452  11.906  19.148  0.00  0.00    +0.000 C 
ATOM     21  C   UNL     1      -0.737  13.262  19.121  0.00  0.00    +0.000 C 
ATOM     22  S   UNL     1      -1.465  14.155  20.513  0.00  0.00    +0.000 S 
ATOM     23  C   UNL     1      -2.859  13.120  20.425  0.00  0.00    +0.000 C 
ATOM     24  N   UNL     1      -2.828  12.074  19.674  0.00  0.00    +0.000 NA
BRANCH  23  25
ATOM     25  C   UNL     1      -4.076  13.503  21.156  0.00  0.00    +0.000 C 
ATOM     26  C   UNL     1      -4.020  14.573  22.225  0.00  0.00    +0.000 C 
ATOM     27  C   UNL     1      -4.325  13.155  22.613  0.00  0.00    +0.000 C 
ATOM     28  C   UNL     1      -3.359  12.400  23.463  0.00  0.00    +0.000 C 
ENDBRANCH  23  25
ENDBRANCH  19  20
ENDBRANCH  17  18
ENDBRANCH  16  17
ENDBRANCH   3  16
TORSDOF 12
ENDMDL
MODEL 3
REMARK VINA RESULT:      -6.8      6.734      9.665
REMARK  Name = 
REMARK  15 active torsions:
REMARK  status: ('A' for Active; 'I' for Inactive)
REMARK    1  A    between atoms: C_2  and  C_3
REMARK    2  A    between atoms: C_3  and  C_4
REMARK    3  A    between atoms: C_4  and  C_5
REMARK    4  A    between atoms: C_4  and  O_27
REMARK    5  A    between atoms: C_5  and  C_6
REMARK    6  A    between atoms: C_6  and  C_7
REMARK    7  A    between atoms: C_7  and  C_8
REMARK    8  A    between atoms: C_10  and  C_11
REMARK    9  A    between atoms: C_13  and  C_14
REMARK   10  A    between atoms: C_14  and  C_15
REMARK   11  A    between atoms: C_15  and  C_16
REMARK   12  A    between atoms: C_17  and  C_18
REMARK   13  A    between atoms: C_21  and  C_22
REMARK   14  A    between atoms: C_24  and  C_25
REMARK   15  A    between atoms: O_27  and  C_28
REMARK                            x       y       z     vdW  Elec       q    Type
REMARK                         _______ _______ _______ _____ _____    ______ ____
ROOT
ATOM      1  C   UNL     1       6.829   7.137  17.778  0.00  0.00    +0.000 C 
ATOM      2  C   UNL     1       8.085   6.934  18.585  0.00  0.00    +0.000 C 
ATOM      3  C   UNL     1       8.031   8.067  17.596  0.00  0.00    +0.000 C 
ENDROOT
BRANCH   1   7
ATOM      4  C   UNL     1       5.300   5.196  16.577  0.00  0.00    +0.000 C 
ATOM      5  C   UNL     1       5.432   4.085  15.559  0.00  0.00    +0.000 C 
ATOM      6  C   UNL     1       4.996   6.559  16.006  0.00  0.00    +0.000 C 
ATOM      7  C   UNL     1       6.369   6.289  16.589  0.00  0.00    +0.000 C 
BRANCH   4   8
ATOM      8  C   UNL     1       4.587   4.790  17.864  0.00  0.00    +0.000 C 
BRANCH   8   9
ATOM      9  C   UNL     1       3.105   4.477  17.615  0.00  0.00    +0.000 C 
BRANCH   9  10
ATOM     10  C   UNL     1       2.582   3.192  18.283  0.00  0.00    +0.000 C 
BRANCH  10  11
ATOM     11  O   UNL     1       3.082   1.999  17.658  0.00  0.00    +0.000 OA
ATOM     12  C   UNL     1       3.802   1.142  18.533  0.00  0.00    +0.000 C 
ENDBRANCH  10  11
BRANCH  10  13
ATOM     13  C   UNL     1       2.919   3.073  19.787  0.00  0.00    +0.000 C 
BRANCH  13  15
ATOM     14  C   UNL     1       0.953   4.439  20.555  0.00  0.00    +0.000 C 
ATOM     15  C   UNL     1       2.242   4.080  20.678  0.00  0.00    +0.000 C 
ENDBRANCH  13  15
ENDBRANCH  10  13
ENDBRANCH   9  10
ENDBRANCH   8   9
ENDBRANCH   4   8
ENDBRANCH   1   7
BRANCH   3  16
ATOM     16  C   UNL     1       8.075   9.509  18.026  0.00  0.00    +0.000 C 
BRANCH  16  17
ATOM     17  C   UNL     1       9.388  10.021  18.614  0.00  0.00    +0.000 C 
BRANCH  17  18
ATOM     18  C   UNL     1       9.187  10.932  19.794  0.00  0.00    +0.000 C 
ATOM     19  C   UNL     1       9.812  12.105  19.976  0.00  0.00    +0.000 C 
BRANCH  19  20
ATOM     20  C   UNL     1      10.716  12.794  18.983  0.00  0.00    +0.000 C 
ATOM     21  C   UNL     1      11.783  13.687  19.627  0.00  0.00    +0.000 C 
ATOM     22  S   UNL     1      10.964  15.290  19.776  0.00  0.00    +0.000 S 
ATOM     23  C   UNL     1       9.868  14.828  18.508  0.00  0.00    +0.000 C 
ATOM     24  N   UNL     1       9.847  13.607  18.100  0.00  0.00    +0.000 NA
BRANCH  23  25
ATOM     25  C   UNL     1       9.037  15.863  17.874  0.00  0.00    +0.000 C 
ATOM     26  C   UNL     1       8.801  17.186  18.571  0.00  0.00    +0.000 C 
ATOM     27  C   UNL     1       7.651  16.243  18.364  0.00  0.00    +0.000 C 
ATOM     28  C   UNL     1       6.987  15.620  19.545  0.00  0.00    +0.000 C 
ENDBRANCH  23  25
ENDBRANCH  19  20
ENDBRANCH  17  18
ENDBRANCH  16  17
ENDBRANCH   3  16
TORSDOF 12
ENDMDL
MODEL 4
REMARK VINA RESULT:      -6.7      2.635      3.365
REMARK  Name = 
REMARK  15 active torsions:
REMARK  status: ('A' for Active; 'I' for Inactive)
REMARK    1  A    between atoms: C_2  and  C_3
REMARK    2  A    between atoms: C_3  and  C_4
REMARK    3  A    between atoms: C_4  and  C_5
REMARK    4  A    between atoms: C_4  and  O_27
REMARK    5  A    between atoms: C_5  and  C_6
REMARK    6  A    between atoms: C_6  and  C_7
REMARK    7  A    between atoms: C_7  and  C_8
REMARK    8  A    between atoms: C_10  and  C_11
REMARK    9  A    between atoms: C_13  and  C_14
REMARK   10  A    between atoms: C_14  and  C_15
REMARK   11  A    between atoms: C_15  and  C_16
REMARK   12  A    between atoms: C_17  and  C_18
REMARK   13  A    between atoms: C_21  and  C_22
REMARK   14  A    between atoms: C_24  and  C_25
REMARK   15  A    between atoms: O_27  and  C_28
REMARK                            x       y       z     vdW  Elec       q    Type
REMARK                         _______ _______ _______ _____ _____    ______ ____
ROOT
ATOM      1  C   UNL     1       2.913   7.200  18.595  0.00  0.00    +0.000 C 
ATOM      2  C   UNL     1       2.924   8.164  17.436  0.00  0.00    +0.000 C 
ATOM      3  C   UNL     1       1.731   8.142  18.353  0.00  0.00    +0.000 C 
ENDROOT
BRANCH   1   7
ATOM      4  C   UNL     1       3.442   4.667  17.675  0.00  0.00    +0.000 C 
ATOM      5  C   UNL     1       2.708   3.420  17.233  0.00  0.00    +0.000 C 
ATOM      6  C   UNL     1       3.698   4.771  19.158  0.00  0.00    +0.000 C 
ATOM      7  C   UNL     1       2.678   5.689  18.515  0.00  0.00    +0.000 C 
BRANCH   4   8
ATOM      8  C   UNL     1       4.555   5.111  16.729  0.00  0.00    +0.000 C 
BRANCH   8   9
ATOM      9  C   UNL     1       5.811   4.243  16.886  0.00  0.00    +0.000 C 
BRANCH   9  10
ATOM     10  C   UNL     1       7.150   5.001  16.807  0.00  0.00    +0.000 C 
BRANCH  10  11
ATOM     11  O   UNL     1       7.354   5.633  15.534  0.00  0.00    +0.000 OA
ATOM     12  C   UNL     1       7.103   4.789  14.419  0.00  0.00    +0.000 C 
ENDBRANCH  10  11
BRANCH  10  13
ATOM     13  C   UNL     1       7.322   6.101  17.877  0.00  0.00    +0.000 C 
BRANCH  13  15
ATOM     14  C   UNL     1       8.141   8.474  18.004  0.00  0.00    +0.000 C 
ATOM     15  C   UNL     1       7.501   7.497  17.341  0.00  0.00    +0.000 C 
ENDBRANCH  13  15
ENDBRANCH  10  13
ENDBRANCH   9  10
ENDBRANCH   8   9
ENDBRANCH   4   8
ENDBRANCH   1   7
BRANCH   3  16
ATOM     16  C   UNL     1       1.370   9.313  19.228  0.00  0.00    +0.000 C 
BRANCH  16  17
ATOM     17  C   UNL     1       0.694  10.505  18.555  0.00  0.00    +0.000 C 
BRANCH  17  18
ATOM     18  C   UNL     1      -0.806  10.461  18.651  0.00  0.00    +0.000 C 
ATOM     19  C   UNL     1      -1.542  11.166  19.524  0.00  0.00    +0.000 C 
BRANCH  19  20
ATOM     20  C   UNL     1      -1.028  12.225  20.468  0.00  0.00    +0.000 C 
ATOM     21  C   UNL     1      -0.065  11.694  21.535  0.00  0.00    +0.000 C 
ATOM     22  S   UNL     1      -1.155  11.216  22.894  0.00  0.00    +0.000 S 
ATOM     23  C   UNL     1      -2.366  12.302  22.282  0.00  0.00    +0.000 C 
ATOM     24  N   UNL     1      -2.213  12.834  21.119  0.00  0.00    +0.000 NA
BRANCH  23  25
ATOM     25  C   UNL     1      -3.509  12.649  23.139  0.00  0.00    +0.000 C 
ATOM     26  C   UNL     1      -4.267  13.940  22.917  0.00  0.00    +0.000 C 
ATOM     27  C   UNL     1      -3.473  13.756  24.178  0.00  0.00    +0.000 C 
ATOM     28  C   UNL     1      -2.282  14.619  24.432  0.00  0.00    +0.000 C 
ENDBRANCH  23  25
ENDBRANCH  19  20
ENDBRANCH  17  18
ENDBRANCH  16  17
ENDBRANCH   3  16
TORSDOF 12
ENDMDL
MODEL 5
REMARK VINA RESULT:      -6.7      6.734      9.994
REMARK  Name = 
REMARK  15 active torsions:
REMARK  status: ('A' for Active; 'I' for Inactive)
REMARK    1  A    between atoms: C_2  and  C_3
REMARK    2  A    between atoms: C_3  and  C_4
REMARK    3  A    between atoms: C_4  and  C_5
REMARK    4  A    between atoms: C_4  and  O_27
REMARK    5  A    between atoms: C_5  and  C_6
REMARK    6  A    between atoms: C_6  and  C_7
REMARK    7  A    between atoms: C_7  and  C_8
REMARK    8  A    between atoms: C_10  and  C_11
REMARK    9  A    between atoms: C_13  and  C_14
REMARK   10  A    between atoms: C_14  and  C_15
REMARK   11  A    between atoms: C_15  and  C_16
REMARK   12  A    between atoms: C_17  and  C_18
REMARK   13  A    between atoms: C_21  and  C_22
REMARK   14  A    between atoms: C_24  and  C_25
REMARK   15  A    between atoms: O_27  and  C_28
REMARK                            x       y       z     vdW  Elec       q    Type
REMARK                         _______ _______ _______ _____ _____    ______ ____
ROOT
ATOM      1  C   UNL     1       6.816   7.294  17.523  0.00  0.00    +0.000 C 
ATOM      2  C   UNL     1       7.944   6.899  18.440  0.00  0.00    +0.000 C 
ATOM      3  C   UNL     1       8.090   8.139  17.600  0.00  0.00    +0.000 C 
ENDROOT
BRANCH   1   7
ATOM      4  C   UNL     1       5.914   5.217  15.969  0.00  0.00    +0.000 C 
ATOM      5  C   UNL     1       6.223   4.539  14.652  0.00  0.00    +0.000 C 
ATOM      6  C   UNL     1       4.988   6.405  15.879  0.00  0.00    +0.000 C 
ATOM      7  C   UNL     1       6.454   6.629  16.192  0.00  0.00    +0.000 C 
BRANCH   4   8
ATOM      8  C   UNL     1       5.729   4.259  17.143  0.00  0.00    +0.000 C 
BRANCH   8   9
ATOM      9  C   UNL     1       4.344   3.599  17.122  0.00  0.00    +0.000 C 
BRANCH   9  10
ATOM     10  C   UNL     1       3.504   3.790  18.399  0.00  0.00    +0.000 C 
BRANCH  10  11
ATOM     11  O   UNL     1       4.123   4.682  19.341  0.00  0.00    +0.000 OA
ATOM     12  C   UNL     1       3.586   5.997  19.334  0.00  0.00    +0.000 C 
ENDBRANCH  10  11
BRANCH  10  13
ATOM     13  C   UNL     1       2.080   4.334  18.150  0.00  0.00    +0.000 C 
BRANCH  13  15
ATOM     14  C   UNL     1       0.816   2.248  18.757  0.00  0.00    +0.000 C 
ATOM     15  C   UNL     1       0.974   3.580  18.839  0.00  0.00    +0.000 C 
ENDBRANCH  13  15
ENDBRANCH  10  13
ENDBRANCH   9  10
ENDBRANCH   8   9
ENDBRANCH   4   8
ENDBRANCH   1   7
BRANCH   3  16
ATOM     16  C   UNL     1       8.176   9.514  18.207  0.00  0.00    +0.000 C 
BRANCH  16  17
ATOM     17  C   UNL     1       9.486   9.891  18.896  0.00  0.00    +0.000 C 
BRANCH  17  18
ATOM     18  C   UNL     1       9.284  10.764  20.104  0.00  0.00    +0.000 C 
ATOM     19  C   UNL     1       9.734  12.022  20.228  0.00  0.00    +0.000 C 
BRANCH  19  20
ATOM     20  C   UNL     1      10.396  12.840  19.147  0.00  0.00    +0.000 C 
ATOM     21  C   UNL     1      11.741  13.448  19.561  0.00  0.00    +0.000 C 
ATOM     22  S   UNL     1      11.285  15.039  20.285  0.00  0.00    +0.000 S 
ATOM     23  C   UNL     1       9.795  15.000  19.389  0.00  0.00    +0.000 C 
ATOM     24  N   UNL     1       9.449  13.919  18.780  0.00  0.00    +0.000 NA
BRANCH  23  25
ATOM     25  C   UNL     1       8.997  16.230  19.283  0.00  0.00    +0.000 C 
ATOM     26  C   UNL     1       8.070  16.440  18.105  0.00  0.00    +0.000 C 
ATOM     27  C   UNL     1       9.273  17.325  18.267  0.00  0.00    +0.000 C 
ATOM     28  C   UNL     1      10.372  17.266  17.261  0.00  0.00    +0.000 C 
ENDBRANCH  23  25
ENDBRANCH  19  20
ENDBRANCH  17  18
ENDBRANCH  16  17
ENDBRANCH   3  16
TORSDOF 12
ENDMDL
MODEL 6
REMARK VINA RESULT:      -6.7      0.719      1.767
REMARK  Name = 
REMARK  15 active torsions:
REMARK  status: ('A' for Active; 'I' for Inactive)
REMARK    1  A    between atoms: C_2  and  C_3
REMARK    2  A    between atoms: C_3  and  C_4
REMARK    3  A    between atoms: C_4  and  C_5
REMARK    4  A    between atoms: C_4  and  O_27
REMARK    5  A    between atoms: C_5  and  C_6
REMARK    6  A    between atoms: C_6  and  C_7
REMARK    7  A    between atoms: C_7  and  C_8
REMARK    8  A    between atoms: C_10  and  C_11
REMARK    9  A    between atoms: C_13  and  C_14
REMARK   10  A    between atoms: C_14  and  C_15
REMARK   11  A    between atoms: C_15  and  C_16
REMARK   12  A    between atoms: C_17  and  C_18
REMARK   13  A    between atoms: C_21  and  C_22
REMARK   14  A    between atoms: C_24  and  C_25
REMARK   15  A    between atoms: O_27  and  C_28
REMARK                            x       y       z     vdW  Elec       q    Type
REMARK                         _______ _______ _______ _____ _____    ______ ____
ROOT
ATOM      1  C   UNL     1       2.665   7.183  18.559  0.00  0.00    +0.000 C 
ATOM      2  C   UNL     1       3.657   7.852  17.643  0.00  0.00    +0.000 C 
ATOM      3  C   UNL     1       2.213   8.269  17.580  0.00  0.00    +0.000 C 
ENDROOT
BRANCH   1   7
ATOM      4  C   UNL     1       2.867   4.475  18.144  0.00  0.00    +0.000 C 
ATOM      5  C   UNL     1       2.157   3.362  17.405  0.00  0.00    +0.000 C 
ATOM      6  C   UNL     1       2.332   4.776  19.523  0.00  0.00    +0.000 C 
ATOM      7  C   UNL     1       2.097   5.770  18.403  0.00  0.00    +0.000 C 
BRANCH   4   8
ATOM      8  C   UNL     1       4.381   4.495  17.950  0.00  0.00    +0.000 C 
BRANCH   8   9
ATOM      9  C   UNL     1       4.760   4.546  16.464  0.00  0.00    +0.000 C 
BRANCH   9  10
ATOM     10  C   UNL     1       6.035   5.347  16.137  0.00  0.00    +0.000 C 
BRANCH  10  11
ATOM     11  O   UNL     1       6.867   5.560  17.288  0.00  0.00    +0.000 OA
ATOM     12  C   UNL     1       7.278   6.907  17.467  0.00  0.00    +0.000 C 
ENDBRANCH  10  11
BRANCH  10  13
ATOM     13  C   UNL     1       6.933   4.702  15.058  0.00  0.00    +0.000 C 
BRANCH  13  15
ATOM     14  C   UNL     1       6.136   3.789  12.856  0.00  0.00    +0.000 C 
ATOM     15  C   UNL     1       6.257   3.675  14.189  0.00  0.00    +0.000 C 
ENDBRANCH  13  15
ENDBRANCH  10  13
ENDBRANCH   9  10
ENDBRANCH   8   9
ENDBRANCH   4   8
ENDBRANCH   1   7
BRANCH   3  16
ATOM     16  C   UNL     1       1.759   9.649  17.976  0.00  0.00    +0.000 C 
BRANCH  16  17
ATOM     17  C   UNL     1       0.531   9.747  18.878  0.00  0.00    +0.000 C 
BRANCH  17  18
ATOM     18  C   UNL     1      -0.198  11.055  18.739  0.00  0.00    +0.000 C 
ATOM     19  C   UNL     1      -1.319  11.239  18.025  0.00  0.00    +0.000 C 
BRANCH  19  20
ATOM     20  C   UNL     1      -2.129  10.160  17.350  0.00  0.00    +0.000 C 
ATOM     21  C   UNL     1      -2.600  10.525  15.937  0.00  0.00    +0.000 C 
ATOM     22  S   UNL     1      -4.186  11.343  16.214  0.00  0.00    +0.000 S 
ATOM     23  C   UNL     1      -4.318  10.530  17.746  0.00  0.00    +0.000 C 
ATOM     24  N   UNL     1      -3.303   9.894  18.216  0.00  0.00    +0.000 NA
BRANCH  23  25
ATOM     25  C   UNL     1      -5.615  10.524  18.438  0.00  0.00    +0.000 C 
ATOM     26  C   UNL     1      -6.698  11.504  18.040  0.00  0.00    +0.000 C 
ATOM     27  C   UNL     1      -6.061  11.615  19.395  0.00  0.00    +0.000 C 
ATOM     28  C   UNL     1      -5.240  12.815  19.727  0.00  0.00    +0.000 C 
ENDBRANCH  23  25
ENDBRANCH  19  20
ENDBRANCH  17  18
ENDBRANCH  16  17
ENDBRANCH   3  16
TORSDOF 12
ENDMDL
MODEL 7
REMARK VINA RESULT:      -6.6      6.061      9.342
REMARK  Name = 
REMARK  15 active torsions:
REMARK  status: ('A' for Active; 'I' for Inactive)
REMARK    1  A    between atoms: C_2  and  C_3
REMARK    2  A    between atoms: C_3  and  C_4
REMARK    3  A    between atoms: C_4  and  C_5
REMARK    4  A    between atoms: C_4  and  O_27
REMARK    5  A    between atoms: C_5  and  C_6
REMARK    6  A    between atoms: C_6  and  C_7
REMARK    7  A    between atoms: C_7  and  C_8
REMARK    8  A    between atoms: C_10  and  C_11
REMARK    9  A    between atoms: C_13  and  C_14
REMARK   10  A    between atoms: C_14  and  C_15
REMARK   11  A    between atoms: C_15  and  C_16
REMARK   12  A    between atoms: C_17  and  C_18
REMARK   13  A    between atoms: C_21  and  C_22
REMARK   14  A    between atoms: C_24  and  C_25
REMARK   15  A    between atoms: O_27  and  C_28
REMARK                            x       y       z     vdW  Elec       q    Type
REMARK                         _______ _______ _______ _____ _____    ______ ____
ROOT
ATOM      1  C   UNL     1       6.845   6.998  17.811  0.00  0.00    +0.000 C 
ATOM      2  C   UNL     1       7.920   6.398  18.679  0.00  0.00    +0.000 C 
ATOM      3  C   UNL     1       8.203   7.689  17.959  0.00  0.00    +0.000 C 
ENDROOT
BRANCH   1   7
ATOM      4  C   UNL     1       5.646   5.231  16.084  0.00  0.00    +0.000 C 
ATOM      5  C   UNL     1       5.876   4.604  14.726  0.00  0.00    +0.000 C 
ATOM      6  C   UNL     1       4.948   6.568  16.066  0.00  0.00    +0.000 C 
ATOM      7  C   UNL     1       6.418   6.505  16.426  0.00  0.00    +0.000 C 
BRANCH   4   8
ATOM      8  C   UNL     1       5.255   4.239  17.177  0.00  0.00    +0.000 C 
BRANCH   8   9
ATOM      9  C   UNL     1       3.763   3.884  17.110  0.00  0.00    +0.000 C 
BRANCH   9  10
ATOM     10  C   UNL     1       3.060   3.738  18.473  0.00  0.00    +0.000 C 
BRANCH  10  11
ATOM     11  O   UNL     1       3.286   2.455  19.078  0.00  0.00    +0.000 OA
ATOM     12  C   UNL     1       4.074   2.501  20.259  0.00  0.00    +0.000 C 
ENDBRANCH  10  11
BRANCH  10  13
ATOM     13  C   UNL     1       3.473   4.797  19.519  0.00  0.00    +0.000 C 
BRANCH  13  15
ATOM     14  C   UNL     1       2.598   7.048  18.821  0.00  0.00    +0.000 C 
ATOM     15  C   UNL     1       2.549   5.980  19.635  0.00  0.00    +0.000 C 
ENDBRANCH  13  15
ENDBRANCH  10  13
ENDBRANCH   9  10
ENDBRANCH   8   9
ENDBRANCH   4   8
ENDBRANCH   1   7
BRANCH   3  16
ATOM     16  C   UNL     1       8.436   8.983  18.693  0.00  0.00    +0.000 C 
BRANCH  16  17
ATOM     17  C   UNL     1       8.682  10.230  17.846  0.00  0.00    +0.000 C 
BRANCH  17  18
ATOM     18  C   UNL     1      10.042  10.830  18.067  0.00  0.00    +0.000 C 
ATOM     19  C   UNL     1      10.271  12.062  18.546  0.00  0.00    +0.000 C 
BRANCH  19  20
ATOM     20  C   UNL     1       9.231  13.017  19.077  0.00  0.00    +0.000 C 
ATOM     21  C   UNL     1       9.751  14.439  19.313  0.00  0.00    +0.000 C 
ATOM     22  S   UNL     1      10.366  14.392  21.011  0.00  0.00    +0.000 S 
ATOM     23  C   UNL     1       9.331  13.032  21.330  0.00  0.00    +0.000 C 
ATOM     24  N   UNL     1       8.732  12.447  20.352  0.00  0.00    +0.000 NA
BRANCH  23  25
ATOM     25  C   UNL     1       9.102  12.626  22.724  0.00  0.00    +0.000 C 
ATOM     26  C   UNL     1       7.929  11.737  23.077  0.00  0.00    +0.000 C 
ATOM     27  C   UNL     1       7.960  13.153  23.575  0.00  0.00    +0.000 C 
ATOM     28  C   UNL     1       6.942  14.128  23.088  0.00  0.00    +0.000 C 
ENDBRANCH  23  25
ENDBRANCH  19  20
ENDBRANCH  17  18
ENDBRANCH  16  17
ENDBRANCH   3  16
TORSDOF 12
ENDMDL
MODEL 8
REMARK VINA RESULT:      -6.6      6.767      9.938
REMARK  Name = 
REMARK  15 active torsions:
REMARK  status: ('A' for Active; 'I' for Inactive)
REMARK    1  A    between atoms: C_2  and  C_3
REMARK    2  A    between atoms: C_3  and  C_4
REMARK    3  A    between atoms: C_4  and  C_5
REMARK    4  A    between atoms: C_4  and  O_27
REMARK    5  A    between atoms: C_5  and  C_6
REMARK    6  A    between atoms: C_6  and  C_7
REMARK    7  A    between atoms: C_7  and  C_8
REMARK    8  A    between atoms: C_10  and  C_11
REMARK    9  A    between atoms: C_13  and  C_14
REMARK   10  A    between atoms: C_14  and  C_15
REMARK   11  A    between atoms: C_15  and  C_16
REMARK   12  A    between atoms: C_17  and  C_18
REMARK   13  A    between atoms: C_21  and  C_22
REMARK   14  A    between atoms: C_24  and  C_25
REMARK   15  A    between atoms: O_27  and  C_28
REMARK                            x       y       z     vdW  Elec       q    Type
REMARK                         _______ _______ _______ _____ _____    ______ ____
ROOT
ATOM      1  C   UNL     1       6.817   7.112  17.606  0.00  0.00    +0.000 C 
ATOM      2  C   UNL     1       8.013   6.958  18.509  0.00  0.00    +0.000 C 
ATOM      3  C   UNL     1       8.017   8.055  17.479  0.00  0.00    +0.000 C 
ENDROOT
BRANCH   1   7
ATOM      4  C   UNL     1       5.281   5.247  16.300  0.00  0.00    +0.000 C 
ATOM      5  C   UNL     1       5.442   4.042  15.399  0.00  0.00    +0.000 C 
ATOM      6  C   UNL     1       5.239   6.579  15.591  0.00  0.00    +0.000 C 
ATOM      7  C   UNL     1       6.457   6.216  16.417  0.00  0.00    +0.000 C 
BRANCH   4   8
ATOM      8  C   UNL     1       4.326   5.035  17.471  0.00  0.00    +0.000 C 
BRANCH   8   9
ATOM      9  C   UNL     1       3.628   3.670  17.392  0.00  0.00    +0.000 C 
BRANCH   9  10
ATOM     10  C   UNL     1       3.299   3.019  18.748  0.00  0.00    +0.000 C 
BRANCH  10  11
ATOM     11  O   UNL     1       4.295   2.072  19.165  0.00  0.00    +0.000 OA
ATOM     12  C   UNL     1       4.387   1.907  20.573  0.00  0.00    +0.000 C 
ENDBRANCH  10  11
BRANCH  10  13
ATOM     13  C   UNL     1       3.132   4.022  19.912  0.00  0.00    +0.000 C 
BRANCH  13  15
ATOM     14  C   UNL     1       0.709   3.500  20.329  0.00  0.00    +0.000 C 
ATOM     15  C   UNL     1       1.710   4.391  20.243  0.00  0.00    +0.000 C 
ENDBRANCH  13  15
ENDBRANCH  10  13
ENDBRANCH   9  10
ENDBRANCH   8   9
ENDBRANCH   4   8
ENDBRANCH   1   7
BRANCH   3  16
ATOM     16  C   UNL     1       8.010   9.512  17.858  0.00  0.00    +0.000 C 
BRANCH  16  17
ATOM     17  C   UNL     1       9.125   9.997  18.782  0.00  0.00    +0.000 C 
BRANCH  17  18
ATOM     18  C   UNL     1      10.067  10.958  18.112  0.00  0.00    +0.000 C 
ATOM     19  C   UNL     1      10.015  12.293  18.226  0.00  0.00    +0.000 C 
BRANCH  19  20
ATOM     20  C   UNL     1       9.104  13.072  19.143  0.00  0.00    +0.000 C 
ATOM     21  C   UNL     1       8.023  13.876  18.412  0.00  0.00    +0.000 C 
ATOM     22  S   UNL     1       8.819  15.466  18.090  0.00  0.00    +0.000 S 
ATOM     23  C   UNL     1       9.925  15.157  19.396  0.00  0.00    +0.000 C 
ATOM     24  N   UNL     1       9.963  13.986  19.932  0.00  0.00    +0.000 NA
BRANCH  23  25
ATOM     25  C   UNL     1      10.742  16.264  19.913  0.00  0.00    +0.000 C 
ATOM     26  C   UNL     1      11.262  16.232  21.333  0.00  0.00    +0.000 C 
ATOM     27  C   UNL     1      10.246  17.265  20.941  0.00  0.00    +0.000 C 
ATOM     28  C   UNL     1       8.884  17.226  21.548  0.00  0.00    +0.000 C 
ENDBRANCH  23  25
ENDBRANCH  19  20
ENDBRANCH  17  18
ENDBRANCH  16  17
ENDBRANCH   3  16
TORSDOF 12
ENDMDL
MODEL 9
REMARK VINA RESULT:      -6.6      1.207      1.938
REMARK  Name = 
REMARK  15 active torsions:
REMARK  status: ('A' for Active; 'I' for Inactive)
REMARK    1  A    between atoms: C_2  and  C_3
REMARK    2  A    between atoms: C_3  and  C_4
REMARK    3  A    between atoms: C_4  and  C_5
REMARK    4  A    between atoms: C_4  and  O_27
REMARK    5  A    between atoms: C_5  and  C_6
REMARK    6  A    between atoms: C_6  and  C_7
REMARK    7  A    between atoms: C_7  and  C_8
REMARK    8  A    between atoms: C_10  and  C_11
REMARK    9  A    between atoms: C_13  and  C_14
REMARK   10  A    between atoms: C_14  and  C_15
REMARK   11  A    between atoms: C_15  and  C_16
REMARK   12  A    between atoms: C_17  and  C_18
REMARK   13  A    between atoms: C_21  and  C_22
REMARK   14  A    between atoms: C_24  and  C_25
REMARK   15  A    between atoms: O_27  and  C_28
REMARK                            x       y       z     vdW  Elec       q    Type
REMARK                         _______ _______ _______ _____ _____    ______ ____
ROOT
ATOM      1  C   UNL     1       2.530   7.417  18.949  0.00  0.00    +0.000 C 
ATOM      2  C   UNL     1       2.879   8.079  17.641  0.00  0.00    +0.000 C 
ATOM      3  C   UNL     1       1.708   8.600  18.431  0.00  0.00    +0.000 C 
ENDROOT
BRANCH   1   7
ATOM      4  C   UNL     1       2.497   4.697  19.331  0.00  0.00    +0.000 C 
ATOM      5  C   UNL     1       1.754   3.470  18.849  0.00  0.00    +0.000 C 
ATOM      6  C   UNL     1       1.862   5.418  20.494  0.00  0.00    +0.000 C 
ATOM      7  C   UNL     1       1.840   6.061  19.123  0.00  0.00    +0.000 C 
BRANCH   4   8
ATOM      8  C   UNL     1       4.017   4.556  19.327  0.00  0.00    +0.000 C 
BRANCH   8   9
ATOM      9  C   UNL     1       4.578   4.525  17.898  0.00  0.00    +0.000 C 
BRANCH   9  10
ATOM     10  C   UNL     1       5.668   5.571  17.597  0.00  0.00    +0.000 C 
BRANCH  10  11
ATOM     11  O   UNL     1       6.984   5.118  17.954  0.00  0.00    +0.000 OA
ATOM     12  C   UNL     1       7.679   5.989  18.835  0.00  0.00    +0.000 C 
ENDBRANCH  10  11
BRANCH  10  13
ATOM     13  C   UNL     1       5.740   6.008  16.117  0.00  0.00    +0.000 C 
BRANCH  13  15
ATOM     14  C   UNL     1       6.334   4.115  14.574  0.00  0.00    +0.000 C 
ATOM     15  C   UNL     1       5.416   4.934  15.113  0.00  0.00    +0.000 C 
ENDBRANCH  13  15
ENDBRANCH  10  13
ENDBRANCH   9  10
ENDBRANCH   8   9
ENDBRANCH   4   8
ENDBRANCH   1   7
BRANCH   3  16
ATOM     16  C   UNL     1       1.699   9.976  19.041  0.00  0.00    +0.000 C 
BRANCH  16  17
ATOM     17  C   UNL     1       0.355  10.517  19.521  0.00  0.00    +0.000 C 
BRANCH  17  18
ATOM     18  C   UNL     1      -0.143  11.670  18.695  0.00  0.00    +0.000 C 
ATOM     19  C   UNL     1      -1.303  11.691  18.021  0.00  0.00    +0.000 C 
BRANCH  19  20
ATOM     20  C   UNL     1      -2.379  10.635  18.074  0.00  0.00    +0.000 C 
ATOM     21  C   UNL     1      -2.543   9.845  16.771  0.00  0.00    +0.000 C 
ATOM     22  S   UNL     1      -3.742  10.817  15.831  0.00  0.00    +0.000 S 
ATOM     23  C   UNL     1      -4.311  11.519  17.316  0.00  0.00    +0.000 C 
ATOM     24  N   UNL     1      -3.648  11.328  18.404  0.00  0.00    +0.000 NA
BRANCH  23  25
ATOM     25  C   UNL     1      -5.583  12.256  17.312  0.00  0.00    +0.000 C 
ATOM     26  C   UNL     1      -6.094  12.904  18.580  0.00  0.00    +0.000 C 
ATOM     27  C   UNL     1      -6.848  11.751  17.984  0.00  0.00    +0.000 C 
ATOM     28  C   UNL     1      -6.935  10.462  18.730  0.00  0.00    +0.000 C 
ENDBRANCH  23  25
ENDBRANCH  19  20
ENDBRANCH  17  18
ENDBRANCH  16  17
ENDBRANCH   3  16
TORSDOF 12
ENDMDL
