MODEL 1
REMARK VINA RESULT:      -8.3      0.000      0.000
REMARK  Name = 
REMARK  8 active torsions:
REMARK  status: ('A' for Active; 'I' for Inactive)
REMARK    1  A    between atoms: C_1  and  O_2
REMARK    2  A    between atoms: O_2  and  C_3
REMARK    3  A    between atoms: C_6  and  C_7
REMARK    4  A    between atoms: C_7  and  C_8
REMARK    5  A    between atoms: N_10  and  C_11
REMARK    6  A    between atoms: C_11  and  C_12
REMARK    7  A    between atoms: C_25  and  O_26
REMARK    8  A    between atoms: O_26  and  C_27
REMARK                            x       y       z     vdW  Elec       q    Type
REMARK                         _______ _______ _______ _____ _____    ______ ____
ROOT
ATOM      1  C   UNL     1       3.659   3.853  18.127  0.00  0.00    +0.000 C 
ATOM      2  C   UNL     1       4.017   4.207  19.595  0.00  0.00    +0.000 C 
ATOM      3  C   UNL     1       3.032   3.650  20.609  0.00  0.00    +0.000 C 
ATOM      4  O   UNL     1       2.943   2.239  20.491  0.00  0.00    +0.000 OA
ATOM      5  C   UNL     1       2.449   1.852  19.214  0.00  0.00    +0.000 C 
ATOM      6  C   UNL     1       3.397   2.309  18.110  0.00  0.00    +0.000 C 
ENDROOT
BRANCH   1  10
ATOM      7  C   UNL     1       6.855   5.049  15.319  0.00  0.00    +0.000 A 
ATOM      8  C   UNL     1       5.824   4.190  14.920  0.00  0.00    +0.000 A 
ATOM      9  C   UNL     1       4.796   3.823  15.800  0.00  0.00    +0.000 A 
ATOM     10  C   UNL     1       4.820   4.204  17.145  0.00  0.00    +0.000 A 
ATOM     11  C   UNL     1       5.956   4.927  17.554  0.00  0.00    +0.000 A 
ATOM     12  C   UNL     1       6.929   5.414  16.663  0.00  0.00    +0.000 A 
BRANCH   7  14
ATOM     13  C   UNL     1       7.662   5.074  13.085  0.00  0.00    +0.000 C 
ATOM     14  O   UNL     1       7.812   5.479  14.445  0.00  0.00    +0.000 OA
ENDBRANCH   7  14
BRANCH  12  15
ATOM     15  O   UNL     1       7.828   6.234  17.294  0.00  0.00    +0.000 OA
ATOM     16  C   UNL     1       7.474   7.585  17.545  0.00  0.00    +0.000 C 
ENDBRANCH  12  15
ENDBRANCH   1  10
BRANCH   1  17
ATOM     17  C   UNL     1       2.323   4.539  17.648  0.00  0.00    +0.000 C 
ATOM     18  O   UNL     1       1.476   3.908  17.001  0.00  0.00    +0.000 OA
ATOM     19  N   UNL     1       1.993   5.835  17.934  0.00  0.00    +0.000 N 
ATOM     20  H   UNL     1       1.112   6.088  17.496  0.00  0.00    +0.000 HD
BRANCH  19  21
ATOM     21  C   UNL     1       2.889   6.944  18.160  0.00  0.00    +0.000 C 
BRANCH  21  22
ATOM     22  C   UNL     1       2.205   8.172  18.683  0.00  0.00    +0.000 A 
ATOM     23  C   UNL     1       2.152   9.306  17.846  0.00  0.00    +0.000 A 
ATOM     24  C   UNL     1       1.429  10.437  18.216  0.00  0.00    +0.000 A 
ATOM     25  C   UNL     1       0.759  10.459  19.435  0.00  0.00    +0.000 A 
ATOM     26  C   UNL     1       0.822   9.354  20.286  0.00  0.00    +0.000 A 
ATOM     27  C   UNL     1       1.543   8.216  19.915  0.00  0.00    +0.000 A 
ATOM     28 CL   UNL     1       1.556   6.881  21.010  0.00  0.00    +0.000 Cl
ENDBRANCH  21  22
ENDBRANCH  19  21
ENDBRANCH   1  17
TORSDOF 6
ENDMDL
MODEL 2
REMARK VINA RESULT:      -8.0      2.360      6.137
REMARK  Name = 
REMARK  8 active torsions:
REMARK  status: ('A' for Active; 'I' for Inactive)
REMARK    1  A    between atoms: C_1  and  O_2
REMARK    2  A    between atoms: O_2  and  C_3
REMARK    3  A    between atoms: C_6  and  C_7
REMARK    4  A    between atoms: C_7  and  C_8
REMARK    5  A    between atoms: N_10  and  C_11
REMARK    6  A    between atoms: C_11  and  C_12
REMARK    7  A    between atoms: C_25  and  O_26
REMARK    8  A    between atoms: O_26  and  C_27
REMARK                            x       y       z     vdW  Elec       q    Type
REMARK                         _______ _______ _______ _____ _____    ______ ____
ROOT
ATOM      1  C   UNL     1       5.247   5.511  17.554  0.00  0.00    +0.000 C 
ATOM      2  C   UNL     1       6.183   6.467  16.770  0.00  0.00    +0.000 C 
ATOM      3  C   UNL     1       7.207   5.741  15.912  0.00  0.00    +0.000 C 
ATOM      4  O   UNL     1       6.559   4.880  14.987  0.00  0.00    +0.000 OA
ATOM      5  C   UNL     1       5.817   3.865  15.653  0.00  0.00    +0.000 C 
ATOM      6  C   UNL     1       4.711   4.478  16.505  0.00  0.00    +0.000 C 
ENDROOT
BRANCH   1  10
ATOM      7  C   UNL     1       2.004   7.829  19.464  0.00  0.00    +0.000 A 
ATOM      8  C   UNL     1       2.504   6.661  20.052  0.00  0.00    +0.000 A 
ATOM      9  C   UNL     1       3.546   5.932  19.462  0.00  0.00    +0.000 A 
ATOM     10  C   UNL     1       4.051   6.274  18.204  0.00  0.00    +0.000 A 
ATOM     11  C   UNL     1       3.413   7.353  17.564  0.00  0.00    +0.000 A 
ATOM     12  C   UNL     1       2.458   8.174  18.191  0.00  0.00    +0.000 A 
BRANCH   7  14
ATOM     13  C   UNL     1       1.184   8.774  21.482  0.00  0.00    +0.000 C 
ATOM     14  O   UNL     1       1.049   8.590  20.074  0.00  0.00    +0.000 OA
ENDBRANCH   7  14
BRANCH  12  15
ATOM     15  O   UNL     1       2.131   9.254  17.414  0.00  0.00    +0.000 OA
ATOM     16  C   UNL     1       2.128  10.549  17.993  0.00  0.00    +0.000 C 
ENDBRANCH  12  15
ENDBRANCH   1  10
BRANCH   1  17
ATOM     17  C   UNL     1       6.013   4.677  18.651  0.00  0.00    +0.000 C 
ATOM     18  O   UNL     1       7.159   4.985  19.004  0.00  0.00    +0.000 OA
ATOM     19  N   UNL     1       5.468   3.604  19.302  0.00  0.00    +0.000 N 
ATOM     20  H   UNL     1       6.144   3.188  19.936  0.00  0.00    +0.000 HD
BRANCH  19  21
ATOM     21  C   UNL     1       4.466   2.690  18.810  0.00  0.00    +0.000 C 
BRANCH  21  22
ATOM     22  C   UNL     1       3.199   2.698  19.612  0.00  0.00    +0.000 A 
ATOM     23  C   UNL     1       3.290   2.435  20.995  0.00  0.00    +0.000 A 
ATOM     24  C   UNL     1       2.175   2.548  21.821  0.00  0.00    +0.000 A 
ATOM     25  C   UNL     1       0.947   2.911  21.276  0.00  0.00    +0.000 A 
ATOM     26  C   UNL     1       0.835   3.150  19.906  0.00  0.00    +0.000 A 
ATOM     27  C   UNL     1       1.954   3.043  19.075  0.00  0.00    +0.000 A 
ATOM     28 CL   UNL     1       1.741   3.377  17.394  0.00  0.00    +0.000 Cl
ENDBRANCH  21  22
ENDBRANCH  19  21
ENDBRANCH   1  17
TORSDOF 6
ENDMDL
MODEL 3
REMARK VINA RESULT:      -8.0      1.313      1.691
REMARK  Name = 
REMARK  8 active torsions:
REMARK  status: ('A' for Active; 'I' for Inactive)
REMARK    1  A    between atoms: C_1  and  O_2
REMARK    2  A    between atoms: O_2  and  C_3
REMARK    3  A    between atoms: C_6  and  C_7
REMARK    4  A    between atoms: C_7  and  C_8
REMARK    5  A    between atoms: N_10  and  C_11
REMARK    6  A    between atoms: C_11  and  C_12
REMARK    7  A    between atoms: C_25  and  O_26
REMARK    8  A    between atoms: O_26  and  C_27
REMARK                            x       y       z     vdW  Elec       q    Type
REMARK                         _______ _______ _______ _____ _____    ______ ____
ROOT
ATOM      1  C   UNL     1       3.136   3.921  18.758  0.00  0.00    +0.000 C 
ATOM      2  C   UNL     1       3.403   4.396  20.211  0.00  0.00    +0.000 C 
ATOM      3  C   UNL     1       2.295   4.022  21.182  0.00  0.00    +0.000 C 
ATOM      4  O   UNL     1       2.098   2.616  21.193  0.00  0.00    +0.000 OA
ATOM      5  C   UNL     1       1.678   2.139  19.919  0.00  0.00    +0.000 C 
ATOM      6  C   UNL     1       2.748   2.407  18.866  0.00  0.00    +0.000 C 
ENDROOT
BRANCH   1  10
ATOM      7  C   UNL     1       6.672   4.592  16.193  0.00  0.00    +0.000 A 
ATOM      8  C   UNL     1       5.491   4.052  15.671  0.00  0.00    +0.000 A 
ATOM      9  C   UNL     1       4.359   3.856  16.475  0.00  0.00    +0.000 A 
ATOM     10  C   UNL     1       4.399   4.080  17.855  0.00  0.00    +0.000 A 
ATOM     11  C   UNL     1       5.650   4.462  18.374  0.00  0.00    +0.000 A 
ATOM     12  C   UNL     1       6.758   4.788  17.570  0.00  0.00    +0.000 A 
BRANCH   7  14
ATOM     13  C   UNL     1       7.490   5.033  14.007  0.00  0.00    +0.000 C 
ATOM     14  O   UNL     1       7.749   4.866  15.400  0.00  0.00    +0.000 OA
ENDBRANCH   7  14
BRANCH  12  15
ATOM     15  O   UNL     1       7.789   5.299  18.315  0.00  0.00    +0.000 OA
ATOM     16  C   UNL     1       7.895   6.704  18.480  0.00  0.00    +0.000 C 
ENDBRANCH  12  15
ENDBRANCH   1  10
BRANCH   1  17
ATOM     17  C   UNL     1       1.907   4.652  18.098  0.00  0.00    +0.000 C 
ATOM     18  O   UNL     1       1.161   4.062  17.306  0.00  0.00    +0.000 OA
ATOM     19  N   UNL     1       1.561   5.948  18.371  0.00  0.00    +0.000 N 
ATOM     20  H   UNL     1       0.765   6.234  17.809  0.00  0.00    +0.000 HD
BRANCH  19  21
ATOM     21  C   UNL     1       2.431   7.027  18.771  0.00  0.00    +0.000 C 
BRANCH  21  22
ATOM     22  C   UNL     1       1.762   8.045  19.647  0.00  0.00    +0.000 A 
ATOM     23  C   UNL     1       1.535   7.708  20.997  0.00  0.00    +0.000 A 
ATOM     24  C   UNL     1       1.032   8.647  21.895  0.00  0.00    +0.000 A 
ATOM     25  C   UNL     1       0.736   9.932  21.454  0.00  0.00    +0.000 A 
ATOM     26  C   UNL     1       0.932  10.274  20.116  0.00  0.00    +0.000 A 
ATOM     27  C   UNL     1       1.441   9.336  19.213  0.00  0.00    +0.000 A 
ATOM     28 CL   UNL     1       1.678   9.839  17.578  0.00  0.00    +0.000 Cl
ENDBRANCH  21  22
ENDBRANCH  19  21
ENDBRANCH   1  17
TORSDOF 6
ENDMDL
MODEL 4
REMARK VINA RESULT:      -7.9      2.737      6.273
REMARK  Name = 
REMARK  8 active torsions:
REMARK  status: ('A' for Active; 'I' for Inactive)
REMARK    1  A    between atoms: C_1  and  O_2
REMARK    2  A    between atoms: O_2  and  C_3
REMARK    3  A    between atoms: C_6  and  C_7
REMARK    4  A    between atoms: C_7  and  C_8
REMARK    5  A    between atoms: N_10  and  C_11
REMARK    6  A    between atoms: C_11  and  C_12
REMARK    7  A    between atoms: C_25  and  O_26
REMARK    8  A    between atoms: O_26  and  C_27
REMARK                            x       y       z     vdW  Elec       q    Type
REMARK                         _______ _______ _______ _____ _____    ______ ____
ROOT
ATOM      1  C   UNL     1       2.201   4.669  19.193  0.00  0.00    +0.000 C 
ATOM      2  C   UNL     1       2.087   4.030  17.784  0.00  0.00    +0.000 C 
ATOM      3  C   UNL     1       1.933   2.518  17.817  0.00  0.00    +0.000 C 
ATOM      4  O   UNL     1       0.790   2.152  18.575  0.00  0.00    +0.000 OA
ATOM      5  C   UNL     1       0.913   2.561  19.932  0.00  0.00    +0.000 C 
ATOM      6  C   UNL     1       1.014   4.080  20.028  0.00  0.00    +0.000 C 
ENDROOT
BRANCH   1  10
ATOM      7  C   UNL     1       1.653   9.052  19.023  0.00  0.00    +0.000 A 
ATOM      8  C   UNL     1       2.066   8.329  17.898  0.00  0.00    +0.000 A 
ATOM      9  C   UNL     1       2.222   6.936  17.940  0.00  0.00    +0.000 A 
ATOM     10  C   UNL     1       2.086   6.225  19.136  0.00  0.00    +0.000 A 
ATOM     11  C   UNL     1       1.836   7.002  20.282  0.00  0.00    +0.000 A 
ATOM     12  C   UNL     1       1.549   8.378  20.240  0.00  0.00    +0.000 A 
BRANCH   7  14
ATOM     13  C   UNL     1       0.068  10.796  18.734  0.00  0.00    +0.000 C 
ATOM     14  O   UNL     1       1.416  10.395  18.969  0.00  0.00    +0.000 OA
ENDBRANCH   7  14
BRANCH  12  15
ATOM     15  O   UNL     1       1.167   8.852  21.468  0.00  0.00    +0.000 OA
ATOM     16  C   UNL     1      -0.191   8.737  21.864  0.00  0.00    +0.000 C 
ENDBRANCH  12  15
ENDBRANCH   1  10
BRANCH   1  17
ATOM     17  C   UNL     1       3.524   4.255  19.942  0.00  0.00    +0.000 C 
ATOM     18  O   UNL     1       3.486   3.632  21.011  0.00  0.00    +0.000 OA
ATOM     19  N   UNL     1       4.779   4.512  19.460  0.00  0.00    +0.000 N 
ATOM     20  H   UNL     1       5.487   4.199  20.116  0.00  0.00    +0.000 HD
BRANCH  19  21
ATOM     21  C   UNL     1       5.189   5.604  18.611  0.00  0.00    +0.000 C 
BRANCH  21  22
ATOM     22  C   UNL     1       5.803   5.160  17.316  0.00  0.00    +0.000 A 
ATOM     23  C   UNL     1       5.233   4.049  16.661  0.00  0.00    +0.000 A 
ATOM     24  C   UNL     1       5.673   3.658  15.399  0.00  0.00    +0.000 A 
ATOM     25  C   UNL     1       6.698   4.363  14.776  0.00  0.00    +0.000 A 
ATOM     26  C   UNL     1       7.289   5.450  15.422  0.00  0.00    +0.000 A 
ATOM     27  C   UNL     1       6.847   5.848  16.687  0.00  0.00    +0.000 A 
ATOM     28 CL   UNL     1       7.612   7.216  17.412  0.00  0.00    +0.000 Cl
ENDBRANCH  21  22
ENDBRANCH  19  21
ENDBRANCH   1  17
TORSDOF 6
ENDMDL
MODEL 5
REMARK VINA RESULT:      -7.8      1.776      3.024
REMARK  Name = 
REMARK  8 active torsions:
REMARK  status: ('A' for Active; 'I' for Inactive)
REMARK    1  A    between atoms: C_1  and  O_2
REMARK    2  A    between atoms: O_2  and  C_3
REMARK    3  A    between atoms: C_6  and  C_7
REMARK    4  A    between atoms: C_7  and  C_8
REMARK    5  A    between atoms: N_10  and  C_11
REMARK    6  A    between atoms: C_11  and  C_12
REMARK    7  A    between atoms: C_25  and  O_26
REMARK    8  A    between atoms: O_26  and  C_27
REMARK                            x       y       z     vdW  Elec       q    Type
REMARK                         _______ _______ _______ _____ _____    ______ ____
ROOT
ATOM      1  C   UNL     1       3.060   4.181  19.158  0.00  0.00    +0.000 C 
ATOM      2  C   UNL     1       3.366   2.666  19.292  0.00  0.00    +0.000 C 
ATOM      3  C   UNL     1       2.130   1.819  19.546  0.00  0.00    +0.000 C 
ATOM      4  O   UNL     1       1.182   2.000  18.504  0.00  0.00    +0.000 OA
ATOM      5  C   UNL     1       0.727   3.347  18.443  0.00  0.00    +0.000 C 
ATOM      6  C   UNL     1       1.883   4.291  18.130  0.00  0.00    +0.000 C 
ENDROOT
BRANCH   1  10
ATOM      7  C   UNL     1       6.631   6.252  17.581  0.00  0.00    +0.000 A 
ATOM      8  C   UNL     1       6.543   5.884  18.929  0.00  0.00    +0.000 A 
ATOM      9  C   UNL     1       5.422   5.209  19.431  0.00  0.00    +0.000 A 
ATOM     10  C   UNL     1       4.295   4.979  18.636  0.00  0.00    +0.000 A 
ATOM     11  C   UNL     1       4.349   5.510  17.333  0.00  0.00    +0.000 A 
ATOM     12  C   UNL     1       5.510   6.074  16.772  0.00  0.00    +0.000 A 
BRANCH   7  14
ATOM     13  C   UNL     1       8.036   8.165  17.492  0.00  0.00    +0.000 C 
ATOM     14  O   UNL     1       7.754   6.833  17.066  0.00  0.00    +0.000 OA
ENDBRANCH   7  14
BRANCH  12  15
ATOM     15  O   UNL     1       5.345   6.346  15.439  0.00  0.00    +0.000 OA
ATOM     16  C   UNL     1       5.645   5.341  14.484  0.00  0.00    +0.000 C 
ENDBRANCH  12  15
ENDBRANCH   1  10
BRANCH   1  17
ATOM     17  C   UNL     1       2.539   4.815  20.503  0.00  0.00    +0.000 C 
ATOM     18  O   UNL     1       2.242   4.105  21.473  0.00  0.00    +0.000 OA
ATOM     19  N   UNL     1       2.414   6.163  20.706  0.00  0.00    +0.000 N 
ATOM     20  H   UNL     1       2.023   6.354  21.623  0.00  0.00    +0.000 HD
BRANCH  19  21
ATOM     21  C   UNL     1       2.153   7.182  19.719  0.00  0.00    +0.000 C 
BRANCH  21  22
ATOM     22  C   UNL     1       1.401   8.363  20.259  0.00  0.00    +0.000 A 
ATOM     23  C   UNL     1       1.095   8.378  21.635  0.00  0.00    +0.000 A 
ATOM     24  C   UNL     1       0.509   9.495  22.226  0.00  0.00    +0.000 A 
ATOM     25  C   UNL     1       0.208  10.608  21.449  0.00  0.00    +0.000 A 
ATOM     26  C   UNL     1       0.482  10.600  20.081  0.00  0.00    +0.000 A 
ATOM     27  C   UNL     1       1.074   9.483  19.485  0.00  0.00    +0.000 A 
ATOM     28 CL   UNL     1       1.403   9.555  17.792  0.00  0.00    +0.000 Cl
ENDBRANCH  21  22
ENDBRANCH  19  21
ENDBRANCH   1  17
TORSDOF 6
ENDMDL
MODEL 6
REMARK VINA RESULT:      -7.8      1.318      2.118
REMARK  Name = 
REMARK  8 active torsions:
REMARK  status: ('A' for Active; 'I' for Inactive)
REMARK    1  A    between atoms: C_1  and  O_2
REMARK    2  A    between atoms: O_2  and  C_3
REMARK    3  A    between atoms: C_6  and  C_7
REMARK    4  A    between atoms: C_7  and  C_8
REMARK    5  A    between atoms: N_10  and  C_11
REMARK    6  A    between atoms: C_11  and  C_12
REMARK    7  A    between atoms: C_25  and  O_26
REMARK    8  A    between atoms: O_26  and  C_27
REMARK                            x       y       z     vdW  Elec       q    Type
REMARK                         _______ _______ _______ _____ _____    ______ ____
ROOT
ATOM      1  C   UNL     1       3.472   3.746  18.220  0.00  0.00    +0.000 C 
ATOM      2  C   UNL     1       3.359   2.210  18.403  0.00  0.00    +0.000 C 
ATOM      3  C   UNL     1       2.073   1.776  19.087  0.00  0.00    +0.000 C 
ATOM      4  O   UNL     1       0.944   2.230  18.356  0.00  0.00    +0.000 OA
ATOM      5  C   UNL     1       0.897   3.651  18.301  0.00  0.00    +0.000 C 
ATOM      6  C   UNL     1       2.120   4.202  17.575  0.00  0.00    +0.000 C 
ENDROOT
BRANCH   1  10
ATOM      7  C   UNL     1       6.759   5.053  15.570  0.00  0.00    +0.000 A 
ATOM      8  C   UNL     1       5.675   4.320  15.072  0.00  0.00    +0.000 A 
ATOM      9  C   UNL     1       4.620   3.920  15.904  0.00  0.00    +0.000 A 
ATOM     10  C   UNL     1       4.660   4.133  17.285  0.00  0.00    +0.000 A 
ATOM     11  C   UNL     1       5.840   4.723  17.776  0.00  0.00    +0.000 A 
ATOM     12  C   UNL     1       6.850   5.246  16.947  0.00  0.00    +0.000 A 
BRANCH   7  14
ATOM     13  C   UNL     1       7.680   5.129  13.382  0.00  0.00    +0.000 C 
ATOM     14  O   UNL     1       7.749   5.519  14.752  0.00  0.00    +0.000 OA
ENDBRANCH   7  14
BRANCH  12  15
ATOM     15  O   UNL     1       7.797   5.922  17.672  0.00  0.00    +0.000 OA
ATOM     16  C   UNL     1       7.698   7.332  17.798  0.00  0.00    +0.000 C 
ENDBRANCH  12  15
ENDBRANCH   1  10
BRANCH   1  17
ATOM     17  C   UNL     1       3.595   4.512  19.591  0.00  0.00    +0.000 C 
ATOM     18  O   UNL     1       3.771   3.900  20.653  0.00  0.00    +0.000 OA
ATOM     19  N   UNL     1       3.554   5.876  19.702  0.00  0.00    +0.000 N 
ATOM     20  H   UNL     1       3.609   6.159  20.676  0.00  0.00    +0.000 HD
BRANCH  19  21
ATOM     21  C   UNL     1       2.866   6.810  18.844  0.00  0.00    +0.000 C 
BRANCH  21  22
ATOM     22  C   UNL     1       1.951   7.741  19.582  0.00  0.00    +0.000 A 
ATOM     23  C   UNL     1       1.534   7.370  20.878  0.00  0.00    +0.000 A 
ATOM     24  C   UNL     1       0.786   8.241  21.666  0.00  0.00    +0.000 A 
ATOM     25  C   UNL     1       0.430   9.490  21.168  0.00  0.00    +0.000 A 
ATOM     26  C   UNL     1       0.814   9.862  19.879  0.00  0.00    +0.000 A 
ATOM     27  C   UNL     1       1.569   8.993  19.087  0.00  0.00    +0.000 A 
ATOM     28 CL   UNL     1       2.025   9.533  17.511  0.00  0.00    +0.000 Cl
ENDBRANCH  21  22
ENDBRANCH  19  21
ENDBRANCH   1  17
TORSDOF 6
ENDMDL
MODEL 7
REMARK VINA RESULT:      -7.8      2.861      5.943
REMARK  Name = 
REMARK  8 active torsions:
REMARK  status: ('A' for Active; 'I' for Inactive)
REMARK    1  A    between atoms: C_1  and  O_2
REMARK    2  A    between atoms: O_2  and  C_3
REMARK    3  A    between atoms: C_6  and  C_7
REMARK    4  A    between atoms: C_7  and  C_8
REMARK    5  A    between atoms: N_10  and  C_11
REMARK    6  A    between atoms: C_11  and  C_12
REMARK    7  A    between atoms: C_25  and  O_26
REMARK    8  A    between atoms: O_26  and  C_27
REMARK                            x       y       z     vdW  Elec       q    Type
REMARK                         _______ _______ _______ _____ _____    ______ ____
ROOT
ATOM      1  C   UNL     1       2.369   4.473  19.188  0.00  0.00    +0.000 C 
ATOM      2  C   UNL     1       2.198   3.870  17.769  0.00  0.00    +0.000 C 
ATOM      3  C   UNL     1       2.080   2.355  17.766  0.00  0.00    +0.000 C 
ATOM      4  O   UNL     1       0.986   1.941  18.570  0.00  0.00    +0.000 OA
ATOM      5  C   UNL     1       1.168   2.315  19.930  0.00  0.00    +0.000 C 
ATOM      6  C   UNL     1       1.240   3.832  20.065  0.00  0.00    +0.000 C 
ENDROOT
BRANCH   1  10
ATOM      7  C   UNL     1       1.719   8.844  19.118  0.00  0.00    +0.000 A 
ATOM      8  C   UNL     1       2.364   8.190  18.061  0.00  0.00    +0.000 A 
ATOM      9  C   UNL     1       2.555   6.802  18.068  0.00  0.00    +0.000 A 
ATOM     10  C   UNL     1       2.216   6.026  19.182  0.00  0.00    +0.000 A 
ATOM     11  C   UNL     1       1.724   6.737  20.292  0.00  0.00    +0.000 A 
ATOM     12  C   UNL     1       1.405   8.106  20.259  0.00  0.00    +0.000 A 
BRANCH   7  14
ATOM     13  C   UNL     1       0.116  10.558  18.756  0.00  0.00    +0.000 C 
ATOM     14  O   UNL     1       1.453  10.183  19.081  0.00  0.00    +0.000 OA
ENDBRANCH   7  14
BRANCH  12  15
ATOM     15  O   UNL     1       0.779   8.507  21.410  0.00  0.00    +0.000 OA
ATOM     16  C   UNL     1       1.505   9.259  22.369  0.00  0.00    +0.000 C 
ENDBRANCH  12  15
ENDBRANCH   1  10
BRANCH   1  17
ATOM     17  C   UNL     1       3.737   4.070  19.857  0.00  0.00    +0.000 C 
ATOM     18  O   UNL     1       3.836   3.937  21.084  0.00  0.00    +0.000 OA
ATOM     19  N   UNL     1       4.878   3.807  19.147  0.00  0.00    +0.000 N 
ATOM     20  H   UNL     1       5.653   3.609  19.773  0.00  0.00    +0.000 HD
BRANCH  19  21
ATOM     21  C   UNL     1       5.264   4.351  17.868  0.00  0.00    +0.000 C 
BRANCH  21  22
ATOM     22  C   UNL     1       6.180   5.536  17.971  0.00  0.00    +0.000 A 
ATOM     23  C   UNL     1       7.129   5.548  19.014  0.00  0.00    +0.000 A 
ATOM     24  C   UNL     1       8.089   6.554  19.096  0.00  0.00    +0.000 A 
ATOM     25  C   UNL     1       8.108   7.569  18.146  0.00  0.00    +0.000 A 
ATOM     26  C   UNL     1       7.160   7.584  17.122  0.00  0.00    +0.000 A 
ATOM     27  C   UNL     1       6.198   6.575  17.033  0.00  0.00    +0.000 A 
ATOM     28 CL   UNL     1       5.072   6.649  15.726  0.00  0.00    +0.000 Cl
ENDBRANCH  21  22
ENDBRANCH  19  21
ENDBRANCH   1  17
TORSDOF 6
ENDMDL
MODEL 8
REMARK VINA RESULT:      -7.7      1.086      1.509
REMARK  Name = 
REMARK  8 active torsions:
REMARK  status: ('A' for Active; 'I' for Inactive)
REMARK    1  A    between atoms: C_1  and  O_2
REMARK    2  A    between atoms: O_2  and  C_3
REMARK    3  A    between atoms: C_6  and  C_7
REMARK    4  A    between atoms: C_7  and  C_8
REMARK    5  A    between atoms: N_10  and  C_11
REMARK    6  A    between atoms: C_11  and  C_12
REMARK    7  A    between atoms: C_25  and  O_26
REMARK    8  A    between atoms: O_26  and  C_27
REMARK                            x       y       z     vdW  Elec       q    Type
REMARK                         _______ _______ _______ _____ _____    ______ ____
ROOT
ATOM      1  C   UNL     1       3.954   3.855  17.999  0.00  0.00    +0.000 C 
ATOM      2  C   UNL     1       4.348   4.329  19.423  0.00  0.00    +0.000 C 
ATOM      3  C   UNL     1       3.449   3.773  20.516  0.00  0.00    +0.000 C 
ATOM      4  O   UNL     1       3.459   2.354  20.492  0.00  0.00    +0.000 OA
ATOM      5  C   UNL     1       2.940   1.850  19.266  0.00  0.00    +0.000 C 
ATOM      6  C   UNL     1       3.805   2.298  18.092  0.00  0.00    +0.000 C 
ENDROOT
BRANCH   1  10
ATOM      7  C   UNL     1       6.917   5.067  14.952  0.00  0.00    +0.000 A 
ATOM      8  C   UNL     1       6.037   4.003  14.724  0.00  0.00    +0.000 A 
ATOM      9  C   UNL     1       5.081   3.626  15.678  0.00  0.00    +0.000 A 
ATOM     10  C   UNL     1       5.044   4.220  16.944  0.00  0.00    +0.000 A 
ATOM     11  C   UNL     1       6.049   5.170  17.201  0.00  0.00    +0.000 A 
ATOM     12  C   UNL     1       6.932   5.652  16.218  0.00  0.00    +0.000 A 
BRANCH   7  14
ATOM     13  C   UNL     1       7.631   4.942  12.691  0.00  0.00    +0.000 C 
ATOM     14  O   UNL     1       7.792   5.495  13.996  0.00  0.00    +0.000 OA
ENDBRANCH   7  14
BRANCH  12  15
ATOM     15  O   UNL     1       7.688   6.696  16.686  0.00  0.00    +0.000 OA
ATOM     16  C   UNL     1       7.191   7.487  17.754  0.00  0.00    +0.000 C 
ENDBRANCH  12  15
ENDBRANCH   1  10
BRANCH   1  17
ATOM     17  C   UNL     1       2.553   4.411  17.541  0.00  0.00    +0.000 C 
ATOM     18  O   UNL     1       1.827   3.765  16.774  0.00  0.00    +0.000 OA
ATOM     19  N   UNL     1       2.033   5.601  17.974  0.00  0.00    +0.000 N 
ATOM     20  H   UNL     1       1.142   5.789  17.525  0.00  0.00    +0.000 HD
BRANCH  19  21
ATOM     21  C   UNL     1       2.755   6.779  18.389  0.00  0.00    +0.000 C 
BRANCH  21  22
ATOM     22  C   UNL     1       1.986   7.654  19.335  0.00  0.00    +0.000 A 
ATOM     23  C   UNL     1       1.679   7.137  20.611  0.00  0.00    +0.000 A 
ATOM     24  C   UNL     1       1.077   7.935  21.580  0.00  0.00    +0.000 A 
ATOM     25  C   UNL     1       0.759   9.257  21.287  0.00  0.00    +0.000 A 
ATOM     26  C   UNL     1       1.035   9.776  20.021  0.00  0.00    +0.000 A 
ATOM     27  C   UNL     1       1.643   8.980  19.047  0.00  0.00    +0.000 A 
ATOM     28 CL   UNL     1       1.973   9.698  17.512  0.00  0.00    +0.000 Cl
ENDBRANCH  21  22
ENDBRANCH  19  21
ENDBRANCH   1  17
TORSDOF 6
ENDMDL
MODEL 9
REMARK VINA RESULT:      -7.6      2.732      6.216
REMARK  Name = 
REMARK  8 active torsions:
REMARK  status: ('A' for Active; 'I' for Inactive)
REMARK    1  A    between atoms: C_1  and  O_2
REMARK    2  A    between atoms: O_2  and  C_3
REMARK    3  A    between atoms: C_6  and  C_7
REMARK    4  A    between atoms: C_7  and  C_8
REMARK    5  A    between atoms: N_10  and  C_11
REMARK    6  A    between atoms: C_11  and  C_12
REMARK    7  A    between atoms: C_25  and  O_26
REMARK    8  A    between atoms: O_26  and  C_27
REMARK                            x       y       z     vdW  Elec       q    Type
REMARK                         _______ _______ _______ _____ _____    ______ ____
ROOT
ATOM      1  C   UNL     1       2.160   4.662  19.517  0.00  0.00    +0.000 C 
ATOM      2  C   UNL     1       1.045   4.151  20.468  0.00  0.00    +0.000 C 
ATOM      3  C   UNL     1       1.224   2.700  20.885  0.00  0.00    +0.000 C 
ATOM      4  O   UNL     1       2.481   2.517  21.519  0.00  0.00    +0.000 OA
ATOM      5  C   UNL     1       3.557   2.804  20.634  0.00  0.00    +0.000 C 
ATOM      6  C   UNL     1       3.516   4.264  20.193  0.00  0.00    +0.000 C 
ENDROOT
BRANCH   1  10
ATOM      7  C   UNL     1       1.759   9.029  18.968  0.00  0.00    +0.000 A 
ATOM      8  C   UNL     1       2.185   8.203  17.921  0.00  0.00    +0.000 A 
ATOM      9  C   UNL     1       2.295   6.815  18.083  0.00  0.00    +0.000 A 
ATOM     10  C   UNL     1       2.097   6.209  19.328  0.00  0.00    +0.000 A 
ATOM     11  C   UNL     1       1.834   7.086  20.397  0.00  0.00    +0.000 A 
ATOM     12  C   UNL     1       1.593   8.462  20.232  0.00  0.00    +0.000 A 
BRANCH   7  14
ATOM     13  C   UNL     1       0.233  10.793  18.522  0.00  0.00    +0.000 C 
ATOM     14  O   UNL     1       1.567  10.369  18.795  0.00  0.00    +0.000 OA
ENDBRANCH   7  14
BRANCH  12  15
ATOM     15  O   UNL     1       1.186   9.048  21.402  0.00  0.00    +0.000 OA
ATOM     16  C   UNL     1      -0.173   8.939  21.795  0.00  0.00    +0.000 C 
ENDBRANCH  12  15
ENDBRANCH   1  10
BRANCH   1  17
ATOM     17  C   UNL     1       2.133   3.946  18.113  0.00  0.00    +0.000 C 
ATOM     18  O   UNL     1       1.100   3.417  17.684  0.00  0.00    +0.000 OA
ATOM     19  N   UNL     1       3.211   3.891  17.272  0.00  0.00    +0.000 N 
ATOM     20  H   UNL     1       2.992   3.349  16.441  0.00  0.00    +0.000 HD
BRANCH  19  21
ATOM     21  C   UNL     1       4.609   3.901  17.629  0.00  0.00    +0.000 C 
BRANCH  21  22
ATOM     22  C   UNL     1       5.524   4.161  16.468  0.00  0.00    +0.000 A 
ATOM     23  C   UNL     1       5.029   3.920  15.170  0.00  0.00    +0.000 A 
ATOM     24  C   UNL     1       5.778   4.255  14.044  0.00  0.00    +0.000 A 
ATOM     25  C   UNL     1       7.038   4.823  14.198  0.00  0.00    +0.000 A 
ATOM     26  C   UNL     1       7.552   5.045  15.476  0.00  0.00    +0.000 A 
ATOM     27  C   UNL     1       6.801   4.715  16.608  0.00  0.00    +0.000 A 
ATOM     28 CL   UNL     1       7.495   5.040  18.155  0.00  0.00    +0.000 Cl
ENDBRANCH  21  22
ENDBRANCH  19  21
ENDBRANCH   1  17
TORSDOF 6
ENDMDL
