MODEL 1
REMARK VINA RESULT:      -8.2      0.000      0.000
REMARK  Name = 
REMARK  11 active torsions:
REMARK  status: ('A' for Active; 'I' for Inactive)
REMARK    1  A    between atoms: C_1  and  O_2
REMARK    2  A    between atoms: O_2  and  C_3
REMARK    3  A    between atoms: C_5  and  N_6
REMARK    4  A    between atoms: C_7  and  C_9
REMARK    5  A    between atoms: C_10  and  C_11
REMARK    6  A    between atoms: C_11  and  C_13
REMARK    7  A    between atoms: C_16  and  C_17
REMARK    8  A    between atoms: C_17  and  C_18
REMARK    9  A    between atoms: C_17  and  C_19
REMARK   10  A    between atoms: C_23  and  O_24
REMARK   11  A    between atoms: O_24  and  C_25
REMARK                            x       y       z     vdW  Elec       q    Type
REMARK                         _______ _______ _______ _____ _____    ______ ____
ROOT
ATOM      1  N   UNL     1       9.288   9.316  19.233  0.00  0.00    +0.000 N 
ATOM      2  C   UNL     1       8.317   8.910  18.338  0.00  0.00    +0.000 C 
ATOM      3  O   UNL     1       7.629   9.649  17.638  0.00  0.00    +0.000 OA
ATOM      4  H   UNL     1       9.876   8.607  19.657  0.00  0.00    +0.000 HD
ENDROOT
BRANCH   1   7
ATOM      5  C   UNL     1      10.407  12.892  19.035  0.00  0.00    +0.000 A 
ATOM      6  C   UNL     1      10.154  11.566  18.675  0.00  0.00    +0.000 A 
ATOM      7  C   UNL     1       9.578  10.663  19.572  0.00  0.00    +0.000 A 
ATOM      8  C   UNL     1       9.248  11.120  20.852  0.00  0.00    +0.000 A 
ATOM      9  C   UNL     1       9.503  12.447  21.231  0.00  0.00    +0.000 A 
ATOM     10  C   UNL     1      10.085  13.330  20.316  0.00  0.00    +0.000 A 
BRANCH   5  12
ATOM     11  C   UNL     1      11.441  12.976  16.893  0.00  0.00    +0.000 C 
ATOM     12  O   UNL     1      10.957  13.657  18.042  0.00  0.00    +0.000 OA
ENDBRANCH   5  12
BRANCH   9  13
ATOM     13  O   UNL     1       9.136  12.767  22.512  0.00  0.00    +0.000 OA
ATOM     14  C   UNL     1       7.929  13.510  22.672  0.00  0.00    +0.000 C 
ENDBRANCH   9  13
ENDBRANCH   1   7
BRANCH   2  15
ATOM     15  C   UNL     1       8.142   7.440  18.238  0.00  0.00    +0.000 C 
ATOM     16  C   UNL     1       7.174   7.007  17.413  0.00  0.00    +0.000 C 
BRANCH  16  17
ATOM     17  C   UNL     1       6.868   5.567  17.241  0.00  0.00    +0.000 C 
ATOM     18  O   UNL     1       7.670   4.799  16.724  0.00  0.00    +0.000 OA
BRANCH  17  19
ATOM     19  C   UNL     1       5.526   5.093  17.699  0.00  0.00    +0.000 A 
ATOM     20  C   UNL     1       5.163   5.300  19.033  0.00  0.00    +0.000 A 
ATOM     21  C   UNL     1       3.889   4.933  19.487  0.00  0.00    +0.000 A 
ATOM     22  C   UNL     1       2.948   4.366  18.613  0.00  0.00    +0.000 A 
ATOM     23  C   UNL     1       3.329   4.139  17.282  0.00  0.00    +0.000 A 
ATOM     24  C   UNL     1       4.604   4.502  16.826  0.00  0.00    +0.000 A 
BRANCH  22  25
ATOM     25  C   UNL     1       1.541   4.065  19.109  0.00  0.00    +0.000 C 
ATOM     26  C   UNL     1       1.167   2.595  18.884  0.00  0.00    +0.000 C 
ATOM     27  C   UNL     1       1.334   4.448  20.576  0.00  0.00    +0.000 C 
ENDBRANCH  22  25
ENDBRANCH  17  19
ENDBRANCH  16  17
ENDBRANCH   2  15
TORSDOF 7
ENDMDL
MODEL 2
REMARK VINA RESULT:      -8.2      0.429      1.034
REMARK  Name = 
REMARK  11 active torsions:
REMARK  status: ('A' for Active; 'I' for Inactive)
REMARK    1  A    between atoms: C_1  and  O_2
REMARK    2  A    between atoms: O_2  and  C_3
REMARK    3  A    between atoms: C_5  and  N_6
REMARK    4  A    between atoms: C_7  and  C_9
REMARK    5  A    between atoms: C_10  and  C_11
REMARK    6  A    between atoms: C_11  and  C_13
REMARK    7  A    between atoms: C_16  and  C_17
REMARK    8  A    between atoms: C_17  and  C_18
REMARK    9  A    between atoms: C_17  and  C_19
REMARK   10  A    between atoms: C_23  and  O_24
REMARK   11  A    between atoms: O_24  and  C_25
REMARK                            x       y       z     vdW  Elec       q    Type
REMARK                         _______ _______ _______ _____ _____    ______ ____
ROOT
ATOM      1  N   UNL     1       9.305   9.350  19.197  0.00  0.00    +0.000 N 
ATOM      2  C   UNL     1       8.350   8.877  18.318  0.00  0.00    +0.000 C 
ATOM      3  O   UNL     1       7.713   9.554  17.515  0.00  0.00    +0.000 OA
ATOM      4  H   UNL     1       9.852   8.675  19.720  0.00  0.00    +0.000 HD
ENDROOT
BRANCH   1   7
ATOM      5  C   UNL     1      10.443  12.876  18.603  0.00  0.00    +0.000 A 
ATOM      6  C   UNL     1      10.150  11.528  18.380  0.00  0.00    +0.000 A 
ATOM      7  C   UNL     1       9.633  10.716  19.394  0.00  0.00    +0.000 A 
ATOM      8  C   UNL     1       9.403  11.288  20.649  0.00  0.00    +0.000 A 
ATOM      9  C   UNL     1       9.699  12.639  20.889  0.00  0.00    +0.000 A 
ATOM     10  C   UNL     1      10.220  13.429  19.860  0.00  0.00    +0.000 A 
BRANCH   5  12
ATOM     11  C   UNL     1      12.333  13.703  17.416  0.00  0.00    +0.000 C 
ATOM     12  O   UNL     1      10.924  13.542  17.508  0.00  0.00    +0.000 OA
ENDBRANCH   5  12
BRANCH   9  13
ATOM     13  O   UNL     1       9.431  13.076  22.160  0.00  0.00    +0.000 OA
ATOM     14  C   UNL     1       8.071  13.030  22.587  0.00  0.00    +0.000 C 
ENDBRANCH   9  13
ENDBRANCH   1   7
BRANCH   2  15
ATOM     15  C   UNL     1       8.125   7.411  18.377  0.00  0.00    +0.000 C 
ATOM     16  C   UNL     1       7.185   6.917  17.555  0.00  0.00    +0.000 C 
BRANCH  16  17
ATOM     17  C   UNL     1       6.833   5.476  17.531  0.00  0.00    +0.000 C 
ATOM     18  O   UNL     1       7.643   4.625  17.186  0.00  0.00    +0.000 OA
BRANCH  17  19
ATOM     19  C   UNL     1       5.438   5.106  17.920  0.00  0.00    +0.000 A 
ATOM     20  C   UNL     1       4.564   4.655  16.927  0.00  0.00    +0.000 A 
ATOM     21  C   UNL     1       3.270   4.233  17.260  0.00  0.00    +0.000 A 
ATOM     22  C   UNL     1       2.829   4.240  18.593  0.00  0.00    +0.000 A 
ATOM     23  C   UNL     1       3.704   4.716  19.580  0.00  0.00    +0.000 A 
ATOM     24  C   UNL     1       4.999   5.142  19.250  0.00  0.00    +0.000 A 
BRANCH  22  25
ATOM     25  C   UNL     1       1.453   3.687  18.938  0.00  0.00    +0.000 C 
ATOM     26  C   UNL     1       1.412   2.160  18.812  0.00  0.00    +0.000 C 
ATOM     27  C   UNL     1       0.971   4.120  20.324  0.00  0.00    +0.000 C 
ENDBRANCH  22  25
ENDBRANCH  17  19
ENDBRANCH  16  17
ENDBRANCH   2  15
TORSDOF 7
ENDMDL
MODEL 3
REMARK VINA RESULT:      -8.0      0.699      2.427
REMARK  Name = 
REMARK  11 active torsions:
REMARK  status: ('A' for Active; 'I' for Inactive)
REMARK    1  A    between atoms: C_1  and  O_2
REMARK    2  A    between atoms: O_2  and  C_3
REMARK    3  A    between atoms: C_5  and  N_6
REMARK    4  A    between atoms: C_7  and  C_9
REMARK    5  A    between atoms: C_10  and  C_11
REMARK    6  A    between atoms: C_11  and  C_13
REMARK    7  A    between atoms: C_16  and  C_17
REMARK    8  A    between atoms: C_17  and  C_18
REMARK    9  A    between atoms: C_17  and  C_19
REMARK   10  A    between atoms: C_23  and  O_24
REMARK   11  A    between atoms: O_24  and  C_25
REMARK                            x       y       z     vdW  Elec       q    Type
REMARK                         _______ _______ _______ _____ _____    ______ ____
ROOT
ATOM      1  N   UNL     1       9.193   9.185  19.085  0.00  0.00    +0.000 N 
ATOM      2  C   UNL     1       8.200   8.747  18.231  0.00  0.00    +0.000 C 
ATOM      3  O   UNL     1       7.507   9.458  17.507  0.00  0.00    +0.000 OA
ATOM      4  H   UNL     1       9.779   8.490  19.534  0.00  0.00    +0.000 HD
ENDROOT
BRANCH   1   7
ATOM      5  C   UNL     1       9.666  12.471  20.832  0.00  0.00    +0.000 A 
ATOM      6  C   UNL     1       9.326  11.136  20.601  0.00  0.00    +0.000 A 
ATOM      7  C   UNL     1       9.507  10.543  19.348  0.00  0.00    +0.000 A 
ATOM      8  C   UNL     1      10.049  11.319  18.319  0.00  0.00    +0.000 A 
ATOM      9  C   UNL     1      10.389  12.664  18.535  0.00  0.00    +0.000 A 
ATOM     10  C   UNL     1      10.194  13.236  19.796  0.00  0.00    +0.000 A 
BRANCH   5  12
ATOM     11  C   UNL     1       9.402  14.305  22.327  0.00  0.00    +0.000 C 
ATOM     12  O   UNL     1       9.448  12.901  22.113  0.00  0.00    +0.000 OA
ENDBRANCH   5  12
BRANCH   9  13
ATOM     13  O   UNL     1      10.908  13.315  17.446  0.00  0.00    +0.000 OA
ATOM     14  C   UNL     1      11.731  14.451  17.704  0.00  0.00    +0.000 C 
ENDBRANCH   9  13
ENDBRANCH   1   7
BRANCH   2  15
ATOM     15  C   UNL     1       8.004   7.276  18.210  0.00  0.00    +0.000 C 
ATOM     16  C   UNL     1       7.093   6.805  17.342  0.00  0.00    +0.000 C 
BRANCH  16  17
ATOM     17  C   UNL     1       6.772   5.361  17.238  0.00  0.00    +0.000 C 
ATOM     18  O   UNL     1       7.563   4.564  16.751  0.00  0.00    +0.000 OA
BRANCH  17  19
ATOM     19  C   UNL     1       5.430   4.921  17.727  0.00  0.00    +0.000 A 
ATOM     20  C   UNL     1       4.647   5.832  18.442  0.00  0.00    +0.000 A 
ATOM     21  C   UNL     1       3.355   5.483  18.859  0.00  0.00    +0.000 A 
ATOM     22  C   UNL     1       2.816   4.222  18.557  0.00  0.00    +0.000 A 
ATOM     23  C   UNL     1       3.617   3.306  17.859  0.00  0.00    +0.000 A 
ATOM     24  C   UNL     1       4.911   3.652  17.443  0.00  0.00    +0.000 A 
BRANCH  22  25
ATOM     25  C   UNL     1       1.377   3.904  18.938  0.00  0.00    +0.000 C 
ATOM     26  C   UNL     1       1.024   2.443  18.637  0.00  0.00    +0.000 C 
ATOM     27  C   UNL     1       1.064   4.236  20.399  0.00  0.00    +0.000 C 
ENDBRANCH  22  25
ENDBRANCH  17  19
ENDBRANCH  16  17
ENDBRANCH   2  15
TORSDOF 7
ENDMDL
MODEL 4
REMARK VINA RESULT:      -7.8      1.144      1.369
REMARK  Name = 
REMARK  11 active torsions:
REMARK  status: ('A' for Active; 'I' for Inactive)
REMARK    1  A    between atoms: C_1  and  O_2
REMARK    2  A    between atoms: O_2  and  C_3
REMARK    3  A    between atoms: C_5  and  N_6
REMARK    4  A    between atoms: C_7  and  C_9
REMARK    5  A    between atoms: C_10  and  C_11
REMARK    6  A    between atoms: C_11  and  C_13
REMARK    7  A    between atoms: C_16  and  C_17
REMARK    8  A    between atoms: C_17  and  C_18
REMARK    9  A    between atoms: C_17  and  C_19
REMARK   10  A    between atoms: C_23  and  O_24
REMARK   11  A    between atoms: O_24  and  C_25
REMARK                            x       y       z     vdW  Elec       q    Type
REMARK                         _______ _______ _______ _____ _____    ______ ____
ROOT
ATOM      1  N   UNL     1       8.351   9.910  17.860  0.00  0.00    +0.000 N 
ATOM      2  C   UNL     1       8.238   8.570  18.173  0.00  0.00    +0.000 C 
ATOM      3  O   UNL     1       8.847   7.984  19.065  0.00  0.00    +0.000 OA
ATOM      4  H   UNL     1       7.701  10.303  17.188  0.00  0.00    +0.000 HD
ENDROOT
BRANCH   1   7
ATOM      5  C   UNL     1      11.224  12.274  18.350  0.00  0.00    +0.000 A 
ATOM      6  C   UNL     1      10.346  11.370  17.746  0.00  0.00    +0.000 A 
ATOM      7  C   UNL     1       9.273  10.814  18.449  0.00  0.00    +0.000 A 
ATOM      8  C   UNL     1       9.087  11.191  19.783  0.00  0.00    +0.000 A 
ATOM      9  C   UNL     1       9.964  12.093  20.405  0.00  0.00    +0.000 A 
ATOM     10  C   UNL     1      11.034  12.631  19.682  0.00  0.00    +0.000 A 
BRANCH   5  12
ATOM     11  C   UNL     1      12.332  14.155  17.402  0.00  0.00    +0.000 C 
ATOM     12  O   UNL     1      12.211  12.745  17.528  0.00  0.00    +0.000 OA
ENDBRANCH   5  12
BRANCH   9  13
ATOM     13  O   UNL     1       9.675  12.377  21.713  0.00  0.00    +0.000 OA
ATOM     14  C   UNL     1       9.515  13.752  22.056  0.00  0.00    +0.000 C 
ENDBRANCH   9  13
ENDBRANCH   1   7
BRANCH   2  15
ATOM     15  C   UNL     1       7.266   7.819  17.340  0.00  0.00    +0.000 C 
ATOM     16  C   UNL     1       7.302   6.480  17.438  0.00  0.00    +0.000 C 
BRANCH  16  17
ATOM     17  C   UNL     1       6.411   5.604  16.640  0.00  0.00    +0.000 C 
ATOM     18  O   UNL     1       6.542   5.492  15.428  0.00  0.00    +0.000 OA
BRANCH  17  19
ATOM     19  C   UNL     1       5.326   4.882  17.373  0.00  0.00    +0.000 A 
ATOM     20  C   UNL     1       5.193   5.092  18.748  0.00  0.00    +0.000 A 
ATOM     21  C   UNL     1       4.147   4.489  19.460  0.00  0.00    +0.000 A 
ATOM     22  C   UNL     1       3.207   3.675  18.809  0.00  0.00    +0.000 A 
ATOM     23  C   UNL     1       3.362   3.450  17.433  0.00  0.00    +0.000 A 
ATOM     24  C   UNL     1       4.409   4.050  16.719  0.00  0.00    +0.000 A 
BRANCH  22  25
ATOM     25  C   UNL     1       2.028   3.110  19.588  0.00  0.00    +0.000 C 
ATOM     26  C   UNL     1       1.226   4.219  20.280  0.00  0.00    +0.000 C 
ATOM     27  C   UNL     1       1.105   2.247  18.724  0.00  0.00    +0.000 C 
ENDBRANCH  22  25
ENDBRANCH  17  19
ENDBRANCH  16  17
ENDBRANCH   2  15
TORSDOF 7
ENDMDL
MODEL 5
REMARK VINA RESULT:      -7.7      0.809      2.667
REMARK  Name = 
REMARK  11 active torsions:
REMARK  status: ('A' for Active; 'I' for Inactive)
REMARK    1  A    between atoms: C_1  and  O_2
REMARK    2  A    between atoms: O_2  and  C_3
REMARK    3  A    between atoms: C_5  and  N_6
REMARK    4  A    between atoms: C_7  and  C_9
REMARK    5  A    between atoms: C_10  and  C_11
REMARK    6  A    between atoms: C_11  and  C_13
REMARK    7  A    between atoms: C_16  and  C_17
REMARK    8  A    between atoms: C_17  and  C_18
REMARK    9  A    between atoms: C_17  and  C_19
REMARK   10  A    between atoms: C_23  and  O_24
REMARK   11  A    between atoms: O_24  and  C_25
REMARK                            x       y       z     vdW  Elec       q    Type
REMARK                         _______ _______ _______ _____ _____    ______ ____
ROOT
ATOM      1  N   UNL     1       9.282   9.251  19.140  0.00  0.00    +0.000 N 
ATOM      2  C   UNL     1       8.285   8.842  18.276  0.00  0.00    +0.000 C 
ATOM      3  O   UNL     1       7.545   9.579  17.628  0.00  0.00    +0.000 OA
ATOM      4  H   UNL     1       9.907   8.548  19.518  0.00  0.00    +0.000 HD
ENDROOT
BRANCH   1   7
ATOM      5  C   UNL     1       9.591  12.424  21.119  0.00  0.00    +0.000 A 
ATOM      6  C   UNL     1       9.297  11.099  20.785  0.00  0.00    +0.000 A 
ATOM      7  C   UNL     1       9.548  10.595  19.506  0.00  0.00    +0.000 A 
ATOM      8  C   UNL     1      10.114  11.451  18.556  0.00  0.00    +0.000 A 
ATOM      9  C   UNL     1      10.409  12.786  18.874  0.00  0.00    +0.000 A 
ATOM     10  C   UNL     1      10.143  13.267  20.160  0.00  0.00    +0.000 A 
BRANCH   5  12
ATOM     11  C   UNL     1       8.739  14.044  22.639  0.00  0.00    +0.000 C 
ATOM     12  O   UNL     1       9.306  12.761  22.414  0.00  0.00    +0.000 OA
ENDBRANCH   5  12
BRANCH   9  13
ATOM     13  O   UNL     1      10.956  13.520  17.855  0.00  0.00    +0.000 OA
ATOM     14  C   UNL     1      11.300  14.874  18.146  0.00  0.00    +0.000 C 
ENDBRANCH   9  13
ENDBRANCH   1   7
BRANCH   2  15
ATOM     15  C   UNL     1       8.147   7.370  18.140  0.00  0.00    +0.000 C 
ATOM     16  C   UNL     1       7.105   6.930  17.416  0.00  0.00    +0.000 C 
BRANCH  16  17
ATOM     17  C   UNL     1       6.828   5.487  17.224  0.00  0.00    +0.000 C 
ATOM     18  O   UNL     1       7.545   4.785  16.523  0.00  0.00    +0.000 OA
BRANCH  17  19
ATOM     19  C   UNL     1       5.619   4.926  17.902  0.00  0.00    +0.000 A 
ATOM     20  C   UNL     1       4.942   3.866  17.293  0.00  0.00    +0.000 A 
ATOM     21  C   UNL     1       3.845   3.266  17.927  0.00  0.00    +0.000 A 
ATOM     22  C   UNL     1       3.413   3.705  19.189  0.00  0.00    +0.000 A 
ATOM     23  C   UNL     1       4.084   4.785  19.782  0.00  0.00    +0.000 A 
ATOM     24  C   UNL     1       5.179   5.389  19.148  0.00  0.00    +0.000 A 
BRANCH  22  25
ATOM     25  C   UNL     1       2.281   2.975  19.897  0.00  0.00    +0.000 C 
ATOM     26  C   UNL     1       2.430   3.048  21.421  0.00  0.00    +0.000 C 
ATOM     27  C   UNL     1       0.898   3.473  19.473  0.00  0.00    +0.000 C 
ENDBRANCH  22  25
ENDBRANCH  17  19
ENDBRANCH  16  17
ENDBRANCH   2  15
TORSDOF 7
ENDMDL
MODEL 6
REMARK VINA RESULT:      -7.7      1.232      2.833
REMARK  Name = 
REMARK  11 active torsions:
REMARK  status: ('A' for Active; 'I' for Inactive)
REMARK    1  A    between atoms: C_1  and  O_2
REMARK    2  A    between atoms: O_2  and  C_3
REMARK    3  A    between atoms: C_5  and  N_6
REMARK    4  A    between atoms: C_7  and  C_9
REMARK    5  A    between atoms: C_10  and  C_11
REMARK    6  A    between atoms: C_11  and  C_13
REMARK    7  A    between atoms: C_16  and  C_17
REMARK    8  A    between atoms: C_17  and  C_18
REMARK    9  A    between atoms: C_17  and  C_19
REMARK   10  A    between atoms: C_23  and  O_24
REMARK   11  A    between atoms: O_24  and  C_25
REMARK                            x       y       z     vdW  Elec       q    Type
REMARK                         _______ _______ _______ _____ _____    ______ ____
ROOT
ATOM      1  N   UNL     1       9.295  10.067  19.888  0.00  0.00    +0.000 N 
ATOM      2  C   UNL     1       8.791   9.799  18.631  0.00  0.00    +0.000 C 
ATOM      3  O   UNL     1       8.624  10.620  17.731  0.00  0.00    +0.000 OA
ATOM      4  H   UNL     1       9.504   9.285  20.498  0.00  0.00    +0.000 HD
ENDROOT
BRANCH   1   7
ATOM      5  C   UNL     1       9.282  13.199  21.956  0.00  0.00    +0.000 A 
ATOM      6  C   UNL     1       8.938  11.933  21.474  0.00  0.00    +0.000 A 
ATOM      7  C   UNL     1       9.605  11.358  20.389  0.00  0.00    +0.000 A 
ATOM      8  C   UNL     1      10.643  12.080  19.791  0.00  0.00    +0.000 A 
ATOM      9  C   UNL     1      10.996  13.355  20.260  0.00  0.00    +0.000 A 
ATOM     10  C   UNL     1      10.310  13.911  21.344  0.00  0.00    +0.000 A 
BRANCH   5  12
ATOM     11  C   UNL     1       8.947  14.832  23.654  0.00  0.00    +0.000 C 
ATOM     12  O   UNL     1       8.551  13.616  23.035  0.00  0.00    +0.000 OA
ENDBRANCH   5  12
BRANCH   9  13
ATOM     13  O   UNL     1      12.026  13.958  19.586  0.00  0.00    +0.000 OA
ATOM     14  C   UNL     1      11.957  13.954  18.161  0.00  0.00    +0.000 C 
ENDBRANCH   9  13
ENDBRANCH   1   7
BRANCH   2  15
ATOM     15  C   UNL     1       8.453   8.374  18.389  0.00  0.00    +0.000 C 
ATOM     16  C   UNL     1       7.492   8.133  17.482  0.00  0.00    +0.000 C 
BRANCH  16  17
ATOM     17  C   UNL     1       7.032   6.759  17.165  0.00  0.00    +0.000 C 
ATOM     18  O   UNL     1       7.651   6.040  16.390  0.00  0.00    +0.000 OA
BRANCH  17  19
ATOM     19  C   UNL     1       5.765   6.296  17.808  0.00  0.00    +0.000 A 
ATOM     20  C   UNL     1       4.554   6.841  17.371  0.00  0.00    +0.000 A 
ATOM     21  C   UNL     1       3.339   6.385  17.899  0.00  0.00    +0.000 A 
ATOM     22  C   UNL     1       3.309   5.366  18.864  0.00  0.00    +0.000 A 
ATOM     23  C   UNL     1       4.530   4.842  19.315  0.00  0.00    +0.000 A 
ATOM     24  C   UNL     1       5.747   5.298  18.790  0.00  0.00    +0.000 A 
BRANCH  22  25
ATOM     25  C   UNL     1       1.973   4.824  19.351  0.00  0.00    +0.000 C 
ATOM     26  C   UNL     1       1.424   3.748  18.407  0.00  0.00    +0.000 C 
ATOM     27  C   UNL     1       2.035   4.293  20.785  0.00  0.00    +0.000 C 
ENDBRANCH  22  25
ENDBRANCH  17  19
ENDBRANCH  16  17
ENDBRANCH   2  15
TORSDOF 7
ENDMDL
MODEL 7
REMARK VINA RESULT:      -7.7      1.460      2.805
REMARK  Name = 
REMARK  11 active torsions:
REMARK  status: ('A' for Active; 'I' for Inactive)
REMARK    1  A    between atoms: C_1  and  O_2
REMARK    2  A    between atoms: O_2  and  C_3
REMARK    3  A    between atoms: C_5  and  N_6
REMARK    4  A    between atoms: C_7  and  C_9
REMARK    5  A    between atoms: C_10  and  C_11
REMARK    6  A    between atoms: C_11  and  C_13
REMARK    7  A    between atoms: C_16  and  C_17
REMARK    8  A    between atoms: C_17  and  C_18
REMARK    9  A    between atoms: C_17  and  C_19
REMARK   10  A    between atoms: C_23  and  O_24
REMARK   11  A    between atoms: O_24  and  C_25
REMARK                            x       y       z     vdW  Elec       q    Type
REMARK                         _______ _______ _______ _____ _____    ______ ____
ROOT
ATOM      1  N   UNL     1       8.372   9.575  17.768  0.00  0.00    +0.000 N 
ATOM      2  C   UNL     1       8.213   8.242  18.091  0.00  0.00    +0.000 C 
ATOM      3  O   UNL     1       8.659   7.685  19.091  0.00  0.00    +0.000 OA
ATOM      4  H   UNL     1       7.849   9.943  16.981  0.00  0.00    +0.000 HD
ENDROOT
BRANCH   1   7
ATOM      5  C   UNL     1       9.779  11.707  20.516  0.00  0.00    +0.000 A 
ATOM      6  C   UNL     1       8.960  10.804  19.834  0.00  0.00    +0.000 A 
ATOM      7  C   UNL     1       9.170  10.503  18.485  0.00  0.00    +0.000 A 
ATOM      8  C   UNL     1      10.235  11.125  17.825  0.00  0.00    +0.000 A 
ATOM      9  C   UNL     1      11.062  12.040  18.495  0.00  0.00    +0.000 A 
ATOM     10  C   UNL     1      10.827  12.328  19.843  0.00  0.00    +0.000 A 
BRANCH   5  12
ATOM     11  C   UNL     1       9.117  13.198  22.249  0.00  0.00    +0.000 C 
ATOM     12  O   UNL     1       9.458  11.883  21.835  0.00  0.00    +0.000 OA
ENDBRANCH   5  12
BRANCH   9  13
ATOM     13  O   UNL     1      12.065  12.581  17.736  0.00  0.00    +0.000 OA
ATOM     14  C   UNL     1      12.158  14.005  17.708  0.00  0.00    +0.000 C 
ENDBRANCH   9  13
ENDBRANCH   1   7
BRANCH   2  15
ATOM     15  C   UNL     1       7.408   7.460  17.120  0.00  0.00    +0.000 C 
ATOM     16  C   UNL     1       6.097   7.337  17.390  0.00  0.00    +0.000 C 
BRANCH  16  17
ATOM     17  C   UNL     1       5.181   6.557  16.524  0.00  0.00    +0.000 C 
ATOM     18  O   UNL     1       5.218   6.652  15.304  0.00  0.00    +0.000 OA
BRANCH  17  19
ATOM     19  C   UNL     1       4.189   5.668  17.202  0.00  0.00    +0.000 A 
ATOM     20  C   UNL     1       3.204   6.253  18.004  0.00  0.00    +0.000 A 
ATOM     21  C   UNL     1       2.214   5.462  18.602  0.00  0.00    +0.000 A 
ATOM     22  C   UNL     1       2.181   4.073  18.400  0.00  0.00    +0.000 A 
ATOM     23  C   UNL     1       3.187   3.491  17.614  0.00  0.00    +0.000 A 
ATOM     24  C   UNL     1       4.180   4.280  17.016  0.00  0.00    +0.000 A 
BRANCH  22  25
ATOM     25  C   UNL     1       1.040   3.251  18.983  0.00  0.00    +0.000 C 
ATOM     26  C   UNL     1       1.292   1.747  18.824  0.00  0.00    +0.000 C 
ATOM     27  C   UNL     1       0.754   3.591  20.448  0.00  0.00    +0.000 C 
ENDBRANCH  22  25
ENDBRANCH  17  19
ENDBRANCH  16  17
ENDBRANCH   2  15
TORSDOF 7
ENDMDL
MODEL 8
REMARK VINA RESULT:      -7.6      1.354      2.972
REMARK  Name = 
REMARK  11 active torsions:
REMARK  status: ('A' for Active; 'I' for Inactive)
REMARK    1  A    between atoms: C_1  and  O_2
REMARK    2  A    between atoms: O_2  and  C_3
REMARK    3  A    between atoms: C_5  and  N_6
REMARK    4  A    between atoms: C_7  and  C_9
REMARK    5  A    between atoms: C_10  and  C_11
REMARK    6  A    between atoms: C_11  and  C_13
REMARK    7  A    between atoms: C_16  and  C_17
REMARK    8  A    between atoms: C_17  and  C_18
REMARK    9  A    between atoms: C_17  and  C_19
REMARK   10  A    between atoms: C_23  and  O_24
REMARK   11  A    between atoms: O_24  and  C_25
REMARK                            x       y       z     vdW  Elec       q    Type
REMARK                         _______ _______ _______ _____ _____    ______ ____
ROOT
ATOM      1  N   UNL     1       8.700  11.009  17.965  0.00  0.00    +0.000 N 
ATOM      2  C   UNL     1       8.649   9.709  18.428  0.00  0.00    +0.000 C 
ATOM      3  O   UNL     1       9.182   9.288  19.452  0.00  0.00    +0.000 OA
ATOM      4  H   UNL     1       8.114  11.260  17.176  0.00  0.00    +0.000 HD
ENDROOT
BRANCH   1   7
ATOM      5  C   UNL     1      10.086  13.507  20.398  0.00  0.00    +0.000 A 
ATOM      6  C   UNL     1       9.297  12.488  19.857  0.00  0.00    +0.000 A 
ATOM      7  C   UNL     1       9.468  12.054  18.539  0.00  0.00    +0.000 A 
ATOM      8  C   UNL     1      10.462  12.662  17.765  0.00  0.00    +0.000 A 
ATOM      9  C   UNL     1      11.257  13.691  18.293  0.00  0.00    +0.000 A 
ATOM     10  C   UNL     1      11.063  14.111  19.613  0.00  0.00    +0.000 A 
BRANCH   5  12
ATOM     11  C   UNL     1       8.980  12.898  22.416  0.00  0.00    +0.000 C 
ATOM     12  O   UNL     1       9.811  13.805  21.705  0.00  0.00    +0.000 OA
ENDBRANCH   5  12
BRANCH   9  13
ATOM     13  O   UNL     1      12.191  14.205  17.432  0.00  0.00    +0.000 OA
ATOM     14  C   UNL     1      12.333  15.625  17.405  0.00  0.00    +0.000 C 
ENDBRANCH   9  13
ENDBRANCH   1   7
BRANCH   2  15
ATOM     15  C   UNL     1       7.852   8.782  17.587  0.00  0.00    +0.000 C 
ATOM     16  C   UNL     1       7.972   7.472  17.861  0.00  0.00    +0.000 C 
BRANCH  16  17
ATOM     17  C   UNL     1       7.259   6.432  17.080  0.00  0.00    +0.000 C 
ATOM     18  O   UNL     1       7.657   6.073  15.979  0.00  0.00    +0.000 OA
BRANCH  17  19
ATOM     19  C   UNL     1       6.016   5.859  17.680  0.00  0.00    +0.000 A 
ATOM     20  C   UNL     1       4.832   5.904  16.939  0.00  0.00    +0.000 A 
ATOM     21  C   UNL     1       3.661   5.317  17.436  0.00  0.00    +0.000 A 
ATOM     22  C   UNL     1       3.654   4.659  18.676  0.00  0.00    +0.000 A 
ATOM     23  C   UNL     1       4.840   4.639  19.424  0.00  0.00    +0.000 A 
ATOM     24  C   UNL     1       6.013   5.228  18.931  0.00  0.00    +0.000 A 
BRANCH  22  25
ATOM     25  C   UNL     1       2.393   3.948  19.148  0.00  0.00    +0.000 C 
ATOM     26  C   UNL     1       1.296   3.979  18.078  0.00  0.00    +0.000 C 
ATOM     27  C   UNL     1       2.658   2.509  19.598  0.00  0.00    +0.000 C 
ENDBRANCH  22  25
ENDBRANCH  17  19
ENDBRANCH  16  17
ENDBRANCH   2  15
TORSDOF 7
ENDMDL
MODEL 9
REMARK VINA RESULT:      -7.5      1.139      1.577
REMARK  Name = 
REMARK  11 active torsions:
REMARK  status: ('A' for Active; 'I' for Inactive)
REMARK    1  A    between atoms: C_1  and  O_2
REMARK    2  A    between atoms: O_2  and  C_3
REMARK    3  A    between atoms: C_5  and  N_6
REMARK    4  A    between atoms: C_7  and  C_9
REMARK    5  A    between atoms: C_10  and  C_11
REMARK    6  A    between atoms: C_11  and  C_13
REMARK    7  A    between atoms: C_16  and  C_17
REMARK    8  A    between atoms: C_17  and  C_18
REMARK    9  A    between atoms: C_17  and  C_19
REMARK   10  A    between atoms: C_23  and  O_24
REMARK   11  A    between atoms: O_24  and  C_25
REMARK                            x       y       z     vdW  Elec       q    Type
REMARK                         _______ _______ _______ _____ _____    ______ ____
ROOT
ATOM      1  N   UNL     1       8.694  10.260  17.921  0.00  0.00    +0.000 N 
ATOM      2  C   UNL     1       8.498   8.947  18.302  0.00  0.00    +0.000 C 
ATOM      3  O   UNL     1       8.941   8.418  19.319  0.00  0.00    +0.000 OA
ATOM      4  H   UNL     1       8.172  10.611  17.126  0.00  0.00    +0.000 HD
ENDROOT
BRANCH   1   7
ATOM      5  C   UNL     1      11.365  12.797  18.632  0.00  0.00    +0.000 A 
ATOM      6  C   UNL     1      10.573  11.871  17.950  0.00  0.00    +0.000 A 
ATOM      7  C   UNL     1       9.532  11.191  18.588  0.00  0.00    +0.000 A 
ATOM      8  C   UNL     1       9.290  11.465  19.938  0.00  0.00    +0.000 A 
ATOM      9  C   UNL     1      10.082  12.389  20.638  0.00  0.00    +0.000 A 
ATOM     10  C   UNL     1      11.121  13.052  19.978  0.00  0.00    +0.000 A 
BRANCH   5  12
ATOM     11  C   UNL     1      11.913  14.429  16.988  0.00  0.00    +0.000 C 
ATOM     12  O   UNL     1      12.331  13.393  17.866  0.00  0.00    +0.000 OA
ENDBRANCH   5  12
BRANCH   9  13
ATOM     13  O   UNL     1       9.745  12.565  21.954  0.00  0.00    +0.000 OA
ATOM     14  C   UNL     1       8.460  13.125  22.223  0.00  0.00    +0.000 C 
ENDBRANCH   9  13
ENDBRANCH   1   7
BRANCH   2  15
ATOM     15  C   UNL     1       7.655   8.151  17.375  0.00  0.00    +0.000 C 
ATOM     16  C   UNL     1       7.598   6.829  17.604  0.00  0.00    +0.000 C 
BRANCH  16  17
ATOM     17  C   UNL     1       6.821   5.909  16.738  0.00  0.00    +0.000 C 
ATOM     18  O   UNL     1       7.090   5.766  15.552  0.00  0.00    +0.000 OA
BRANCH  17  19
ATOM     19  C   UNL     1       5.675   5.183  17.366  0.00  0.00    +0.000 A 
ATOM     20  C   UNL     1       4.913   4.321  16.573  0.00  0.00    +0.000 A 
ATOM     21  C   UNL     1       3.875   3.569  17.137  0.00  0.00    +0.000 A 
ATOM     22  C   UNL     1       3.586   3.652  18.509  0.00  0.00    +0.000 A 
ATOM     23  C   UNL     1       4.340   4.537  19.294  0.00  0.00    +0.000 A 
ATOM     24  C   UNL     1       5.378   5.293  18.731  0.00  0.00    +0.000 A 
BRANCH  22  25
ATOM     25  C   UNL     1       2.516   2.754  19.113  0.00  0.00    +0.000 C 
ATOM     26  C   UNL     1       2.562   2.776  20.645  0.00  0.00    +0.000 C 
ATOM     27  C   UNL     1       1.108   3.094  18.618  0.00  0.00    +0.000 C 
ENDBRANCH  22  25
ENDBRANCH  17  19
ENDBRANCH  16  17
ENDBRANCH   2  15
TORSDOF 7
ENDMDL
