MODEL 1
REMARK VINA RESULT:      -6.9      0.000      0.000
REMARK  Name = 
REMARK  11 active torsions:
REMARK  status: ('A' for Active; 'I' for Inactive)
REMARK    1  A    between atoms: C_1  and  C_2
REMARK    2  A    between atoms: C_2  and  C_3
REMARK    3  A    between atoms: C_3  and  N_4
REMARK    4  A    between atoms: N_4  and  C_5
REMARK    5  A    between atoms: C_5  and  C_6
REMARK    6  A    between atoms: C_6  and  C_7
REMARK    7  A    between atoms: C_8  and  C_10
REMARK    8  A    between atoms: C_10  and  N_11
REMARK    9  A    between atoms: N_14  and  C_15
REMARK   10  A    between atoms: C_19  and  O_20
REMARK   11  A    between atoms: O_20  and  C_21
REMARK                            x       y       z     vdW  Elec       q    Type
REMARK                         _______ _______ _______ _____ _____    ______ ____
ROOT
ATOM      1  N   UNL     1       3.296   7.208  17.646  0.00  0.00    +0.000 N 
ATOM      2  C   UNL     1       2.615   8.387  17.980  0.00  0.00    +0.000 A 
ATOM      3  O   UNL     1       2.773   9.408  17.297  0.00  0.00    +0.000 OA
ATOM      4  N   UNL     1       1.717   8.331  19.065  0.00  0.00    +0.000 N 
ATOM      5  C   UNL     1       1.529   7.229  19.926  0.00  0.00    +0.000 A 
ATOM      6  O   UNL     1       0.800   7.215  20.892  0.00  0.00    +0.000 OA
ATOM      7  C   UNL     1       2.328   6.073  19.571  0.00  0.00    +0.000 A 
ATOM      8  C   UNL     1       2.366   4.792  20.215  0.00  0.00    +0.000 A 
ATOM      9  C   UNL     1       3.301   3.967  19.618  0.00  0.00    +0.000 A 
ATOM     10  S   UNL     1       4.038   4.688  18.263  0.00  0.00    +0.000 S 
ATOM     11  C   UNL     1       3.159   6.121  18.490  0.00  0.00    +0.000 A 
ATOM     12  C   UNL     1       3.620   2.569  20.053  0.00  0.00    +0.000 C 
ATOM     13  C   UNL     1       3.047   2.310  21.456  0.00  0.00    +0.000 C 
ATOM     14  C   UNL     1       1.605   2.823  21.569  0.00  0.00    +0.000 C 
ATOM     15  C   UNL     1       1.557   4.350  21.401  0.00  0.00    +0.000 C 
ENDROOT
BRANCH   4  16
ATOM     16  C   UNL     1       0.967   9.507  19.369  0.00  0.00    +0.000 A 
ATOM     17  C   UNL     1      -0.146   9.845  18.588  0.00  0.00    +0.000 A 
ATOM     18  C   UNL     1      -0.883  10.989  18.884  0.00  0.00    +0.000 A 
ATOM     19  C   UNL     1      -0.503  11.801  19.951  0.00  0.00    +0.000 A 
ATOM     20  C   UNL     1       0.617  11.487  20.727  0.00  0.00    +0.000 A 
ATOM     21  C   UNL     1       1.349  10.334  20.435  0.00  0.00    +0.000 A 
BRANCH  20  22
ATOM     22  O   UNL     1       0.893  12.386  21.720  0.00  0.00    +0.000 OA
ATOM     23  C   UNL     1       0.296  13.671  21.602  0.00  0.00    +0.000 C 
ENDBRANCH  20  22
ENDBRANCH   4  16
BRANCH   1  24
ATOM     24  C   UNL     1       4.132   7.250  16.445  0.00  0.00    +0.000 C 
BRANCH  24  26
ATOM     25  N   UNL     1       6.153   5.798  16.074  0.00  0.00    +0.000 N 
ATOM     26  C   UNL     1       5.587   6.883  16.759  0.00  0.00    +0.000 C 
ATOM     27  O   UNL     1       6.222   7.521  17.602  0.00  0.00    +0.000 OA
BRANCH  25  28
ATOM     28  C   UNL     1       7.557   5.502  16.452  0.00  0.00    +0.000 C 
BRANCH  28  30
ATOM     29  C   UNL     1       8.016   5.247  19.024  0.00  0.00    +0.000 C 
ATOM     30  C   UNL     1       7.857   4.608  17.659  0.00  0.00    +0.000 C 
ENDBRANCH  28  30
ENDBRANCH  25  28
BRANCH  25  31
ATOM     31  C   UNL     1       5.372   5.027  15.078  0.00  0.00    +0.000 C 
BRANCH  31  32
ATOM     32  C   UNL     1       5.988   3.784  14.426  0.00  0.00    +0.000 C 
ATOM     33  C   UNL     1       6.027   3.691  12.912  0.00  0.00    +0.000 C 
ENDBRANCH  31  32
ENDBRANCH  25  31
ENDBRANCH  24  26
ENDBRANCH   1  24
TORSDOF 8
ENDMDL
MODEL 2
REMARK VINA RESULT:      -6.8      0.886      1.527
REMARK  Name = 
REMARK  11 active torsions:
REMARK  status: ('A' for Active; 'I' for Inactive)
REMARK    1  A    between atoms: C_1  and  C_2
REMARK    2  A    between atoms: C_2  and  C_3
REMARK    3  A    between atoms: C_3  and  N_4
REMARK    4  A    between atoms: N_4  and  C_5
REMARK    5  A    between atoms: C_5  and  C_6
REMARK    6  A    between atoms: C_6  and  C_7
REMARK    7  A    between atoms: C_8  and  C_10
REMARK    8  A    between atoms: C_10  and  N_11
REMARK    9  A    between atoms: N_14  and  C_15
REMARK   10  A    between atoms: C_19  and  O_20
REMARK   11  A    between atoms: O_20  and  C_21
REMARK                            x       y       z     vdW  Elec       q    Type
REMARK                         _______ _______ _______ _____ _____    ______ ____
ROOT
ATOM      1  N   UNL     1       3.268   7.213  17.718  0.00  0.00    +0.000 N 
ATOM      2  C   UNL     1       2.602   8.391  18.085  0.00  0.00    +0.000 A 
ATOM      3  O   UNL     1       2.757   9.424  17.419  0.00  0.00    +0.000 OA
ATOM      4  N   UNL     1       1.719   8.320  19.181  0.00  0.00    +0.000 N 
ATOM      5  C   UNL     1       1.534   7.203  20.023  0.00  0.00    +0.000 A 
ATOM      6  O   UNL     1       0.819   7.176  20.999  0.00  0.00    +0.000 OA
ATOM      7  C   UNL     1       2.319   6.048  19.634  0.00  0.00    +0.000 A 
ATOM      8  C   UNL     1       2.356   4.754  20.253  0.00  0.00    +0.000 A 
ATOM      9  C   UNL     1       3.276   3.934  19.626  0.00  0.00    +0.000 A 
ATOM     10  S   UNL     1       3.999   4.676  18.275  0.00  0.00    +0.000 S 
ATOM     11  C   UNL     1       3.135   6.111  18.543  0.00  0.00    +0.000 A 
ATOM     12  C   UNL     1       3.590   2.526  20.029  0.00  0.00    +0.000 C 
ATOM     13  C   UNL     1       3.036   2.243  21.435  0.00  0.00    +0.000 C 
ATOM     14  C   UNL     1       1.599   2.765  21.578  0.00  0.00    +0.000 C 
ATOM     15  C   UNL     1       1.560   4.295  21.442  0.00  0.00    +0.000 C 
ENDROOT
BRANCH   4  16
ATOM     16  C   UNL     1       0.983   9.495  19.519  0.00  0.00    +0.000 A 
ATOM     17  C   UNL     1       1.260  10.172  20.714  0.00  0.00    +0.000 A 
ATOM     18  C   UNL     1       0.548  11.322  21.045  0.00  0.00    +0.000 A 
ATOM     19  C   UNL     1      -0.451  11.788  20.192  0.00  0.00    +0.000 A 
ATOM     20  C   UNL     1      -0.753  11.112  19.007  0.00  0.00    +0.000 A 
ATOM     21  C   UNL     1      -0.030   9.965  18.671  0.00  0.00    +0.000 A 
BRANCH  20  22
ATOM     22  O   UNL     1      -1.774  11.661  18.281  0.00  0.00    +0.000 OA
ATOM     23  C   UNL     1      -2.249  10.905  17.175  0.00  0.00    +0.000 C 
ENDBRANCH  20  22
ENDBRANCH   4  16
BRANCH   1  24
ATOM     24  C   UNL     1       4.087   7.272  16.506  0.00  0.00    +0.000 C 
BRANCH  24  26
ATOM     25  N   UNL     1       6.110   5.836  16.088  0.00  0.00    +0.000 N 
ATOM     26  C   UNL     1       5.548   6.908  16.796  0.00  0.00    +0.000 C 
ATOM     27  O   UNL     1       6.191   7.537  17.639  0.00  0.00    +0.000 OA
BRANCH  25  28
ATOM     28  C   UNL     1       7.520   5.541  16.443  0.00  0.00    +0.000 C 
BRANCH  28  30
ATOM     29  C   UNL     1       8.020   5.222  19.001  0.00  0.00    +0.000 C 
ATOM     30  C   UNL     1       7.839   4.618  17.622  0.00  0.00    +0.000 C 
ENDBRANCH  28  30
ENDBRANCH  25  28
BRANCH  25  31
ATOM     31  C   UNL     1       5.320   5.075  15.091  0.00  0.00    +0.000 C 
BRANCH  31  32
ATOM     32  C   UNL     1       5.896   3.793  14.481  0.00  0.00    +0.000 C 
ATOM     33  C   UNL     1       6.072   3.708  12.977  0.00  0.00    +0.000 C 
ENDBRANCH  31  32
ENDBRANCH  25  31
ENDBRANCH  24  26
ENDBRANCH   1  24
TORSDOF 8
ENDMDL
MODEL 3
REMARK VINA RESULT:      -6.8      7.665     10.706
REMARK  Name = 
REMARK  11 active torsions:
REMARK  status: ('A' for Active; 'I' for Inactive)
REMARK    1  A    between atoms: C_1  and  C_2
REMARK    2  A    between atoms: C_2  and  C_3
REMARK    3  A    between atoms: C_3  and  N_4
REMARK    4  A    between atoms: N_4  and  C_5
REMARK    5  A    between atoms: C_5  and  C_6
REMARK    6  A    between atoms: C_6  and  C_7
REMARK    7  A    between atoms: C_8  and  C_10
REMARK    8  A    between atoms: C_10  and  N_11
REMARK    9  A    between atoms: N_14  and  C_15
REMARK   10  A    between atoms: C_19  and  O_20
REMARK   11  A    between atoms: O_20  and  C_21
REMARK                            x       y       z     vdW  Elec       q    Type
REMARK                         _______ _______ _______ _____ _____    ______ ____
ROOT
ATOM      1  N   UNL     1       7.078  15.029  20.428  0.00  0.00    +0.000 N 
ATOM      2  C   UNL     1       6.812  14.561  21.722  0.00  0.00    +0.000 A 
ATOM      3  O   UNL     1       5.906  15.077  22.392  0.00  0.00    +0.000 OA
ATOM      4  N   UNL     1       7.563  13.461  22.181  0.00  0.00    +0.000 N 
ATOM      5  C   UNL     1       8.646  12.860  21.505  0.00  0.00    +0.000 A 
ATOM      6  O   UNL     1       9.323  11.956  21.938  0.00  0.00    +0.000 OA
ATOM      7  C   UNL     1       8.919  13.450  20.209  0.00  0.00    +0.000 A 
ATOM      8  C   UNL     1       9.927  13.073  19.261  0.00  0.00    +0.000 A 
ATOM      9  C   UNL     1       9.912  13.915  18.164  0.00  0.00    +0.000 A 
ATOM     10  S   UNL     1       8.657  15.062  18.239  0.00  0.00    +0.000 S 
ATOM     11  C   UNL     1       8.156  14.484  19.753  0.00  0.00    +0.000 A 
ATOM     12  C   UNL     1      10.846  13.825  16.996  0.00  0.00    +0.000 C 
ATOM     13  C   UNL     1      12.041  12.923  17.344  0.00  0.00    +0.000 C 
ATOM     14  C   UNL     1      11.578  11.635  18.038  0.00  0.00    +0.000 C 
ATOM     15  C   UNL     1      10.920  11.952  19.390  0.00  0.00    +0.000 C 
ENDROOT
BRANCH   4  16
ATOM     16  C   UNL     1       7.251  12.933  23.470  0.00  0.00    +0.000 A 
ATOM     17  C   UNL     1       8.004  13.326  24.585  0.00  0.00    +0.000 A 
ATOM     18  C   UNL     1       7.700  12.817  25.845  0.00  0.00    +0.000 A 
ATOM     19  C   UNL     1       6.654  11.907  25.991  0.00  0.00    +0.000 A 
ATOM     20  C   UNL     1       5.907  11.491  24.885  0.00  0.00    +0.000 A 
ATOM     21  C   UNL     1       6.206  12.011  23.624  0.00  0.00    +0.000 A 
BRANCH  20  22
ATOM     22  O   UNL     1       4.933  10.574  25.167  0.00  0.00    +0.000 OA
ATOM     23  C   UNL     1       4.576  10.422  26.535  0.00  0.00    +0.000 C 
ENDBRANCH  20  22
ENDBRANCH   4  16
BRANCH   1  24
ATOM     24  C   UNL     1       6.209  16.092  19.921  0.00  0.00    +0.000 C 
BRANCH  24  26
ATOM     25  N   UNL     1       3.719  16.075  19.567  0.00  0.00    +0.000 N 
ATOM     26  C   UNL     1       4.963  15.520  19.235  0.00  0.00    +0.000 C 
ATOM     27  O   UNL     1       5.065  14.591  18.431  0.00  0.00    +0.000 OA
BRANCH  25  28
ATOM     28  C   UNL     1       2.566  15.451  18.872  0.00  0.00    +0.000 C 
BRANCH  28  30
ATOM     29  C   UNL     1       2.391  13.399  20.501  0.00  0.00    +0.000 C 
ATOM     30  C   UNL     1       1.712  14.401  19.589  0.00  0.00    +0.000 C 
ENDBRANCH  28  30
ENDBRANCH  25  28
BRANCH  25  31
ATOM     31  C   UNL     1       3.607  17.178  20.551  0.00  0.00    +0.000 C 
BRANCH  31  32
ATOM     32  C   UNL     1       2.389  17.251  21.477  0.00  0.00    +0.000 C 
ATOM     33  C   UNL     1       2.367  16.397  22.732  0.00  0.00    +0.000 C 
ENDBRANCH  31  32
ENDBRANCH  25  31
ENDBRANCH  24  26
ENDBRANCH   1  24
TORSDOF 8
ENDMDL
MODEL 4
REMARK VINA RESULT:      -6.7      8.129     11.089
REMARK  Name = 
REMARK  11 active torsions:
REMARK  status: ('A' for Active; 'I' for Inactive)
REMARK    1  A    between atoms: C_1  and  C_2
REMARK    2  A    between atoms: C_2  and  C_3
REMARK    3  A    between atoms: C_3  and  N_4
REMARK    4  A    between atoms: N_4  and  C_5
REMARK    5  A    between atoms: C_5  and  C_6
REMARK    6  A    between atoms: C_6  and  C_7
REMARK    7  A    between atoms: C_8  and  C_10
REMARK    8  A    between atoms: C_10  and  N_11
REMARK    9  A    between atoms: N_14  and  C_15
REMARK   10  A    between atoms: C_19  and  O_20
REMARK   11  A    between atoms: O_20  and  C_21
REMARK                            x       y       z     vdW  Elec       q    Type
REMARK                         _______ _______ _______ _____ _____    ______ ____
ROOT
ATOM      1  N   UNL     1       7.279  15.141  20.823  0.00  0.00    +0.000 N 
ATOM      2  C   UNL     1       6.996  14.587  22.080  0.00  0.00    +0.000 A 
ATOM      3  O   UNL     1       6.165  15.128  22.822  0.00  0.00    +0.000 OA
ATOM      4  N   UNL     1       7.641  13.380  22.416  0.00  0.00    +0.000 N 
ATOM      5  C   UNL     1       8.640  12.737  21.655  0.00  0.00    +0.000 A 
ATOM      6  O   UNL     1       9.230  11.733  21.985  0.00  0.00    +0.000 OA
ATOM      7  C   UNL     1       8.942  13.411  20.407  0.00  0.00    +0.000 A 
ATOM      8  C   UNL     1       9.883  13.021  19.397  0.00  0.00    +0.000 A 
ATOM      9  C   UNL     1       9.928  13.957  18.379  0.00  0.00    +0.000 A 
ATOM     10  S   UNL     1       8.800  15.213  18.595  0.00  0.00    +0.000 S 
ATOM     11  C   UNL     1       8.278  14.554  20.069  0.00  0.00    +0.000 A 
ATOM     12  C   UNL     1      10.820  13.880  17.178  0.00  0.00    +0.000 C 
ATOM     13  C   UNL     1      11.924  12.834  17.406  0.00  0.00    +0.000 C 
ATOM     14  C   UNL     1      11.347  11.542  18.000  0.00  0.00    +0.000 C 
ATOM     15  C   UNL     1      10.757  11.800  19.395  0.00  0.00    +0.000 C 
ENDROOT
BRANCH   4  16
ATOM     16  C   UNL     1       7.307  12.772  23.663  0.00  0.00    +0.000 A 
ATOM     17  C   UNL     1       8.103  13.013  24.791  0.00  0.00    +0.000 A 
ATOM     18  C   UNL     1       7.777  12.425  26.011  0.00  0.00    +0.000 A 
ATOM     19  C   UNL     1       6.667  11.588  26.103  0.00  0.00    +0.000 A 
ATOM     20  C   UNL     1       5.876  11.322  24.981  0.00  0.00    +0.000 A 
ATOM     21  C   UNL     1       6.197  11.921  23.761  0.00  0.00    +0.000 A 
BRANCH  20  22
ATOM     22  O   UNL     1       4.838  10.460  25.207  0.00  0.00    +0.000 OA
ATOM     23  C   UNL     1       4.420  10.303  26.556  0.00  0.00    +0.000 C 
ENDBRANCH  20  22
ENDBRANCH   4  16
BRANCH   1  24
ATOM     24  C   UNL     1       6.512  16.327  20.440  0.00  0.00    +0.000 C 
BRANCH  24  26
ATOM     25  N   UNL     1       4.109  16.761  19.836  0.00  0.00    +0.000 N 
ATOM     26  C   UNL     1       5.241  15.951  19.670  0.00  0.00    +0.000 C 
ATOM     27  O   UNL     1       5.225  14.955  18.943  0.00  0.00    +0.000 OA
BRANCH  25  28
ATOM     28  C   UNL     1       2.920  16.315  19.069  0.00  0.00    +0.000 C 
BRANCH  28  30
ATOM     29  C   UNL     1       1.431  17.772  17.470  0.00  0.00    +0.000 C 
ATOM     30  C   UNL     1       1.735  17.264  18.866  0.00  0.00    +0.000 C 
ENDBRANCH  28  30
ENDBRANCH  25  28
BRANCH  25  31
ATOM     31  C   UNL     1       4.135  17.945  20.728  0.00  0.00    +0.000 C 
BRANCH  31  32
ATOM     32  C   UNL     1       3.302  17.947  22.014  0.00  0.00    +0.000 C 
ATOM     33  C   UNL     1       3.100  16.642  22.762  0.00  0.00    +0.000 C 
ENDBRANCH  31  32
ENDBRANCH  25  31
ENDBRANCH  24  26
ENDBRANCH   1  24
TORSDOF 8
ENDMDL
MODEL 5
REMARK VINA RESULT:      -6.6      3.691      7.501
REMARK  Name = 
REMARK  11 active torsions:
REMARK  status: ('A' for Active; 'I' for Inactive)
REMARK    1  A    between atoms: C_1  and  C_2
REMARK    2  A    between atoms: C_2  and  C_3
REMARK    3  A    between atoms: C_3  and  N_4
REMARK    4  A    between atoms: N_4  and  C_5
REMARK    5  A    between atoms: C_5  and  C_6
REMARK    6  A    between atoms: C_6  and  C_7
REMARK    7  A    between atoms: C_8  and  C_10
REMARK    8  A    between atoms: C_10  and  N_11
REMARK    9  A    between atoms: N_14  and  C_15
REMARK   10  A    between atoms: C_19  and  O_20
REMARK   11  A    between atoms: O_20  and  C_21
REMARK                            x       y       z     vdW  Elec       q    Type
REMARK                         _______ _______ _______ _____ _____    ______ ____
ROOT
ATOM      1  N   UNL     1       0.267  11.240  18.726  0.00  0.00    +0.000 N 
ATOM      2  C   UNL     1      -1.059  11.283  19.180  0.00  0.00    +0.000 A 
ATOM      3  O   UNL     1      -1.759  10.262  19.144  0.00  0.00    +0.000 OA
ATOM      4  N   UNL     1      -1.518  12.499  19.724  0.00  0.00    +0.000 N 
ATOM      5  C   UNL     1      -0.805  13.717  19.745  0.00  0.00    +0.000 A 
ATOM      6  O   UNL     1      -1.235  14.769  20.160  0.00  0.00    +0.000 OA
ATOM      7  C   UNL     1       0.528  13.618  19.184  0.00  0.00    +0.000 A 
ATOM      8  C   UNL     1       1.517  14.650  19.067  0.00  0.00    +0.000 A 
ATOM      9  C   UNL     1       2.645  14.180  18.418  0.00  0.00    +0.000 A 
ATOM     10  S   UNL     1       2.544  12.522  18.050  0.00  0.00    +0.000 S 
ATOM     11  C   UNL     1       0.981  12.425  18.702  0.00  0.00    +0.000 A 
ATOM     12  C   UNL     1       3.860  14.998  18.104  0.00  0.00    +0.000 C 
ATOM     13  C   UNL     1       3.546  16.494  18.262  0.00  0.00    +0.000 C 
ATOM     14  C   UNL     1       2.773  16.762  19.562  0.00  0.00    +0.000 C 
ATOM     15  C   UNL     1       1.400  16.075  19.529  0.00  0.00    +0.000 C 
ENDROOT
BRANCH   4  16
ATOM     16  C   UNL     1      -2.843  12.533  20.253  0.00  0.00    +0.000 A 
ATOM     17  C   UNL     1      -3.940  12.583  19.381  0.00  0.00    +0.000 A 
ATOM     18  C   UNL     1      -5.235  12.611  19.893  0.00  0.00    +0.000 A 
ATOM     19  C   UNL     1      -5.436  12.604  21.272  0.00  0.00    +0.000 A 
ATOM     20  C   UNL     1      -4.351  12.575  22.153  0.00  0.00    +0.000 A 
ATOM     21  C   UNL     1      -3.054  12.536  21.639  0.00  0.00    +0.000 A 
BRANCH  20  22
ATOM     22  O   UNL     1      -4.692  12.604  23.478  0.00  0.00    +0.000 OA
ATOM     23  C   UNL     1      -6.027  12.982  23.785  0.00  0.00    +0.000 C 
ENDBRANCH  20  22
ENDBRANCH   4  16
BRANCH   1  24
ATOM     24  C   UNL     1       0.766   9.940  18.276  0.00  0.00    +0.000 C 
BRANCH  24  26
ATOM     25  N   UNL     1       1.999   7.939  19.174  0.00  0.00    +0.000 N 
ATOM     26  C   UNL     1       1.225   9.074  19.455  0.00  0.00    +0.000 C 
ATOM     27  O   UNL     1       0.903   9.371  20.608  0.00  0.00    +0.000 OA
BRANCH  25  28
ATOM     28  C   UNL     1       2.384   7.151  20.370  0.00  0.00    +0.000 C 
BRANCH  28  30
ATOM     29  C   UNL     1       2.267   4.527  20.360  0.00  0.00    +0.000 C 
ATOM     30  C   UNL     1       1.636   5.859  20.714  0.00  0.00    +0.000 C 
ENDBRANCH  28  30
ENDBRANCH  25  28
BRANCH  25  31
ATOM     31  C   UNL     1       2.363   7.583  17.782  0.00  0.00    +0.000 C 
BRANCH  31  32
ATOM     32  C   UNL     1       3.801   7.171  17.454  0.00  0.00    +0.000 C 
ATOM     33  C   UNL     1       4.141   5.695  17.361  0.00  0.00    +0.000 C 
ENDBRANCH  31  32
ENDBRANCH  25  31
ENDBRANCH  24  26
ENDBRANCH   1  24
TORSDOF 8
ENDMDL
MODEL 6
REMARK VINA RESULT:      -6.5      3.151      6.895
REMARK  Name = 
REMARK  11 active torsions:
REMARK  status: ('A' for Active; 'I' for Inactive)
REMARK    1  A    between atoms: C_1  and  C_2
REMARK    2  A    between atoms: C_2  and  C_3
REMARK    3  A    between atoms: C_3  and  N_4
REMARK    4  A    between atoms: N_4  and  C_5
REMARK    5  A    between atoms: C_5  and  C_6
REMARK    6  A    between atoms: C_6  and  C_7
REMARK    7  A    between atoms: C_8  and  C_10
REMARK    8  A    between atoms: C_10  and  N_11
REMARK    9  A    between atoms: N_14  and  C_15
REMARK   10  A    between atoms: C_19  and  O_20
REMARK   11  A    between atoms: O_20  and  C_21
REMARK                            x       y       z     vdW  Elec       q    Type
REMARK                         _______ _______ _______ _____ _____    ______ ____
ROOT
ATOM      1  N   UNL     1       0.242  10.575  19.923  0.00  0.00    +0.000 N 
ATOM      2  C   UNL     1      -0.070  11.341  21.056  0.00  0.00    +0.000 A 
ATOM      3  O   UNL     1       0.709  11.365  22.019  0.00  0.00    +0.000 OA
ATOM      4  N   UNL     1      -1.249  12.111  21.013  0.00  0.00    +0.000 N 
ATOM      5  C   UNL     1      -2.212  12.090  19.982  0.00  0.00    +0.000 A 
ATOM      6  O   UNL     1      -3.252  12.710  19.987  0.00  0.00    +0.000 OA
ATOM      7  C   UNL     1      -1.865  11.213  18.881  0.00  0.00    +0.000 A 
ATOM      8  C   UNL     1      -2.604  10.972  17.676  0.00  0.00    +0.000 A 
ATOM      9  C   UNL     1      -1.975  10.019  16.895  0.00  0.00    +0.000 A 
ATOM     10  S   UNL     1      -0.492   9.508  17.556  0.00  0.00    +0.000 S 
ATOM     11  C   UNL     1      -0.698  10.507  18.911  0.00  0.00    +0.000 A 
ATOM     12  C   UNL     1      -2.484   9.510  15.581  0.00  0.00    +0.000 C 
ATOM     13  C   UNL     1      -3.959   9.903  15.399  0.00  0.00    +0.000 C 
ATOM     14  C   UNL     1      -4.190  11.373  15.776  0.00  0.00    +0.000 C 
ATOM     15  C   UNL     1      -3.905  11.602  17.268  0.00  0.00    +0.000 C 
ENDROOT
BRANCH   4  16
ATOM     16  C   UNL     1      -1.538  12.948  22.132  0.00  0.00    +0.000 A 
ATOM     17  C   UNL     1      -0.793  14.116  22.341  0.00  0.00    +0.000 A 
ATOM     18  C   UNL     1      -1.075  14.937  23.429  0.00  0.00    +0.000 A 
ATOM     19  C   UNL     1      -2.092  14.587  24.316  0.00  0.00    +0.000 A 
ATOM     20  C   UNL     1      -2.830  13.415  24.132  0.00  0.00    +0.000 A 
ATOM     21  C   UNL     1      -2.553  12.598  23.034  0.00  0.00    +0.000 A 
BRANCH  20  22
ATOM     22  O   UNL     1      -3.774  13.178  25.094  0.00  0.00    +0.000 OA
ATOM     23  C   UNL     1      -4.852  12.325  24.734  0.00  0.00    +0.000 C 
ENDBRANCH  20  22
ENDBRANCH   4  16
BRANCH   1  24
ATOM     24  C   UNL     1       1.528   9.877  19.935  0.00  0.00    +0.000 C 
BRANCH  24  26
ATOM     25  N   UNL     1       1.917   7.393  19.847  0.00  0.00    +0.000 N 
ATOM     26  C   UNL     1       1.407   8.485  20.565  0.00  0.00    +0.000 C 
ATOM     27  O   UNL     1       0.861   8.343  21.662  0.00  0.00    +0.000 OA
BRANCH  25  28
ATOM     28  C   UNL     1       1.741   6.083  20.521  0.00  0.00    +0.000 C 
BRANCH  28  30
ATOM     29  C   UNL     1       0.887   3.614  20.254  0.00  0.00    +0.000 C 
ATOM     30  C   UNL     1       1.650   4.798  19.693  0.00  0.00    +0.000 C 
ENDBRANCH  28  30
ENDBRANCH  25  28
BRANCH  25  31
ATOM     31  C   UNL     1       2.552   7.575  18.520  0.00  0.00    +0.000 C 
BRANCH  31  32
ATOM     32  C   UNL     1       3.957   7.018  18.267  0.00  0.00    +0.000 C 
ATOM     33  C   UNL     1       4.136   5.915  17.241  0.00  0.00    +0.000 C 
ENDBRANCH  31  32
ENDBRANCH  25  31
ENDBRANCH  24  26
ENDBRANCH   1  24
TORSDOF 8
ENDMDL
MODEL 7
REMARK VINA RESULT:      -6.5      3.790      7.705
REMARK  Name = 
REMARK  11 active torsions:
REMARK  status: ('A' for Active; 'I' for Inactive)
REMARK    1  A    between atoms: C_1  and  C_2
REMARK    2  A    between atoms: C_2  and  C_3
REMARK    3  A    between atoms: C_3  and  N_4
REMARK    4  A    between atoms: N_4  and  C_5
REMARK    5  A    between atoms: C_5  and  C_6
REMARK    6  A    between atoms: C_6  and  C_7
REMARK    7  A    between atoms: C_8  and  C_10
REMARK    8  A    between atoms: C_10  and  N_11
REMARK    9  A    between atoms: N_14  and  C_15
REMARK   10  A    between atoms: C_19  and  O_20
REMARK   11  A    between atoms: O_20  and  C_21
REMARK                            x       y       z     vdW  Elec       q    Type
REMARK                         _______ _______ _______ _____ _____    ______ ____
ROOT
ATOM      1  N   UNL     1       0.215  11.308  18.670  0.00  0.00    +0.000 N 
ATOM      2  C   UNL     1      -1.130  11.348  19.062  0.00  0.00    +0.000 A 
ATOM      3  O   UNL     1      -1.829  10.328  18.981  0.00  0.00    +0.000 OA
ATOM      4  N   UNL     1      -1.612  12.557  19.602  0.00  0.00    +0.000 N 
ATOM      5  C   UNL     1      -0.900  13.773  19.671  0.00  0.00    +0.000 A 
ATOM      6  O   UNL     1      -1.347  14.821  20.080  0.00  0.00    +0.000 OA
ATOM      7  C   UNL     1       0.458  13.679  19.171  0.00  0.00    +0.000 A 
ATOM      8  C   UNL     1       1.452  14.710  19.113  0.00  0.00    +0.000 A 
ATOM      9  C   UNL     1       2.608  14.247  18.511  0.00  0.00    +0.000 A 
ATOM     10  S   UNL     1       2.522  12.594  18.117  0.00  0.00    +0.000 S 
ATOM     11  C   UNL     1       0.930  12.491  18.694  0.00  0.00    +0.000 A 
ATOM     12  C   UNL     1       3.838  15.066  18.264  0.00  0.00    +0.000 C 
ATOM     13  C   UNL     1       3.519  16.561  18.428  0.00  0.00    +0.000 C 
ATOM     14  C   UNL     1       2.688  16.814  19.694  0.00  0.00    +0.000 C 
ATOM     15  C   UNL     1       1.316  16.129  19.589  0.00  0.00    +0.000 C 
ENDROOT
BRANCH   4  16
ATOM     16  C   UNL     1      -2.961  12.587  20.069  0.00  0.00    +0.000 A 
ATOM     17  C   UNL     1      -3.221  12.620  21.445  0.00  0.00    +0.000 A 
ATOM     18  C   UNL     1      -4.535  12.654  21.904  0.00  0.00    +0.000 A 
ATOM     19  C   UNL     1      -5.589  12.642  20.992  0.00  0.00    +0.000 A 
ATOM     20  C   UNL     1      -5.345  12.588  19.617  0.00  0.00    +0.000 A 
ATOM     21  C   UNL     1      -4.026  12.565  19.158  0.00  0.00    +0.000 A 
BRANCH  20  22
ATOM     22  O   UNL     1      -6.469  12.550  18.840  0.00  0.00    +0.000 OA
ATOM     23  C   UNL     1      -6.972  11.262  18.508  0.00  0.00    +0.000 C 
ENDBRANCH  20  22
ENDBRANCH   4  16
BRANCH   1  24
ATOM     24  C   UNL     1       0.732  10.012  18.226  0.00  0.00    +0.000 C 
BRANCH  24  26
ATOM     25  N   UNL     1       1.961   8.027  19.161  0.00  0.00    +0.000 N 
ATOM     26  C   UNL     1       1.134   9.130  19.414  0.00  0.00    +0.000 C 
ATOM     27  O   UNL     1       0.722   9.386  20.547  0.00  0.00    +0.000 OA
BRANCH  25  28
ATOM     28  C   UNL     1       2.286   7.218  20.361  0.00  0.00    +0.000 C 
BRANCH  28  30
ATOM     29  C   UNL     1       2.327   4.666  20.980  0.00  0.00    +0.000 C 
ATOM     30  C   UNL     1       1.535   5.912  20.636  0.00  0.00    +0.000 C 
ENDBRANCH  28  30
ENDBRANCH  25  28
BRANCH  25  31
ATOM     31  C   UNL     1       2.434   7.718  17.790  0.00  0.00    +0.000 C 
BRANCH  31  32
ATOM     32  C   UNL     1       3.770   6.995  17.591  0.00  0.00    +0.000 C 
ATOM     33  C   UNL     1       3.782   5.479  17.528  0.00  0.00    +0.000 C 
ENDBRANCH  31  32
ENDBRANCH  25  31
ENDBRANCH  24  26
ENDBRANCH   1  24
TORSDOF 8
ENDMDL
MODEL 8
REMARK VINA RESULT:      -6.5      3.107      6.846
REMARK  Name = 
REMARK  11 active torsions:
REMARK  status: ('A' for Active; 'I' for Inactive)
REMARK    1  A    between atoms: C_1  and  C_2
REMARK    2  A    between atoms: C_2  and  C_3
REMARK    3  A    between atoms: C_3  and  N_4
REMARK    4  A    between atoms: N_4  and  C_5
REMARK    5  A    between atoms: C_5  and  C_6
REMARK    6  A    between atoms: C_6  and  C_7
REMARK    7  A    between atoms: C_8  and  C_10
REMARK    8  A    between atoms: C_10  and  N_11
REMARK    9  A    between atoms: N_14  and  C_15
REMARK   10  A    between atoms: C_19  and  O_20
REMARK   11  A    between atoms: O_20  and  C_21
REMARK                            x       y       z     vdW  Elec       q    Type
REMARK                         _______ _______ _______ _____ _____    ______ ____
ROOT
ATOM      1  N   UNL     1       0.165  10.463  20.039  0.00  0.00    +0.000 N 
ATOM      2  C   UNL     1      -0.175  11.178  21.196  0.00  0.00    +0.000 A 
ATOM      3  O   UNL     1       0.579  11.160  22.179  0.00  0.00    +0.000 OA
ATOM      4  N   UNL     1      -1.353  11.951  21.157  0.00  0.00    +0.000 N 
ATOM      5  C   UNL     1      -2.290  11.976  20.103  0.00  0.00    +0.000 A 
ATOM      6  O   UNL     1      -3.330  12.596  20.109  0.00  0.00    +0.000 OA
ATOM      7  C   UNL     1      -1.916  11.147  18.974  0.00  0.00    +0.000 A 
ATOM      8  C   UNL     1      -2.624  10.960  17.741  0.00  0.00    +0.000 A 
ATOM      9  C   UNL     1      -1.975  10.042  16.935  0.00  0.00    +0.000 A 
ATOM     10  S   UNL     1      -0.509   9.501  17.610  0.00  0.00    +0.000 S 
ATOM     11  C   UNL     1      -0.750  10.440  19.002  0.00  0.00    +0.000 A 
ATOM     12  C   UNL     1      -2.452   9.591  15.588  0.00  0.00    +0.000 C 
ATOM     13  C   UNL     1      -3.922   9.993  15.386  0.00  0.00    +0.000 C 
ATOM     14  C   UNL     1      -4.162  11.445  15.822  0.00  0.00    +0.000 C 
ATOM     15  C   UNL     1      -3.915  11.608  17.329  0.00  0.00    +0.000 C 
ENDROOT
BRANCH   4  16
ATOM     16  C   UNL     1      -1.671  12.738  22.305  0.00  0.00    +0.000 A 
ATOM     17  C   UNL     1      -2.825  12.454  23.047  0.00  0.00    +0.000 A 
ATOM     18  C   UNL     1      -3.136  13.217  24.169  0.00  0.00    +0.000 A 
ATOM     19  C   UNL     1      -2.303  14.269  24.545  0.00  0.00    +0.000 A 
ATOM     20  C   UNL     1      -1.159  14.576  23.803  0.00  0.00    +0.000 A 
ATOM     21  C   UNL     1      -0.843  13.804  22.684  0.00  0.00    +0.000 A 
BRANCH  20  22
ATOM     22  O   UNL     1      -0.451  15.651  24.266  0.00  0.00    +0.000 OA
ATOM     23  C   UNL     1      -1.113  16.499  25.195  0.00  0.00    +0.000 C 
ENDBRANCH  20  22
ENDBRANCH   4  16
BRANCH   1  24
ATOM     24  C   UNL     1       1.451   9.764  20.052  0.00  0.00    +0.000 C 
BRANCH  24  26
ATOM     25  N   UNL     1       1.878   7.286  19.984  0.00  0.00    +0.000 N 
ATOM     26  C   UNL     1       1.328   8.371  20.681  0.00  0.00    +0.000 C 
ATOM     27  O   UNL     1       0.746   8.223  21.758  0.00  0.00    +0.000 OA
BRANCH  25  28
ATOM     28  C   UNL     1       1.698   5.975  20.655  0.00  0.00    +0.000 C 
BRANCH  28  30
ATOM     29  C   UNL     1       1.080   3.424  20.557  0.00  0.00    +0.000 C 
ATOM     30  C   UNL     1       1.289   4.744  19.840  0.00  0.00    +0.000 C 
ENDBRANCH  28  30
ENDBRANCH  25  28
BRANCH  25  31
ATOM     31  C   UNL     1       2.557   7.474  18.680  0.00  0.00    +0.000 C 
BRANCH  31  32
ATOM     32  C   UNL     1       3.855   6.717  18.382  0.00  0.00    +0.000 C 
ATOM     33  C   UNL     1       3.810   5.516  17.457  0.00  0.00    +0.000 C 
ENDBRANCH  31  32
ENDBRANCH  25  31
ENDBRANCH  24  26
ENDBRANCH   1  24
TORSDOF 8
ENDMDL
MODEL 9
REMARK VINA RESULT:      -6.5      7.292      8.909
REMARK  Name = 
REMARK  11 active torsions:
REMARK  status: ('A' for Active; 'I' for Inactive)
REMARK    1  A    between atoms: C_1  and  C_2
REMARK    2  A    between atoms: C_2  and  C_3
REMARK    3  A    between atoms: C_3  and  N_4
REMARK    4  A    between atoms: N_4  and  C_5
REMARK    5  A    between atoms: C_5  and  C_6
REMARK    6  A    between atoms: C_6  and  C_7
REMARK    7  A    between atoms: C_8  and  C_10
REMARK    8  A    between atoms: C_10  and  N_11
REMARK    9  A    between atoms: N_14  and  C_15
REMARK   10  A    between atoms: C_19  and  O_20
REMARK   11  A    between atoms: O_20  and  C_21
REMARK                            x       y       z     vdW  Elec       q    Type
REMARK                         _______ _______ _______ _____ _____    ______ ____
ROOT
ATOM      1  N   UNL     1       6.240  15.013  19.443  0.00  0.00    +0.000 N 
ATOM      2  C   UNL     1       4.915  14.888  19.003  0.00  0.00    +0.000 A 
ATOM      3  O   UNL     1       4.644  15.046  17.805  0.00  0.00    +0.000 OA
ATOM      4  N   UNL     1       3.947  14.519  19.958  0.00  0.00    +0.000 N 
ATOM      5  C   UNL     1       4.166  14.381  21.345  0.00  0.00    +0.000 A 
ATOM      6  O   UNL     1       3.312  14.124  22.163  0.00  0.00    +0.000 OA
ATOM      7  C   UNL     1       5.542  14.606  21.741  0.00  0.00    +0.000 A 
ATOM      8  C   UNL     1       6.108  14.529  23.056  0.00  0.00    +0.000 A 
ATOM      9  C   UNL     1       7.448  14.872  23.037  0.00  0.00    +0.000 A 
ATOM     10  S   UNL     1       8.020  15.184  21.465  0.00  0.00    +0.000 S 
ATOM     11  C   UNL     1       6.482  14.917  20.802  0.00  0.00    +0.000 A 
ATOM     12  C   UNL     1       8.341  14.923  24.239  0.00  0.00    +0.000 C 
ATOM     13  C   UNL     1       7.498  14.907  25.524  0.00  0.00    +0.000 C 
ATOM     14  C   UNL     1       6.397  13.839  25.449  0.00  0.00    +0.000 C 
ATOM     15  C   UNL     1       5.398  14.167  24.329  0.00  0.00    +0.000 C 
ENDROOT
BRANCH   4  16
ATOM     16  C   UNL     1       2.608  14.321  19.506  0.00  0.00    +0.000 A 
ATOM     17  C   UNL     1       2.191  13.047  19.097  0.00  0.00    +0.000 A 
ATOM     18  C   UNL     1       0.884  12.849  18.659  0.00  0.00    +0.000 A 
ATOM     19  C   UNL     1      -0.003  13.923  18.619  0.00  0.00    +0.000 A 
ATOM     20  C   UNL     1       0.404  15.203  19.005  0.00  0.00    +0.000 A 
ATOM     21  C   UNL     1       1.712  15.398  19.453  0.00  0.00    +0.000 A 
BRANCH  20  22
ATOM     22  O   UNL     1      -0.558  16.168  18.885  0.00  0.00    +0.000 OA
ATOM     23  C   UNL     1      -0.257  17.268  18.036  0.00  0.00    +0.000 C 
ENDBRANCH  20  22
ENDBRANCH   4  16
BRANCH   1  24
ATOM     24  C   UNL     1       7.252  15.277  18.418  0.00  0.00    +0.000 C 
BRANCH  24  26
ATOM     25  N   UNL     1       9.273  13.811  18.116  0.00  0.00    +0.000 N 
ATOM     26  C   UNL     1       7.896  13.980  17.915  0.00  0.00    +0.000 C 
ATOM     27  O   UNL     1       7.214  13.129  17.340  0.00  0.00    +0.000 OA
BRANCH  25  28
ATOM     28  C   UNL     1       9.816  12.538  17.583  0.00  0.00    +0.000 C 
BRANCH  28  30
ATOM     29  C   UNL     1       9.690  11.304  19.898  0.00  0.00    +0.000 C 
ATOM     30  C   UNL     1      10.346  11.466  18.541  0.00  0.00    +0.000 C 
ENDBRANCH  28  30
ENDBRANCH  25  28
BRANCH  25  31
ATOM     31  C   UNL     1      10.085  14.851  18.792  0.00  0.00    +0.000 C 
BRANCH  31  32
ATOM     32  C   UNL     1      11.224  15.539  18.033  0.00  0.00    +0.000 C 
ATOM     33  C   UNL     1      10.906  16.292  16.755  0.00  0.00    +0.000 C 
ENDBRANCH  31  32
ENDBRANCH  25  31
ENDBRANCH  24  26
ENDBRANCH   1  24
TORSDOF 8
ENDMDL
