MODEL 1
REMARK VINA RESULT:      -7.8      0.000      0.000
REMARK  Name = 
REMARK  4 active torsions:
REMARK  status: ('A' for Active; 'I' for Inactive)
REMARK    1  A    between atoms: C_1  and  C_2
REMARK    2  A    between atoms: C_2  and  O_3
REMARK    3  A    between atoms: O_3  and  C_4
REMARK    4  A    between atoms: C_13  and  C_15
REMARK                            x       y       z     vdW  Elec       q    Type
REMARK                         _______ _______ _______ _____ _____    ______ ____
ROOT
ATOM      1  C   UNL     1       5.916   4.070  13.325  0.00  0.00    +0.000 A 
ATOM      2  N   UNL     1       6.915   4.290  12.453  0.00  0.00    +0.000 NA
ATOM      3  C   UNL     1       7.926   5.025  12.915  0.00  0.00    +0.000 A 
ATOM      4  N   UNL     1       8.031   5.539  14.151  0.00  0.00    +0.000 NA
ATOM      5  C   UNL     1       7.007   5.300  14.998  0.00  0.00    +0.000 A 
ATOM      6  C   UNL     1       5.892   4.563  14.619  0.00  0.00    +0.000 A 
ATOM      7  C   UNL     1       4.774   4.258  15.570  0.00  0.00    +0.000 C 
ATOM      8  C   UNL     1       5.256   3.388  16.739  0.00  0.00    +0.000 C 
ATOM      9  N   UNL     1       5.886   4.202  17.787  0.00  0.00    +0.000 N 
ATOM     10  C   UNL     1       5.308   4.599  19.003  0.00  0.00    +0.000 C 
ATOM     11  O   UNL     1       5.919   5.295  19.813  0.00  0.00    +0.000 OA
ATOM     12  C   UNL     1       7.213   4.736  17.454  0.00  0.00    +0.000 C 
ATOM     13  C   UNL     1       7.167   5.844  16.400  0.00  0.00    +0.000 C 
ENDROOT
BRANCH  10  14
ATOM     14  C   UNL     1       3.923   4.207  19.372  0.00  0.00    +0.000 A 
ATOM     15  C   UNL     1       2.830   5.050  19.164  0.00  0.00    +0.000 A 
ATOM     16  C   UNL     1       1.566   4.609  19.518  0.00  0.00    +0.000 A 
ATOM     17  N   UNL     1       1.333   3.439  20.135  0.00  0.00    +0.000 NA
ATOM     18  C   UNL     1       2.416   2.671  20.405  0.00  0.00    +0.000 A 
ATOM     19  C   UNL     1       3.709   3.006  20.041  0.00  0.00    +0.000 A 
ATOM     20  F   UNL     1       4.707   2.163  20.342  0.00  0.00    +0.000 F 
ENDBRANCH  10  14
BRANCH   1  21
ATOM     21  O   UNL     1       4.833   3.321  12.909  0.00  0.00    +0.000 OA
BRANCH  21  23
ATOM     22  C   UNL     1       3.652   3.293  10.831  0.00  0.00    +0.000 C 
ATOM     23  C   UNL     1       4.938   2.916  11.542  0.00  0.00    +0.000 C 
ENDBRANCH  21  23
ENDBRANCH   1  21
TORSDOF 3
ENDMDL
MODEL 2
REMARK VINA RESULT:      -7.8      1.001      1.394
REMARK  Name = 
REMARK  4 active torsions:
REMARK  status: ('A' for Active; 'I' for Inactive)
REMARK    1  A    between atoms: C_1  and  C_2
REMARK    2  A    between atoms: C_2  and  O_3
REMARK    3  A    between atoms: O_3  and  C_4
REMARK    4  A    between atoms: C_13  and  C_15
REMARK                            x       y       z     vdW  Elec       q    Type
REMARK                         _______ _______ _______ _____ _____    ______ ____
ROOT
ATOM      1  C   UNL     1       5.906   4.043  13.294  0.00  0.00    +0.000 A 
ATOM      2  N   UNL     1       6.904   4.272  12.424  0.00  0.00    +0.000 NA
ATOM      3  C   UNL     1       7.907   5.017  12.887  0.00  0.00    +0.000 A 
ATOM      4  N   UNL     1       8.005   5.535  14.121  0.00  0.00    +0.000 NA
ATOM      5  C   UNL     1       6.982   5.286  14.967  0.00  0.00    +0.000 A 
ATOM      6  C   UNL     1       5.874   4.538  14.588  0.00  0.00    +0.000 A 
ATOM      7  C   UNL     1       4.758   4.223  15.537  0.00  0.00    +0.000 C 
ATOM      8  C   UNL     1       5.246   3.360  16.709  0.00  0.00    +0.000 C 
ATOM      9  N   UNL     1       5.866   4.182  17.756  0.00  0.00    +0.000 N 
ATOM     10  C   UNL     1       5.283   4.575  18.971  0.00  0.00    +0.000 C 
ATOM     11  O   UNL     1       5.886   5.279  19.781  0.00  0.00    +0.000 OA
ATOM     12  C   UNL     1       7.189   4.728  17.425  0.00  0.00    +0.000 C 
ATOM     13  C   UNL     1       7.134   5.834  16.368  0.00  0.00    +0.000 C 
ENDROOT
BRANCH  10  14
ATOM     14  C   UNL     1       3.901   4.169  19.338  0.00  0.00    +0.000 A 
ATOM     15  C   UNL     1       3.637   3.027  20.095  0.00  0.00    +0.000 A 
ATOM     16  C   UNL     1       2.323   2.721  20.412  0.00  0.00    +0.000 A 
ATOM     17  N   UNL     1       1.268   3.419  19.959  0.00  0.00    +0.000 NA
ATOM     18  C   UNL     1       1.541   4.476  19.156  0.00  0.00    +0.000 A 
ATOM     19  C   UNL     1       2.822   4.885  18.829  0.00  0.00    +0.000 A 
ATOM     20  F   UNL     1       2.979   5.958  18.040  0.00  0.00    +0.000 F 
ENDBRANCH  10  14
BRANCH   1  21
ATOM     21  O   UNL     1       4.831   3.282  12.877  0.00  0.00    +0.000 OA
BRANCH  21  23
ATOM     22  C   UNL     1       3.650   3.320  10.800  0.00  0.00    +0.000 C 
ATOM     23  C   UNL     1       4.928   2.902  11.503  0.00  0.00    +0.000 C 
ENDBRANCH  21  23
ENDBRANCH   1  21
TORSDOF 3
ENDMDL
MODEL 3
REMARK VINA RESULT:      -6.1      3.520      7.184
REMARK  Name = 
REMARK  4 active torsions:
REMARK  status: ('A' for Active; 'I' for Inactive)
REMARK    1  A    between atoms: C_1  and  C_2
REMARK    2  A    between atoms: C_2  and  O_3
REMARK    3  A    between atoms: O_3  and  C_4
REMARK    4  A    between atoms: C_13  and  C_15
REMARK                            x       y       z     vdW  Elec       q    Type
REMARK                         _______ _______ _______ _____ _____    ______ ____
ROOT
ATOM      1  C   UNL     1       1.807   8.946  19.038  0.00  0.00    +0.000 A 
ATOM      2  N   UNL     1       1.077   9.365  20.084  0.00  0.00    +0.000 NA
ATOM      3  C   UNL     1       0.814   8.439  21.006  0.00  0.00    +0.000 A 
ATOM      4  N   UNL     1       1.217   7.159  20.980  0.00  0.00    +0.000 NA
ATOM      5  C   UNL     1       1.947   6.774  19.911  0.00  0.00    +0.000 A 
ATOM      6  C   UNL     1       2.266   7.648  18.880  0.00  0.00    +0.000 A 
ATOM      7  C   UNL     1       3.112   7.235  17.713  0.00  0.00    +0.000 C 
ATOM      8  C   UNL     1       4.532   6.856  18.159  0.00  0.00    +0.000 C 
ATOM      9  N   UNL     1       4.585   5.473  18.651  0.00  0.00    +0.000 N 
ATOM     10  C   UNL     1       5.067   4.353  17.956  0.00  0.00    +0.000 C 
ATOM     11  O   UNL     1       5.058   3.228  18.454  0.00  0.00    +0.000 OA
ATOM     12  C   UNL     1       3.963   5.248  19.962  0.00  0.00    +0.000 C 
ATOM     13  C   UNL     1       2.436   5.343  19.925  0.00  0.00    +0.000 C 
ENDROOT
BRANCH  10  14
ATOM     14  C   UNL     1       5.605   4.466  16.575  0.00  0.00    +0.000 A 
ATOM     15  C   UNL     1       4.832   4.176  15.449  0.00  0.00    +0.000 A 
ATOM     16  C   UNL     1       5.397   4.320  14.192  0.00  0.00    +0.000 A 
ATOM     17  N   UNL     1       6.685   4.644  13.989  0.00  0.00    +0.000 NA
ATOM     18  C   UNL     1       7.441   4.839  15.097  0.00  0.00    +0.000 A 
ATOM     19  C   UNL     1       6.950   4.768  16.388  0.00  0.00    +0.000 A 
ATOM     20  F   UNL     1       7.784   4.997  17.413  0.00  0.00    +0.000 F 
ENDBRANCH  10  14
BRANCH   1  21
ATOM     21  O   UNL     1       2.111   9.853  18.041  0.00  0.00    +0.000 OA
BRANCH  21  23
ATOM     22  C   UNL     1       2.608  12.191  18.023  0.00  0.00    +0.000 C 
ATOM     23  C   UNL     1       1.542  11.142  18.281  0.00  0.00    +0.000 C 
ENDBRANCH  21  23
ENDBRANCH   1  21
TORSDOF 3
ENDMDL
MODEL 4
REMARK VINA RESULT:      -6.1      3.300      6.886
REMARK  Name = 
REMARK  4 active torsions:
REMARK  status: ('A' for Active; 'I' for Inactive)
REMARK    1  A    between atoms: C_1  and  C_2
REMARK    2  A    between atoms: C_2  and  O_3
REMARK    3  A    between atoms: O_3  and  C_4
REMARK    4  A    between atoms: C_13  and  C_15
REMARK                            x       y       z     vdW  Elec       q    Type
REMARK                         _______ _______ _______ _____ _____    ______ ____
ROOT
ATOM      1  C   UNL     1       1.718   4.641  19.947  0.00  0.00    +0.000 A 
ATOM      2  N   UNL     1       0.759   3.700  19.930  0.00  0.00    +0.000 NA
ATOM      3  C   UNL     1       0.808   2.851  18.905  0.00  0.00    +0.000 A 
ATOM      4  N   UNL     1       1.719   2.851  17.919  0.00  0.00    +0.000 NA
ATOM      5  C   UNL     1       2.666   3.814  17.967  0.00  0.00    +0.000 A 
ATOM      6  C   UNL     1       2.702   4.765  18.979  0.00  0.00    +0.000 A 
ATOM      7  C   UNL     1       3.776   5.807  19.060  0.00  0.00    +0.000 C 
ATOM      8  C   UNL     1       5.157   5.171  19.274  0.00  0.00    +0.000 C 
ATOM      9  N   UNL     1       5.736   4.714  18.004  0.00  0.00    +0.000 N 
ATOM     10  C   UNL     1       6.730   5.361  17.253  0.00  0.00    +0.000 C 
ATOM     11  O   UNL     1       7.142   4.898  16.189  0.00  0.00    +0.000 OA
ATOM     12  C   UNL     1       5.118   3.512  17.429  0.00  0.00    +0.000 C 
ATOM     13  C   UNL     1       3.713   3.766  16.877  0.00  0.00    +0.000 C 
ENDROOT
BRANCH  10  14
ATOM     14  C   UNL     1       7.329   6.646  17.697  0.00  0.00    +0.000 A 
ATOM     15  C   UNL     1       7.149   7.836  16.989  0.00  0.00    +0.000 A 
ATOM     16  C   UNL     1       7.725   8.999  17.474  0.00  0.00    +0.000 A 
ATOM     17  N   UNL     1       8.526   9.037  18.552  0.00  0.00    +0.000 NA
ATOM     18  C   UNL     1       8.757   7.857  19.177  0.00  0.00    +0.000 A 
ATOM     19  C   UNL     1       8.183   6.658  18.795  0.00  0.00    +0.000 A 
ATOM     20  F   UNL     1       8.466   5.550  19.497  0.00  0.00    +0.000 F 
ENDBRANCH  10  14
BRANCH   1  21
ATOM     21  O   UNL     1       1.722   5.559  20.979  0.00  0.00    +0.000 OA
BRANCH  21  23
ATOM     22  C   UNL     1       1.503   7.938  21.053  0.00  0.00    +0.000 C 
ATOM     23  C   UNL     1       0.795   6.626  20.768  0.00  0.00    +0.000 C 
ENDBRANCH  21  23
ENDBRANCH   1  21
TORSDOF 3
ENDMDL
MODEL 5
REMARK VINA RESULT:      -5.9      1.168      1.236
REMARK  Name = 
REMARK  4 active torsions:
REMARK  status: ('A' for Active; 'I' for Inactive)
REMARK    1  A    between atoms: C_1  and  C_2
REMARK    2  A    between atoms: C_2  and  O_3
REMARK    3  A    between atoms: O_3  and  C_4
REMARK    4  A    between atoms: C_13  and  C_15
REMARK                            x       y       z     vdW  Elec       q    Type
REMARK                         _______ _______ _______ _____ _____    ______ ____
ROOT
ATOM      1  C   UNL     1       6.004   3.910  13.530  0.00  0.00    +0.000 A 
ATOM      2  N   UNL     1       7.094   4.221  12.808  0.00  0.00    +0.000 NA
ATOM      3  C   UNL     1       7.927   5.093  13.375  0.00  0.00    +0.000 A 
ATOM      4  N   UNL     1       7.776   5.662  14.581  0.00  0.00    +0.000 NA
ATOM      5  C   UNL     1       6.667   5.329  15.277  0.00  0.00    +0.000 A 
ATOM      6  C   UNL     1       5.720   4.445  14.777  0.00  0.00    +0.000 A 
ATOM      7  C   UNL     1       4.510   4.039  15.564  0.00  0.00    +0.000 C 
ATOM      8  C   UNL     1       4.903   3.280  16.840  0.00  0.00    +0.000 C 
ATOM      9  N   UNL     1       5.261   4.205  17.922  0.00  0.00    +0.000 N 
ATOM     10  C   UNL     1       4.458   4.572  19.014  0.00  0.00    +0.000 C 
ATOM     11  O   UNL     1       4.849   5.369  19.866  0.00  0.00    +0.000 OA
ATOM     12  C   UNL     1       6.552   4.887  17.764  0.00  0.00    +0.000 C 
ATOM     13  C   UNL     1       6.541   5.941  16.654  0.00  0.00    +0.000 C 
ENDROOT
BRANCH  10  14
ATOM     14  C   UNL     1       3.088   4.024  19.191  0.00  0.00    +0.000 A 
ATOM     15  C   UNL     1       2.443   3.293  18.192  0.00  0.00    +0.000 A 
ATOM     16  C   UNL     1       1.172   2.799  18.436  0.00  0.00    +0.000 A 
ATOM     17  N   UNL     1       0.479   3.056  19.558  0.00  0.00    +0.000 NA
ATOM     18  C   UNL     1       1.089   3.838  20.481  0.00  0.00    +0.000 A 
ATOM     19  C   UNL     1       2.375   4.330  20.346  0.00  0.00    +0.000 A 
ATOM     20  F   UNL     1       2.889   5.081  21.331  0.00  0.00    +0.000 F 
ENDBRANCH  10  14
BRANCH   1  21
ATOM     21  O   UNL     1       5.095   3.016  12.999  0.00  0.00    +0.000 OA
BRANCH  21  23
ATOM     22  C   UNL     1       3.815   3.197  10.988  0.00  0.00    +0.000 C 
ATOM     23  C   UNL     1       5.187   2.921  11.576  0.00  0.00    +0.000 C 
ENDBRANCH  21  23
ENDBRANCH   1  21
TORSDOF 3
ENDMDL
MODEL 6
REMARK VINA RESULT:      -5.7     10.241     11.661
REMARK  Name = 
REMARK  4 active torsions:
REMARK  status: ('A' for Active; 'I' for Inactive)
REMARK    1  A    between atoms: C_1  and  C_2
REMARK    2  A    between atoms: C_2  and  O_3
REMARK    3  A    between atoms: O_3  and  C_4
REMARK    4  A    between atoms: C_13  and  C_15
REMARK                            x       y       z     vdW  Elec       q    Type
REMARK                         _______ _______ _______ _____ _____    ______ ____
ROOT
ATOM      1  C   UNL     1      10.475  13.152  17.876  0.00  0.00    +0.000 A 
ATOM      2  N   UNL     1      11.764  13.355  17.558  0.00  0.00    +0.000 NA
ATOM      3  C   UNL     1      12.095  14.616  17.284  0.00  0.00    +0.000 A 
ATOM      4  N   UNL     1      11.270  15.674  17.311  0.00  0.00    +0.000 NA
ATOM      5  C   UNL     1       9.981  15.432  17.633  0.00  0.00    +0.000 A 
ATOM      6  C   UNL     1       9.519  14.153  17.918  0.00  0.00    +0.000 A 
ATOM      7  C   UNL     1       8.099  13.887  18.318  0.00  0.00    +0.000 C 
ATOM      8  C   UNL     1       7.754  14.573  19.647  0.00  0.00    +0.000 C 
ATOM      9  N   UNL     1       7.401  15.984  19.443  0.00  0.00    +0.000 N 
ATOM     10  C   UNL     1       6.109  16.533  19.426  0.00  0.00    +0.000 C 
ATOM     11  O   UNL     1       5.918  17.733  19.235  0.00  0.00    +0.000 OA
ATOM     12  C   UNL     1       8.524  16.871  19.116  0.00  0.00    +0.000 C 
ATOM     13  C   UNL     1       9.079  16.643  17.708  0.00  0.00    +0.000 C 
ENDROOT
BRANCH  10  14
ATOM     14  C   UNL     1       4.902  15.689  19.627  0.00  0.00    +0.000 A 
ATOM     15  C   UNL     1       4.327  15.500  20.885  0.00  0.00    +0.000 A 
ATOM     16  C   UNL     1       3.193  14.713  20.993  0.00  0.00    +0.000 A 
ATOM     17  N   UNL     1       2.653  14.042  19.961  0.00  0.00    +0.000 NA
ATOM     18  C   UNL     1       3.275  14.171  18.764  0.00  0.00    +0.000 A 
ATOM     19  C   UNL     1       4.380  14.976  18.552  0.00  0.00    +0.000 A 
ATOM     20  F   UNL     1       4.907  15.045  17.321  0.00  0.00    +0.000 F 
ENDBRANCH  10  14
BRANCH   1  21
ATOM     21  O   UNL     1      10.062  11.866  18.165  0.00  0.00    +0.000 OA
BRANCH  21  23
ATOM     22  C   UNL     1       9.966  11.528  20.529  0.00  0.00    +0.000 C 
ATOM     23  C   UNL     1      10.774  11.296  19.266  0.00  0.00    +0.000 C 
ENDBRANCH  21  23
ENDBRANCH   1  21
TORSDOF 3
ENDMDL
MODEL 7
REMARK VINA RESULT:      -5.7      3.505      7.036
REMARK  Name = 
REMARK  4 active torsions:
REMARK  status: ('A' for Active; 'I' for Inactive)
REMARK    1  A    between atoms: C_1  and  C_2
REMARK    2  A    between atoms: C_2  and  O_3
REMARK    3  A    between atoms: O_3  and  C_4
REMARK    4  A    between atoms: C_13  and  C_15
REMARK                            x       y       z     vdW  Elec       q    Type
REMARK                         _______ _______ _______ _____ _____    ______ ____
ROOT
ATOM      1  C   UNL     1       1.480   4.520  20.114  0.00  0.00    +0.000 A 
ATOM      2  N   UNL     1       0.493   3.611  20.176  0.00  0.00    +0.000 NA
ATOM      3  C   UNL     1       0.508   2.683  19.220  0.00  0.00    +0.000 A 
ATOM      4  N   UNL     1       1.411   2.578  18.233  0.00  0.00    +0.000 NA
ATOM      5  C   UNL     1       2.388   3.512  18.201  0.00  0.00    +0.000 A 
ATOM      6  C   UNL     1       2.460   4.538  19.135  0.00  0.00    +0.000 A 
ATOM      7  C   UNL     1       3.566   5.549  19.128  0.00  0.00    +0.000 C 
ATOM      8  C   UNL     1       4.928   4.890  19.384  0.00  0.00    +0.000 C 
ATOM      9  N   UNL     1       5.484   4.317  18.151  0.00  0.00    +0.000 N 
ATOM     10  C   UNL     1       6.491   4.873  17.346  0.00  0.00    +0.000 C 
ATOM     11  O   UNL     1       6.880   4.316  16.320  0.00  0.00    +0.000 OA
ATOM     12  C   UNL     1       4.825   3.094  17.674  0.00  0.00    +0.000 C 
ATOM     13  C   UNL     1       3.424   3.348  17.112  0.00  0.00    +0.000 C 
ENDROOT
BRANCH  10  14
ATOM     14  C   UNL     1       7.132   6.169  17.686  0.00  0.00    +0.000 A 
ATOM     15  C   UNL     1       8.055   6.294  18.725  0.00  0.00    +0.000 A 
ATOM     16  C   UNL     1       8.624   7.532  18.973  0.00  0.00    +0.000 A 
ATOM     17  N   UNL     1       8.275   8.654  18.321  0.00  0.00    +0.000 NA
ATOM     18  C   UNL     1       7.315   8.528  17.372  0.00  0.00    +0.000 A 
ATOM     19  C   UNL     1       6.730   7.324  17.022  0.00  0.00    +0.000 A 
ATOM     20  F   UNL     1       5.801   7.311  16.055  0.00  0.00    +0.000 F 
ENDBRANCH  10  14
BRANCH   1  21
ATOM     21  O   UNL     1       1.520   5.515  21.072  0.00  0.00    +0.000 OA
BRANCH  21  23
ATOM     22  C   UNL     1       1.496   7.904  21.001  0.00  0.00    +0.000 C 
ATOM     23  C   UNL     1       0.704   6.638  20.731  0.00  0.00    +0.000 C 
ENDBRANCH  21  23
ENDBRANCH   1  21
TORSDOF 3
ENDMDL
MODEL 8
REMARK VINA RESULT:      -5.6      3.428      7.150
REMARK  Name = 
REMARK  4 active torsions:
REMARK  status: ('A' for Active; 'I' for Inactive)
REMARK    1  A    between atoms: C_1  and  C_2
REMARK    2  A    between atoms: C_2  and  O_3
REMARK    3  A    between atoms: O_3  and  C_4
REMARK    4  A    between atoms: C_13  and  C_15
REMARK                            x       y       z     vdW  Elec       q    Type
REMARK                         _______ _______ _______ _____ _____    ______ ____
ROOT
ATOM      1  C   UNL     1       1.808   8.808  19.063  0.00  0.00    +0.000 A 
ATOM      2  N   UNL     1       1.054   9.224  20.094  0.00  0.00    +0.000 NA
ATOM      3  C   UNL     1       0.811   8.310  21.032  0.00  0.00    +0.000 A 
ATOM      4  N   UNL     1       1.257   7.044  21.038  0.00  0.00    +0.000 NA
ATOM      5  C   UNL     1       2.011   6.660  19.984  0.00  0.00    +0.000 A 
ATOM      6  C   UNL     1       2.311   7.523  18.938  0.00  0.00    +0.000 A 
ATOM      7  C   UNL     1       3.182   7.114  17.789  0.00  0.00    +0.000 C 
ATOM      8  C   UNL     1       4.609   6.791  18.256  0.00  0.00    +0.000 C 
ATOM      9  N   UNL     1       4.702   5.421  18.777  0.00  0.00    +0.000 N 
ATOM     10  C   UNL     1       5.228   4.303  18.111  0.00  0.00    +0.000 C 
ATOM     11  O   UNL     1       5.250   3.189  18.633  0.00  0.00    +0.000 OA
ATOM     12  C   UNL     1       4.075   5.203  20.086  0.00  0.00    +0.000 C 
ATOM     13  C   UNL     1       2.546   5.247  20.033  0.00  0.00    +0.000 C 
ENDROOT
BRANCH  10  14
ATOM     14  C   UNL     1       5.776   4.405  16.733  0.00  0.00    +0.000 A 
ATOM     15  C   UNL     1       7.071   4.860  16.478  0.00  0.00    +0.000 A 
ATOM     16  C   UNL     1       7.519   4.913  15.168  0.00  0.00    +0.000 A 
ATOM     17  N   UNL     1       6.745   4.628  14.107  0.00  0.00    +0.000 NA
ATOM     18  C   UNL     1       5.465   4.268  14.370  0.00  0.00    +0.000 A 
ATOM     19  C   UNL     1       4.948   4.139  15.647  0.00  0.00    +0.000 A 
ATOM     20  F   UNL     1       3.670   3.759  15.794  0.00  0.00    +0.000 F 
ENDBRANCH  10  14
BRANCH   1  21
ATOM     21  O   UNL     1       2.093   9.704  18.051  0.00  0.00    +0.000 OA
BRANCH  21  23
ATOM     22  C   UNL     1       2.531  12.053  18.072  0.00  0.00    +0.000 C 
ATOM     23  C   UNL     1       1.477  10.977  18.257  0.00  0.00    +0.000 C 
ENDBRANCH  21  23
ENDBRANCH   1  21
TORSDOF 3
ENDMDL
MODEL 9
REMARK VINA RESULT:      -5.6      1.593      1.987
REMARK  Name = 
REMARK  4 active torsions:
REMARK  status: ('A' for Active; 'I' for Inactive)
REMARK    1  A    between atoms: C_1  and  C_2
REMARK    2  A    between atoms: C_2  and  O_3
REMARK    3  A    between atoms: O_3  and  C_4
REMARK    4  A    between atoms: C_13  and  C_15
REMARK                            x       y       z     vdW  Elec       q    Type
REMARK                         _______ _______ _______ _____ _____    ______ ____
ROOT
ATOM      1  C   UNL     1       6.471   4.313  14.300  0.00  0.00    +0.000 A 
ATOM      2  N   UNL     1       7.587   4.835  13.766  0.00  0.00    +0.000 NA
ATOM      3  C   UNL     1       8.125   5.850  14.441  0.00  0.00    +0.000 A 
ATOM      4  N   UNL     1       7.660   6.372  15.587  0.00  0.00    +0.000 NA
ATOM      5  C   UNL     1       6.534   5.824  16.093  0.00  0.00    +0.000 A 
ATOM      6  C   UNL     1       5.877   4.774  15.463  0.00  0.00    +0.000 A 
ATOM      7  C   UNL     1       4.652   4.134  16.044  0.00  0.00    +0.000 C 
ATOM      8  C   UNL     1       4.957   3.460  17.389  0.00  0.00    +0.000 C 
ATOM      9  N   UNL     1       4.937   4.431  18.490  0.00  0.00    +0.000 N 
ATOM     10  C   UNL     1       3.902   4.627  19.418  0.00  0.00    +0.000 C 
ATOM     11  O   UNL     1       3.977   5.481  20.301  0.00  0.00    +0.000 OA
ATOM     12  C   UNL     1       6.078   5.354  18.535  0.00  0.00    +0.000 C 
ATOM     13  C   UNL     1       6.056   6.391  17.410  0.00  0.00    +0.000 C 
ENDROOT
BRANCH  10  14
ATOM     14  C   UNL     1       2.654   3.820  19.375  0.00  0.00    +0.000 A 
ATOM     15  C   UNL     1       2.470   2.691  20.174  0.00  0.00    +0.000 A 
ATOM     16  C   UNL     1       1.273   1.998  20.091  0.00  0.00    +0.000 A 
ATOM     17  N   UNL     1       0.300   2.300  19.216  0.00  0.00    +0.000 NA
ATOM     18  C   UNL     1       0.532   3.349  18.390  0.00  0.00    +0.000 A 
ATOM     19  C   UNL     1       1.674   4.129  18.437  0.00  0.00    +0.000 A 
ATOM     20  F   UNL     1       1.794   5.156  17.583  0.00  0.00    +0.000 F 
ENDBRANCH  10  14
BRANCH   1  21
ATOM     21  O   UNL     1       5.857   3.261  13.646  0.00  0.00    +0.000 OA
BRANCH  21  23
ATOM     22  C   UNL     1       4.563   3.170  11.639  0.00  0.00    +0.000 C 
ATOM     23  C   UNL     1       5.949   3.371  12.224  0.00  0.00    +0.000 C 
ENDBRANCH  21  23
ENDBRANCH   1  21
TORSDOF 3
ENDMDL
