MODEL 1
REMARK VINA RESULT:      -7.1      0.000      0.000
REMARK  Name = 
REMARK  7 active torsions:
REMARK  status: ('A' for Active; 'I' for Inactive)
REMARK    1  A    between atoms: C_6  and  C_7
REMARK    2  A    between atoms: C_7  and  C_8
REMARK    3  A    between atoms: C_8  and  C_9
REMARK    4  A    between atoms: C_9  and  N_10
REMARK    5  A    between atoms: N_10  and  C_11
REMARK    6  A    between atoms: C_11  and  C_12
REMARK    7  A    between atoms: C_12  and  C_13
REMARK                            x       y       z     vdW  Elec       q    Type
REMARK                         _______ _______ _______ _____ _____    ______ ____
ROOT
ATOM      1  C   UNL     1       4.446   2.821  18.397  0.00  0.00    +0.000 C 
ENDROOT
BRANCH   1   2
ATOM      2  N   UNL     1       3.466   2.133  19.247  0.00  0.00    +0.000 NA
ATOM      3  H   UNL     1       2.552   2.191  18.793  0.00  0.00    +0.000 HD
BRANCH   2   4
ATOM      4  C   UNL     1       3.374   2.748  20.571  0.00  0.00    +0.000 C 
BRANCH   4   5
ATOM      5  C   UNL     1       1.924   3.103  20.883  0.00  0.00    +0.000 C 
BRANCH   5   6
ATOM      6  C   UNL     1       1.255   3.689  19.641  0.00  0.00    +0.000 C 
BRANCH   6  12
ATOM      7  F   UNL     1       1.915   8.242  21.270  0.00  0.00    +0.000 F 
ATOM      8  C   UNL     1       1.965   7.368  20.256  0.00  0.00    +0.000 A 
ATOM      9  C   UNL     1       2.367   7.800  18.998  0.00  0.00    +0.000 A 
ATOM     10  C   UNL     1       2.412   6.893  17.941  0.00  0.00    +0.000 A 
ATOM     11  C   UNL     1       2.057   5.560  18.153  0.00  0.00    +0.000 A 
ATOM     12  C   UNL     1       1.659   5.121  19.424  0.00  0.00    +0.000 A 
ATOM     13  C   UNL     1       1.609   6.042  20.479  0.00  0.00    +0.000 A 
ENDBRANCH   6  12
ENDBRANCH   5   6
ENDBRANCH   4   5
ENDBRANCH   2   4
ENDBRANCH   1   2
BRANCH   1  14
ATOM     14  C   UNL     1       5.134   4.002  19.098  0.00  0.00    +0.000 C 
BRANCH  14  15
ATOM     15  C   UNL     1       5.970   4.792  18.135  0.00  0.00    +0.000 A 
ATOM     16  C   UNL     1       6.688   5.894  18.548  0.00  0.00    +0.000 A 
ATOM     17  C   UNL     1       7.427   6.533  17.580  0.00  0.00    +0.000 A 
ATOM     18  N   UNL     1       7.471   6.140  16.293  0.00  0.00    +0.000 NA
ATOM     19  C   UNL     1       6.710   5.069  15.964  0.00  0.00    +0.000 A 
ATOM     20  N   UNL     1       6.717   4.638  14.607  0.00  0.00    +0.000 N 
ATOM     21  C   UNL     1       7.488   5.145  13.594  0.00  0.00    +0.000 A 
ATOM     22  N   UNL     1       7.226   4.530  12.462  0.00  0.00    +0.000 NA
ATOM     23  C   UNL     1       6.270   3.629  12.827  0.00  0.00    +0.000 A 
ATOM     24  N   UNL     1       5.933   3.633  14.118  0.00  0.00    +0.000 NA
ATOM     25  N   UNL     1       5.952   4.387  16.848  0.00  0.00    +0.000 NA
ENDBRANCH  14  15
ENDBRANCH   1  14
TORSDOF 7
ENDMDL
MODEL 2
REMARK VINA RESULT:      -7.0      4.401      7.567
REMARK  Name = 
REMARK  7 active torsions:
REMARK  status: ('A' for Active; 'I' for Inactive)
REMARK    1  A    between atoms: C_6  and  C_7
REMARK    2  A    between atoms: C_7  and  C_8
REMARK    3  A    between atoms: C_8  and  C_9
REMARK    4  A    between atoms: C_9  and  N_10
REMARK    5  A    between atoms: N_10  and  C_11
REMARK    6  A    between atoms: C_11  and  C_12
REMARK    7  A    between atoms: C_12  and  C_13
REMARK                            x       y       z     vdW  Elec       q    Type
REMARK                         _______ _______ _______ _____ _____    ______ ____
ROOT
ATOM      1  C   UNL     1       2.341   4.603  18.890  0.00  0.00    +0.000 C 
ENDROOT
BRANCH   1   2
ATOM      2  N   UNL     1       3.458   3.717  18.534  0.00  0.00    +0.000 NA
ATOM      3  H   UNL     1       4.328   4.163  18.833  0.00  0.00    +0.000 HD
BRANCH   2   4
ATOM      4  C   UNL     1       3.520   3.482  17.092  0.00  0.00    +0.000 C 
BRANCH   4   5
ATOM      5  C   UNL     1       4.908   3.834  16.564  0.00  0.00    +0.000 C 
BRANCH   5   6
ATOM      6  C   UNL     1       5.028   5.347  16.392  0.00  0.00    +0.000 C 
BRANCH   6  12
ATOM      7  F   UNL     1       8.228   8.871  17.471  0.00  0.00    +0.000 F 
ATOM      8  C   UNL     1       7.710   7.666  17.749  0.00  0.00    +0.000 A 
ATOM      9  C   UNL     1       8.217   6.932  18.814  0.00  0.00    +0.000 A 
ATOM     10  C   UNL     1       7.684   5.677  19.099  0.00  0.00    +0.000 A 
ATOM     11  C   UNL     1       6.646   5.167  18.317  0.00  0.00    +0.000 A 
ATOM     12  C   UNL     1       6.129   5.912  17.246  0.00  0.00    +0.000 A 
ATOM     13  C   UNL     1       6.677   7.169  16.962  0.00  0.00    +0.000 A 
ENDBRANCH   6  12
ENDBRANCH   5   6
ENDBRANCH   4   5
ENDBRANCH   2   4
ENDBRANCH   1   2
BRANCH   1  14
ATOM     14  C   UNL     1       2.692   5.608  19.997  0.00  0.00    +0.000 C 
BRANCH  14  15
ATOM     15  C   UNL     1       2.212   6.986  19.649  0.00  0.00    +0.000 A 
ATOM     16  C   UNL     1       2.491   7.553  18.424  0.00  0.00    +0.000 A 
ATOM     17  C   UNL     1       1.990   8.816  18.213  0.00  0.00    +0.000 A 
ATOM     18  N   UNL     1       1.267   9.494  19.124  0.00  0.00    +0.000 NA
ATOM     19  C   UNL     1       1.066   8.879  20.313  0.00  0.00    +0.000 A 
ATOM     20  N   UNL     1       0.323   9.577  21.307  0.00  0.00    +0.000 N 
ATOM     21  C   UNL     1      -0.296  10.791  21.162  0.00  0.00    +0.000 A 
ATOM     22  N   UNL     1      -0.873  11.152  22.286  0.00  0.00    +0.000 NA
ATOM     23  C   UNL     1      -0.585  10.111  23.117  0.00  0.00    +0.000 A 
ATOM     24  N   UNL     1       0.121   9.117  22.577  0.00  0.00    +0.000 NA
ATOM     25  N   UNL     1       1.527   7.645  20.607  0.00  0.00    +0.000 NA
ENDBRANCH  14  15
ENDBRANCH   1  14
TORSDOF 7
ENDMDL
MODEL 3
REMARK VINA RESULT:      -6.9      4.199      7.084
REMARK  Name = 
REMARK  7 active torsions:
REMARK  status: ('A' for Active; 'I' for Inactive)
REMARK    1  A    between atoms: C_6  and  C_7
REMARK    2  A    between atoms: C_7  and  C_8
REMARK    3  A    between atoms: C_8  and  C_9
REMARK    4  A    between atoms: C_9  and  N_10
REMARK    5  A    between atoms: N_10  and  C_11
REMARK    6  A    between atoms: C_11  and  C_12
REMARK    7  A    between atoms: C_12  and  C_13
REMARK                            x       y       z     vdW  Elec       q    Type
REMARK                         _______ _______ _______ _____ _____    ______ ____
ROOT
ATOM      1  C   UNL     1       1.541   4.217  20.059  0.00  0.00    +0.000 C 
ENDROOT
BRANCH   1   2
ATOM      2  N   UNL     1       1.303   3.872  18.651  0.00  0.00    +0.000 NA
ATOM      3  H   UNL     1       0.296   3.903  18.480  0.00  0.00    +0.000 HD
BRANCH   2   4
ATOM      4  C   UNL     1       1.793   2.531  18.335  0.00  0.00    +0.000 C 
BRANCH   4   5
ATOM      5  C   UNL     1       3.317   2.533  18.269  0.00  0.00    +0.000 C 
BRANCH   5   6
ATOM      6  C   UNL     1       3.779   3.207  16.978  0.00  0.00    +0.000 C 
BRANCH   6  12
ATOM      7  F   UNL     1       7.012   5.415  19.892  0.00  0.00    +0.000 F 
ATOM      8  C   UNL     1       6.357   5.380  18.723  0.00  0.00    +0.000 A 
ATOM      9  C   UNL     1       6.583   6.376  17.781  0.00  0.00    +0.000 A 
ATOM     10  C   UNL     1       5.898   6.344  16.569  0.00  0.00    +0.000 A 
ATOM     11  C   UNL     1       4.994   5.313  16.308  0.00  0.00    +0.000 A 
ATOM     12  C   UNL     1       4.772   4.303  17.255  0.00  0.00    +0.000 A 
ATOM     13  C   UNL     1       5.459   4.348  18.475  0.00  0.00    +0.000 A 
ENDBRANCH   6  12
ENDBRANCH   5   6
ENDBRANCH   4   5
ENDBRANCH   2   4
ENDBRANCH   1   2
BRANCH   1  14
ATOM     14  C   UNL     1       2.682   5.226  20.253  0.00  0.00    +0.000 C 
BRANCH  14  15
ATOM     15  C   UNL     1       2.270   6.601  19.816  0.00  0.00    +0.000 A 
ATOM     16  C   UNL     1       2.605   7.086  18.570  0.00  0.00    +0.000 A 
ATOM     17  C   UNL     1       2.163   8.354  18.274  0.00  0.00    +0.000 A 
ATOM     18  N   UNL     1       1.445   9.112  19.125  0.00  0.00    +0.000 NA
ATOM     19  C   UNL     1       1.188   8.573  20.340  0.00  0.00    +0.000 A 
ATOM     20  N   UNL     1       0.448   9.356  21.272  0.00  0.00    +0.000 N 
ATOM     21  C   UNL     1      -0.115  10.584  21.042  0.00  0.00    +0.000 A 
ATOM     22  N   UNL     1      -0.706  11.032  22.127  0.00  0.00    +0.000 NA
ATOM     23  C   UNL     1      -0.484  10.028  23.023  0.00  0.00    +0.000 A 
ATOM     24  N   UNL     1       0.193   8.977  22.560  0.00  0.00    +0.000 NA
ATOM     25  N   UNL     1       1.588   7.341  20.715  0.00  0.00    +0.000 NA
ENDBRANCH  14  15
ENDBRANCH   1  14
TORSDOF 7
ENDMDL
MODEL 4
REMARK VINA RESULT:      -6.9      4.296      7.323
REMARK  Name = 
REMARK  7 active torsions:
REMARK  status: ('A' for Active; 'I' for Inactive)
REMARK    1  A    between atoms: C_6  and  C_7
REMARK    2  A    between atoms: C_7  and  C_8
REMARK    3  A    between atoms: C_8  and  C_9
REMARK    4  A    between atoms: C_9  and  N_10
REMARK    5  A    between atoms: N_10  and  C_11
REMARK    6  A    between atoms: C_11  and  C_12
REMARK    7  A    between atoms: C_12  and  C_13
REMARK                            x       y       z     vdW  Elec       q    Type
REMARK                         _______ _______ _______ _____ _____    ______ ____
ROOT
ATOM      1  C   UNL     1       4.078   6.531  17.821  0.00  0.00    +0.000 C 
ENDROOT
BRANCH   1   2
ATOM      2  N   UNL     1       4.273   5.331  16.997  0.00  0.00    +0.000 NA
ATOM      3  H   UNL     1       3.457   4.726  17.114  0.00  0.00    +0.000 HD
BRANCH   2   4
ATOM      4  C   UNL     1       5.469   4.590  17.399  0.00  0.00    +0.000 C 
BRANCH   4   5
ATOM      5  C   UNL     1       5.312   4.079  18.828  0.00  0.00    +0.000 C 
BRANCH   5   6
ATOM      6  C   UNL     1       4.664   2.696  18.815  0.00  0.00    +0.000 C 
BRANCH   6  12
ATOM      7  F   UNL     1       1.210   3.020  22.248  0.00  0.00    +0.000 F 
ATOM      8  C   UNL     1       1.533   2.912  20.951  0.00  0.00    +0.000 A 
ATOM      9  C   UNL     1       0.525   2.834  19.999  0.00  0.00    +0.000 A 
ATOM     10  C   UNL     1       0.861   2.714  18.652  0.00  0.00    +0.000 A 
ATOM     11  C   UNL     1       2.203   2.675  18.269  0.00  0.00    +0.000 A 
ATOM     12  C   UNL     1       3.220   2.762  19.231  0.00  0.00    +0.000 A 
ATOM     13  C   UNL     1       2.874   2.874  20.583  0.00  0.00    +0.000 A 
ENDBRANCH   6  12
ENDBRANCH   5   6
ENDBRANCH   4   5
ENDBRANCH   2   4
ENDBRANCH   1   2
BRANCH   1  14
ATOM     14  C   UNL     1       2.804   6.479  18.678  0.00  0.00    +0.000 C 
BRANCH  14  15
ATOM     15  C   UNL     1       2.196   7.843  18.827  0.00  0.00    +0.000 A 
ATOM     16  C   UNL     1       2.205   8.748  17.787  0.00  0.00    +0.000 A 
ATOM     17  C   UNL     1       1.608   9.961  18.034  0.00  0.00    +0.000 A 
ATOM     18  N   UNL     1       1.040  10.288  19.210  0.00  0.00    +0.000 NA
ATOM     19  C   UNL     1       1.104   9.354  20.190  0.00  0.00    +0.000 A 
ATOM     20  N   UNL     1       0.531   9.675  21.454  0.00  0.00    +0.000 N 
ATOM     21  C   UNL     1      -0.166  10.811  21.769  0.00  0.00    +0.000 A 
ATOM     22  N   UNL     1      -0.534  10.792  23.031  0.00  0.00    +0.000 NA
ATOM     23  C   UNL     1      -0.038   9.599  23.467  0.00  0.00    +0.000 A 
ATOM     24  N   UNL     1       0.601   8.868  22.554  0.00  0.00    +0.000 NA
ATOM     25  N   UNL     1       1.675   8.142  20.035  0.00  0.00    +0.000 NA
ENDBRANCH  14  15
ENDBRANCH   1  14
TORSDOF 7
ENDMDL
MODEL 5
REMARK VINA RESULT:      -6.8      4.586      7.549
REMARK  Name = 
REMARK  7 active torsions:
REMARK  status: ('A' for Active; 'I' for Inactive)
REMARK    1  A    between atoms: C_6  and  C_7
REMARK    2  A    between atoms: C_7  and  C_8
REMARK    3  A    between atoms: C_8  and  C_9
REMARK    4  A    between atoms: C_9  and  N_10
REMARK    5  A    between atoms: N_10  and  C_11
REMARK    6  A    between atoms: C_11  and  C_12
REMARK    7  A    between atoms: C_12  and  C_13
REMARK                            x       y       z     vdW  Elec       q    Type
REMARK                         _______ _______ _______ _____ _____    ______ ____
ROOT
ATOM      1  C   UNL     1       1.837   5.033  20.133  0.00  0.00    +0.000 C 
ENDROOT
BRANCH   1   2
ATOM      2  N   UNL     1       1.758   3.885  19.220  0.00  0.00    +0.000 NA
ATOM      3  H   UNL     1       0.773   3.634  19.105  0.00  0.00    +0.000 HD
BRANCH   2   4
ATOM      4  C   UNL     1       2.479   2.726  19.747  0.00  0.00    +0.000 C 
BRANCH   4   5
ATOM      5  C   UNL     1       3.727   2.461  18.911  0.00  0.00    +0.000 C 
BRANCH   5   6
ATOM      6  C   UNL     1       3.587   3.135  17.546  0.00  0.00    +0.000 C 
BRANCH   6  12
ATOM      7  F   UNL     1       6.497   5.309  14.287  0.00  0.00    +0.000 F 
ATOM      8  C   UNL     1       6.242   4.988  15.563  0.00  0.00    +0.000 A 
ATOM      9  C   UNL     1       7.132   5.373  16.558  0.00  0.00    +0.000 A 
ATOM     10  C   UNL     1       6.870   5.033  17.884  0.00  0.00    +0.000 A 
ATOM     11  C   UNL     1       5.718   4.313  18.203  0.00  0.00    +0.000 A 
ATOM     12  C   UNL     1       4.815   3.931  17.199  0.00  0.00    +0.000 A 
ATOM     13  C   UNL     1       5.090   4.270  15.868  0.00  0.00    +0.000 A 
ENDBRANCH   6  12
ENDBRANCH   5   6
ENDBRANCH   4   5
ENDBRANCH   2   4
ENDBRANCH   1   2
BRANCH   1  14
ATOM     14  C   UNL     1       2.893   6.068  19.716  0.00  0.00    +0.000 C 
BRANCH  14  15
ATOM     15  C   UNL     1       2.263   7.399  19.429  0.00  0.00    +0.000 A 
ATOM     16  C   UNL     1       2.412   8.011  18.204  0.00  0.00    +0.000 A 
ATOM     17  C   UNL     1       1.781   9.223  18.051  0.00  0.00    +0.000 A 
ATOM     18  N   UNL     1       1.052   9.812  19.018  0.00  0.00    +0.000 NA
ATOM     19  C   UNL     1       0.983   9.160  20.202  0.00  0.00    +0.000 A 
ATOM     20  N   UNL     1       0.238   9.765  21.254  0.00  0.00    +0.000 N 
ATOM     21  C   UNL     1      -0.502  10.916  21.173  0.00  0.00    +0.000 A 
ATOM     22  N   UNL     1      -1.042  11.200  22.337  0.00  0.00    +0.000 NA
ATOM     23  C   UNL     1      -0.606  10.177  23.126  0.00  0.00    +0.000 A 
ATOM     24  N   UNL     1       0.158   9.266  22.523  0.00  0.00    +0.000 NA
ATOM     25  N   UNL     1       1.577   7.972  20.440  0.00  0.00    +0.000 NA
ENDBRANCH  14  15
ENDBRANCH   1  14
TORSDOF 7
ENDMDL
MODEL 6
REMARK VINA RESULT:      -6.8      5.223      8.262
REMARK  Name = 
REMARK  7 active torsions:
REMARK  status: ('A' for Active; 'I' for Inactive)
REMARK    1  A    between atoms: C_6  and  C_7
REMARK    2  A    between atoms: C_7  and  C_8
REMARK    3  A    between atoms: C_8  and  C_9
REMARK    4  A    between atoms: C_9  and  N_10
REMARK    5  A    between atoms: N_10  and  C_11
REMARK    6  A    between atoms: C_11  and  C_12
REMARK    7  A    between atoms: C_12  and  C_13
REMARK                            x       y       z     vdW  Elec       q    Type
REMARK                         _______ _______ _______ _____ _____    ______ ____
ROOT
ATOM      1  C   UNL     1       8.009   6.934  18.445  0.00  0.00    +0.000 C 
ENDROOT
BRANCH   1   2
ATOM      2  N   UNL     1       8.706   8.124  18.950  0.00  0.00    +0.000 NA
ATOM      3  H   UNL     1       8.407   8.285  19.914  0.00  0.00    +0.000 HD
BRANCH   2   4
ATOM      4  C   UNL     1       8.388   9.311  18.155  0.00  0.00    +0.000 C 
BRANCH   4   5
ATOM      5  C   UNL     1       9.247  10.488  18.607  0.00  0.00    +0.000 C 
BRANCH   5   6
ATOM      6  C   UNL     1       8.752  11.773  17.946  0.00  0.00    +0.000 C 
BRANCH   6  12
ATOM      7  F   UNL     1      10.501  16.329  18.007  0.00  0.00    +0.000 F 
ATOM      8  C   UNL     1      10.707  15.024  17.783  0.00  0.00    +0.000 A 
ATOM      9  C   UNL     1      11.954  14.592  17.348  0.00  0.00    +0.000 A 
ATOM     10  C   UNL     1      12.166  13.236  17.108  0.00  0.00    +0.000 A 
ATOM     11  C   UNL     1      11.129  12.323  17.308  0.00  0.00    +0.000 A 
ATOM     12  C   UNL     1       9.873  12.759  17.755  0.00  0.00    +0.000 A 
ATOM     13  C   UNL     1       9.666  14.125  17.986  0.00  0.00    +0.000 A 
ENDBRANCH   6  12
ENDBRANCH   5   6
ENDBRANCH   4   5
ENDBRANCH   2   4
ENDBRANCH   1   2
BRANCH   1  14
ATOM     14  C   UNL     1       7.126   7.220  17.222  0.00  0.00    +0.000 C 
BRANCH  14  15
ATOM     15  C   UNL     1       6.446   5.972  16.741  0.00  0.00    +0.000 A 
ATOM     16  C   UNL     1       7.020   5.170  15.778  0.00  0.00    +0.000 A 
ATOM     17  C   UNL     1       6.312   4.047  15.423  0.00  0.00    +0.000 A 
ATOM     18  N   UNL     1       5.122   3.714  15.960  0.00  0.00    +0.000 NA
ATOM     19  C   UNL     1       4.612   4.573  16.875  0.00  0.00    +0.000 A 
ATOM     20  N   UNL     1       3.345   4.263  17.446  0.00  0.00    +0.000 N 
ATOM     21  C   UNL     1       2.609   3.127  17.232  0.00  0.00    +0.000 A 
ATOM     22  N   UNL     1       1.479   3.177  17.901  0.00  0.00    +0.000 NA
ATOM     23  C   UNL     1       1.559   4.383  18.531  0.00  0.00    +0.000 A 
ATOM     24  N   UNL     1       2.674   5.080  18.311  0.00  0.00    +0.000 NA
ATOM     25  N   UNL     1       5.237   5.700  17.275  0.00  0.00    +0.000 NA
ENDBRANCH  14  15
ENDBRANCH   1  14
TORSDOF 7
ENDMDL
MODEL 7
REMARK VINA RESULT:      -6.8      4.305      7.326
REMARK  Name = 
REMARK  7 active torsions:
REMARK  status: ('A' for Active; 'I' for Inactive)
REMARK    1  A    between atoms: C_6  and  C_7
REMARK    2  A    between atoms: C_7  and  C_8
REMARK    3  A    between atoms: C_8  and  C_9
REMARK    4  A    between atoms: C_9  and  N_10
REMARK    5  A    between atoms: N_10  and  C_11
REMARK    6  A    between atoms: C_11  and  C_12
REMARK    7  A    between atoms: C_12  and  C_13
REMARK                            x       y       z     vdW  Elec       q    Type
REMARK                         _______ _______ _______ _____ _____    ______ ____
ROOT
ATOM      1  C   UNL     1       1.798   4.380  19.212  0.00  0.00    +0.000 C 
ENDROOT
BRANCH   1   2
ATOM      2  N   UNL     1       2.477   3.092  19.015  0.00  0.00    +0.000 NA
ATOM      3  H   UNL     1       2.555   2.629  19.922  0.00  0.00    +0.000 HD
BRANCH   2   4
ATOM      4  C   UNL     1       3.820   3.271  18.461  0.00  0.00    +0.000 C 
BRANCH   4   5
ATOM      5  C   UNL     1       3.733   3.885  17.067  0.00  0.00    +0.000 C 
BRANCH   5   6
ATOM      6  C   UNL     1       5.118   3.901  16.422  0.00  0.00    +0.000 C 
BRANCH   6  12
ATOM      7  F   UNL     1       8.588   5.368  19.524  0.00  0.00    +0.000 F 
ATOM      8  C   UNL     1       7.699   5.673  18.568  0.00  0.00    +0.000 A 
ATOM      9  C   UNL     1       7.571   6.992  18.149  0.00  0.00    +0.000 A 
ATOM     10  C   UNL     1       6.642   7.310  17.160  0.00  0.00    +0.000 A 
ATOM     11  C   UNL     1       5.852   6.307  16.597  0.00  0.00    +0.000 A 
ATOM     12  C   UNL     1       5.988   4.974  17.015  0.00  0.00    +0.000 A 
ATOM     13  C   UNL     1       6.918   4.664  18.015  0.00  0.00    +0.000 A 
ENDBRANCH   6  12
ENDBRANCH   5   6
ENDBRANCH   4   5
ENDBRANCH   2   4
ENDBRANCH   1   2
BRANCH   1  14
ATOM     14  C   UNL     1       2.652   5.408  19.968  0.00  0.00    +0.000 C 
BRANCH  14  15
ATOM     15  C   UNL     1       2.268   6.810  19.598  0.00  0.00    +0.000 A 
ATOM     16  C   UNL     1       2.612   7.347  18.376  0.00  0.00    +0.000 A 
ATOM     17  C   UNL     1       2.196   8.636  18.142  0.00  0.00    +0.000 A 
ATOM     18  N   UNL     1       1.494   9.367  19.029  0.00  0.00    +0.000 NA
ATOM     19  C   UNL     1       1.225   8.776  20.218  0.00  0.00    +0.000 A 
ATOM     20  N   UNL     1       0.502   9.528  21.188  0.00  0.00    +0.000 N 
ATOM     21  C   UNL     1      -0.036  10.776  21.017  0.00  0.00    +0.000 A 
ATOM     22  N   UNL     1      -0.618  11.183  22.123  0.00  0.00    +0.000 NA
ATOM     23  C   UNL     1      -0.416  10.133  22.969  0.00  0.00    +0.000 A 
ATOM     24  N   UNL     1       0.240   9.092  22.455  0.00  0.00    +0.000 NA
ATOM     25  N   UNL     1       1.601   7.519  20.533  0.00  0.00    +0.000 NA
ENDBRANCH  14  15
ENDBRANCH   1  14
TORSDOF 7
ENDMDL
MODEL 8
REMARK VINA RESULT:      -6.8      4.600      7.435
REMARK  Name = 
REMARK  7 active torsions:
REMARK  status: ('A' for Active; 'I' for Inactive)
REMARK    1  A    between atoms: C_6  and  C_7
REMARK    2  A    between atoms: C_7  and  C_8
REMARK    3  A    between atoms: C_8  and  C_9
REMARK    4  A    between atoms: C_9  and  N_10
REMARK    5  A    between atoms: N_10  and  C_11
REMARK    6  A    between atoms: C_11  and  C_12
REMARK    7  A    between atoms: C_12  and  C_13
REMARK                            x       y       z     vdW  Elec       q    Type
REMARK                         _______ _______ _______ _____ _____    ______ ____
ROOT
ATOM      1  C   UNL     1       2.477   5.831  20.034  0.00  0.00    +0.000 C 
ENDROOT
BRANCH   1   2
ATOM      2  N   UNL     1       1.212   5.096  20.168  0.00  0.00    +0.000 NA
ATOM      3  H   UNL     1       0.648   5.557  20.886  0.00  0.00    +0.000 HD
BRANCH   2   4
ATOM      4  C   UNL     1       1.436   3.706  20.566  0.00  0.00    +0.000 C 
BRANCH   4   5
ATOM      5  C   UNL     1       1.232   2.781  19.371  0.00  0.00    +0.000 C 
BRANCH   5   6
ATOM      6  C   UNL     1       2.518   2.004  19.092  0.00  0.00    +0.000 C 
BRANCH   6  12
ATOM      7  F   UNL     1       4.573   4.441  15.397  0.00  0.00    +0.000 F 
ATOM      8  C   UNL     1       4.592   4.086  16.689  0.00  0.00    +0.000 A 
ATOM      9  C   UNL     1       5.625   4.530  17.506  0.00  0.00    +0.000 A 
ATOM     10  C   UNL     1       5.649   4.155  18.848  0.00  0.00    +0.000 A 
ATOM     11  C   UNL     1       4.638   3.341  19.362  0.00  0.00    +0.000 A 
ATOM     12  C   UNL     1       3.592   2.900  18.539  0.00  0.00    +0.000 A 
ATOM     13  C   UNL     1       3.579   3.275  17.189  0.00  0.00    +0.000 A 
ENDBRANCH   6  12
ENDBRANCH   5   6
ENDBRANCH   4   5
ENDBRANCH   2   4
ENDBRANCH   1   2
BRANCH   1  14
ATOM     14  C   UNL     1       2.597   6.595  18.707  0.00  0.00    +0.000 C 
BRANCH  14  15
ATOM     15  C   UNL     1       2.096   8.003  18.845  0.00  0.00    +0.000 A 
ATOM     16  C   UNL     1       2.244   8.918  17.825  0.00  0.00    +0.000 A 
ATOM     17  C   UNL     1       1.737  10.174  18.059  0.00  0.00    +0.000 A 
ATOM     18  N   UNL     1       1.126  10.531  19.205  0.00  0.00    +0.000 NA
ATOM     19  C   UNL     1       1.052   9.582  20.169  0.00  0.00    +0.000 A 
ATOM     20  N   UNL     1       0.432   9.932  21.402  0.00  0.00    +0.000 N 
ATOM     21  C   UNL     1      -0.186  11.119  21.697  0.00  0.00    +0.000 A 
ATOM     22  N   UNL     1      -0.631  11.113  22.934  0.00  0.00    +0.000 NA
ATOM     23  C   UNL     1      -0.264   9.877  23.376  0.00  0.00    +0.000 A 
ATOM     24  N   UNL     1       0.367   9.107  22.489  0.00  0.00    +0.000 NA
ATOM     25  N   UNL     1       1.529   8.328  20.025  0.00  0.00    +0.000 NA
ENDBRANCH  14  15
ENDBRANCH   1  14
TORSDOF 7
ENDMDL
MODEL 9
REMARK VINA RESULT:      -6.7      4.471      7.298
REMARK  Name = 
REMARK  7 active torsions:
REMARK  status: ('A' for Active; 'I' for Inactive)
REMARK    1  A    between atoms: C_6  and  C_7
REMARK    2  A    between atoms: C_7  and  C_8
REMARK    3  A    between atoms: C_8  and  C_9
REMARK    4  A    between atoms: C_9  and  N_10
REMARK    5  A    between atoms: N_10  and  C_11
REMARK    6  A    between atoms: C_11  and  C_12
REMARK    7  A    between atoms: C_12  and  C_13
REMARK                            x       y       z     vdW  Elec       q    Type
REMARK                         _______ _______ _______ _____ _____    ______ ____
ROOT
ATOM      1  C   UNL     1       1.872   5.133  20.575  0.00  0.00    +0.000 C 
ENDROOT
BRANCH   1   2
ATOM      2  N   UNL     1       1.023   4.413  19.617  0.00  0.00    +0.000 NA
ATOM      3  H   UNL     1       0.060   4.733  19.739  0.00  0.00    +0.000 HD
BRANCH   2   4
ATOM      4  C   UNL     1       1.069   2.967  19.836  0.00  0.00    +0.000 C 
BRANCH   4   5
ATOM      5  C   UNL     1       2.475   2.547  20.256  0.00  0.00    +0.000 C 
BRANCH   5   6
ATOM      6  C   UNL     1       3.238   2.014  19.045  0.00  0.00    +0.000 C 
BRANCH   6  12
ATOM      7  F   UNL     1       6.885   5.252  19.235  0.00  0.00    +0.000 F 
ATOM      8  C   UNL     1       5.887   4.687  18.541  0.00  0.00    +0.000 A 
ATOM      9  C   UNL     1       5.624   5.118  17.247  0.00  0.00    +0.000 A 
ATOM     10  C   UNL     1       4.582   4.535  16.528  0.00  0.00    +0.000 A 
ATOM     11  C   UNL     1       3.813   3.526  17.110  0.00  0.00    +0.000 A 
ATOM     12  C   UNL     1       4.085   3.086  18.414  0.00  0.00    +0.000 A 
ATOM     13  C   UNL     1       5.129   3.682  19.132  0.00  0.00    +0.000 A 
ENDBRANCH   6  12
ENDBRANCH   5   6
ENDBRANCH   4   5
ENDBRANCH   2   4
ENDBRANCH   1   2
BRANCH   1  14
ATOM     14  C   UNL     1       2.859   6.101  19.905  0.00  0.00    +0.000 C 
BRANCH  14  15
ATOM     15  C   UNL     1       2.195   7.403  19.567  0.00  0.00    +0.000 A 
ATOM     16  C   UNL     1       2.322   7.967  18.316  0.00  0.00    +0.000 A 
ATOM     17  C   UNL     1       1.661   9.156  18.117  0.00  0.00    +0.000 A 
ATOM     18  N   UNL     1       0.924   9.768  19.064  0.00  0.00    +0.000 NA
ATOM     19  C   UNL     1       0.879   9.164  20.275  0.00  0.00    +0.000 A 
ATOM     20  N   UNL     1       0.126   9.796  21.306  0.00  0.00    +0.000 N 
ATOM     21  C   UNL     1      -0.642  10.924  21.182  0.00  0.00    +0.000 A 
ATOM     22  N   UNL     1      -1.182  11.244  22.337  0.00  0.00    +0.000 NA
ATOM     23  C   UNL     1      -0.717  10.266  23.165  0.00  0.00    +0.000 A 
ATOM     24  N   UNL     1       0.065   9.348  22.595  0.00  0.00    +0.000 NA
ATOM     25  N   UNL     1       1.502   8.002  20.558  0.00  0.00    +0.000 NA
ENDBRANCH  14  15
ENDBRANCH   1  14
TORSDOF 7
ENDMDL
