MODEL 1
REMARK VINA RESULT:      -8.7      0.000      0.000
REMARK  Name = 
REMARK  6 active torsions:
REMARK  status: ('A' for Active; 'I' for Inactive)
REMARK    1  A    between atoms: C_1  and  C_2
REMARK    2  A    between atoms: C_5  and  C_6
REMARK    3  A    between atoms: C_12  and  C_13
REMARK    4  A    between atoms: C_13  and  O_14
REMARK    5  A    between atoms: O_14  and  C_15
REMARK    6  A    between atoms: C_18  and  C_19
REMARK                            x       y       z     vdW  Elec       q    Type
REMARK                         _______ _______ _______ _____ _____    ______ ____
ROOT
ATOM      1  O   UNL     1       3.127   6.590  18.472  0.00  0.00    +0.000 OA
ENDROOT
BRANCH   1   2
ATOM      2  C   UNL     1       2.354   7.694  18.759  0.00  0.00    +0.000 A 
ATOM      3  C   UNL     1       2.086   8.574  17.723  0.00  0.00    +0.000 A 
ATOM      4  C   UNL     1       1.271   9.678  17.988  0.00  0.00    +0.000 A 
ATOM      5  C   UNL     1       0.736   9.842  19.270  0.00  0.00    +0.000 A 
ATOM      6  C   UNL     1       1.121   8.942  20.245  0.00  0.00    +0.000 A 
ATOM      7  N   UNL     1       1.890   7.856  20.015  0.00  0.00    +0.000 NA
BRANCH   5   8
ATOM      8  C   UNL     1      -0.125  11.002  19.577  0.00  0.00    +0.000 C 
ATOM      9  O   UNL     1      -1.338  10.796  19.596  0.00  0.00    +0.000 OA
ATOM     10  N   UNL     1       0.433  12.258  19.832  0.00  0.00    +0.000 N 
ATOM     11  C   UNL     1       1.857  12.580  20.011  0.00  0.00    +0.000 C 
ATOM     12  C   UNL     1       2.360  13.521  18.910  0.00  0.00    +0.000 C 
ATOM     13  S   UNL     1       1.485  15.123  18.962  0.00  0.00    +0.000 S 
ATOM     14  C   UNL     1      -0.229  14.486  18.940  0.00  0.00    +0.000 C 
ATOM     15  C   UNL     1      -0.470  13.405  19.997  0.00  0.00    +0.000 C 
ENDBRANCH   5   8
ENDBRANCH   1   2
BRANCH   1  16
ATOM     16  C   UNL     1       3.333   5.773  19.634  0.00  0.00    +0.000 C 
BRANCH  16  22
ATOM     17  C   UNL     1       1.154   3.480  20.727  0.00  0.00    +0.000 C 
ATOM     18  C   UNL     1       2.304   3.403  19.804  0.00  0.00    +0.000 A 
ATOM     19  O   UNL     1       2.573   2.183  19.281  0.00  0.00    +0.000 OA
ATOM     20  N   UNL     1       3.679   2.260  18.465  0.00  0.00    +0.000 NA
ATOM     21  C   UNL     1       4.091   3.540  18.497  0.00  0.00    +0.000 A 
ATOM     22  C   UNL     1       3.221   4.317  19.333  0.00  0.00    +0.000 A 
BRANCH  21  23
ATOM     23  C   UNL     1       5.284   3.976  17.755  0.00  0.00    +0.000 A 
ATOM     24  C   UNL     1       5.295   4.005  16.371  0.00  0.00    +0.000 A 
ATOM     25  C   UNL     1       6.468   4.409  15.780  0.00  0.00    +0.000 A 
ATOM     26  N   UNL     1       7.562   4.769  16.473  0.00  0.00    +0.000 NA
ATOM     27  C   UNL     1       7.449   4.712  17.806  0.00  0.00    +0.000 A 
ATOM     28  N   UNL     1       6.363   4.333  18.491  0.00  0.00    +0.000 NA
ENDBRANCH  21  23
ENDBRANCH  16  22
ENDBRANCH   1  16
TORSDOF 5
ENDMDL
MODEL 2
REMARK VINA RESULT:      -8.7      1.830      2.272
REMARK  Name = 
REMARK  6 active torsions:
REMARK  status: ('A' for Active; 'I' for Inactive)
REMARK    1  A    between atoms: C_1  and  C_2
REMARK    2  A    between atoms: C_5  and  C_6
REMARK    3  A    between atoms: C_12  and  C_13
REMARK    4  A    between atoms: C_13  and  O_14
REMARK    5  A    between atoms: O_14  and  C_15
REMARK    6  A    between atoms: C_18  and  C_19
REMARK                            x       y       z     vdW  Elec       q    Type
REMARK                         _______ _______ _______ _____ _____    ______ ____
ROOT
ATOM      1  O   UNL     1       3.234   6.421  18.585  0.00  0.00    +0.000 OA
ENDROOT
BRANCH   1   2
ATOM      2  C   UNL     1       2.503   7.574  18.777  0.00  0.00    +0.000 A 
ATOM      3  C   UNL     1       2.408   8.455  17.711  0.00  0.00    +0.000 A 
ATOM      4  C   UNL     1       1.638   9.609  17.876  0.00  0.00    +0.000 A 
ATOM      5  C   UNL     1       0.974   9.822  19.088  0.00  0.00    +0.000 A 
ATOM      6  C   UNL     1       1.191   8.914  20.106  0.00  0.00    +0.000 A 
ATOM      7  N   UNL     1       1.912   7.781  19.971  0.00  0.00    +0.000 NA
BRANCH   5   8
ATOM      8  C   UNL     1       0.157  11.037  19.289  0.00  0.00    +0.000 C 
ATOM      9  O   UNL     1       0.555  11.831  20.140  0.00  0.00    +0.000 OA
ATOM     10  N   UNL     1      -1.002  11.250  18.538  0.00  0.00    +0.000 N 
ATOM     11  C   UNL     1      -1.472  10.468  17.384  0.00  0.00    +0.000 C 
ATOM     12  C   UNL     1      -2.810   9.782  17.682  0.00  0.00    +0.000 C 
ATOM     13  S   UNL     1      -4.122  11.009  18.009  0.00  0.00    +0.000 S 
ATOM     14  C   UNL     1      -3.258  11.979  19.298  0.00  0.00    +0.000 C 
ATOM     15  C   UNL     1      -1.850  12.402  18.871  0.00  0.00    +0.000 C 
ENDBRANCH   5   8
ENDBRANCH   1   2
BRANCH   1  16
ATOM     16  C   UNL     1       3.182   5.566  19.737  0.00  0.00    +0.000 C 
BRANCH  16  22
ATOM     17  C   UNL     1       1.082   3.152  20.722  0.00  0.00    +0.000 C 
ATOM     18  C   UNL     1       2.234   3.157  19.799  0.00  0.00    +0.000 A 
ATOM     19  O   UNL     1       2.545   1.971  19.221  0.00  0.00    +0.000 OA
ATOM     20  N   UNL     1       3.648   2.123  18.412  0.00  0.00    +0.000 NA
ATOM     21  C   UNL     1       4.015   3.413  18.502  0.00  0.00    +0.000 A 
ATOM     22  C   UNL     1       3.119   4.122  19.371  0.00  0.00    +0.000 A 
BRANCH  21  23
ATOM     23  C   UNL     1       5.193   3.924  17.782  0.00  0.00    +0.000 A 
ATOM     24  C   UNL     1       5.201   4.021  16.402  0.00  0.00    +0.000 A 
ATOM     25  C   UNL     1       6.359   4.490  15.831  0.00  0.00    +0.000 A 
ATOM     26  N   UNL     1       7.443   4.850  16.541  0.00  0.00    +0.000 NA
ATOM     27  C   UNL     1       7.334   4.724  17.869  0.00  0.00    +0.000 A 
ATOM     28  N   UNL     1       6.262   4.278  18.535  0.00  0.00    +0.000 NA
ENDBRANCH  21  23
ENDBRANCH  16  22
ENDBRANCH   1  16
TORSDOF 5
ENDMDL
MODEL 3
REMARK VINA RESULT:      -8.6      0.673      1.052
REMARK  Name = 
REMARK  6 active torsions:
REMARK  status: ('A' for Active; 'I' for Inactive)
REMARK    1  A    between atoms: C_1  and  C_2
REMARK    2  A    between atoms: C_5  and  C_6
REMARK    3  A    between atoms: C_12  and  C_13
REMARK    4  A    between atoms: C_13  and  O_14
REMARK    5  A    between atoms: O_14  and  C_15
REMARK    6  A    between atoms: C_18  and  C_19
REMARK                            x       y       z     vdW  Elec       q    Type
REMARK                         _______ _______ _______ _____ _____    ______ ____
ROOT
ATOM      1  O   UNL     1       2.954   6.640  19.520  0.00  0.00    +0.000 OA
ENDROOT
BRANCH   1   2
ATOM      2  C   UNL     1       2.119   7.736  19.525  0.00  0.00    +0.000 A 
ATOM      3  C   UNL     1       1.451   8.025  20.705  0.00  0.00    +0.000 A 
ATOM      4  C   UNL     1       0.632   9.157  20.738  0.00  0.00    +0.000 A 
ATOM      5  C   UNL     1       0.534   9.966  19.602  0.00  0.00    +0.000 A 
ATOM      6  C   UNL     1       1.190   9.549  18.460  0.00  0.00    +0.000 A 
ATOM      7  N   UNL     1       2.004   8.473  18.402  0.00  0.00    +0.000 NA
BRANCH   5   8
ATOM      8  C   UNL     1      -0.329  11.166  19.610  0.00  0.00    +0.000 C 
ATOM      9  O   UNL     1      -1.510  10.994  19.309  0.00  0.00    +0.000 OA
ATOM     10  N   UNL     1       0.192  12.418  19.948  0.00  0.00    +0.000 N 
ATOM     11  C   UNL     1       1.528  12.709  20.491  0.00  0.00    +0.000 C 
ATOM     12  C   UNL     1       2.347  13.572  19.525  0.00  0.00    +0.000 C 
ATOM     13  S   UNL     1       1.559  15.198  19.262  0.00  0.00    +0.000 S 
ATOM     14  C   UNL     1      -0.112  14.609  18.806  0.00  0.00    +0.000 C 
ATOM     15  C   UNL     1      -0.673  13.596  19.808  0.00  0.00    +0.000 C 
ENDBRANCH   5   8
ENDBRANCH   1   2
BRANCH   1  16
ATOM     16  C   UNL     1       2.672   5.767  18.416  0.00  0.00    +0.000 C 
BRANCH  16  22
ATOM     17  C   UNL     1       0.828   3.578  20.151  0.00  0.00    +0.000 C 
ATOM     18  C   UNL     1       2.129   3.463  19.465  0.00  0.00    +0.000 A 
ATOM     19  O   UNL     1       2.738   2.254  19.533  0.00  0.00    +0.000 OA
ATOM     20  N   UNL     1       3.946   2.304  18.874  0.00  0.00    +0.000 NA
ATOM     21  C   UNL     1       4.076   3.557  18.405  0.00  0.00    +0.000 A 
ATOM     22  C   UNL     1       2.918   4.334  18.746  0.00  0.00    +0.000 A 
BRANCH  21  23
ATOM     23  C   UNL     1       5.280   3.977  17.670  0.00  0.00    +0.000 A 
ATOM     24  C   UNL     1       5.312   3.969  16.287  0.00  0.00    +0.000 A 
ATOM     25  C   UNL     1       6.493   4.360  15.703  0.00  0.00    +0.000 A 
ATOM     26  N   UNL     1       7.576   4.739  16.403  0.00  0.00    +0.000 NA
ATOM     27  C   UNL     1       7.443   4.716  17.735  0.00  0.00    +0.000 A 
ATOM     28  N   UNL     1       6.347   4.354  18.414  0.00  0.00    +0.000 NA
ENDBRANCH  21  23
ENDBRANCH  16  22
ENDBRANCH   1  16
TORSDOF 5
ENDMDL
MODEL 4
REMARK VINA RESULT:      -8.5      0.784      1.093
REMARK  Name = 
REMARK  6 active torsions:
REMARK  status: ('A' for Active; 'I' for Inactive)
REMARK    1  A    between atoms: C_1  and  C_2
REMARK    2  A    between atoms: C_5  and  C_6
REMARK    3  A    between atoms: C_12  and  C_13
REMARK    4  A    between atoms: C_13  and  O_14
REMARK    5  A    between atoms: O_14  and  C_15
REMARK    6  A    between atoms: C_18  and  C_19
REMARK                            x       y       z     vdW  Elec       q    Type
REMARK                         _______ _______ _______ _____ _____    ______ ____
ROOT
ATOM      1  O   UNL     1       3.216   6.562  18.625  0.00  0.00    +0.000 OA
ENDROOT
BRANCH   1   2
ATOM      2  C   UNL     1       2.408   7.658  18.835  0.00  0.00    +0.000 A 
ATOM      3  C   UNL     1       2.174   8.496  17.756  0.00  0.00    +0.000 A 
ATOM      4  C   UNL     1       1.325   9.590  17.942  0.00  0.00    +0.000 A 
ATOM      5  C   UNL     1       0.724   9.787  19.189  0.00  0.00    +0.000 A 
ATOM      6  C   UNL     1       1.078   8.930  20.214  0.00  0.00    +0.000 A 
ATOM      7  N   UNL     1       1.879   7.854  20.061  0.00  0.00    +0.000 NA
BRANCH   5   8
ATOM      8  C   UNL     1      -0.174  10.939  19.413  0.00  0.00    +0.000 C 
ATOM      9  O   UNL     1      -1.380  10.727  19.288  0.00  0.00    +0.000 OA
ATOM     10  N   UNL     1       0.342  12.193  19.750  0.00  0.00    +0.000 N 
ATOM     11  C   UNL     1       1.734  12.518  20.098  0.00  0.00    +0.000 C 
ATOM     12  C   UNL     1       2.355  13.479  19.077  0.00  0.00    +0.000 C 
ATOM     13  S   UNL     1       1.470  15.075  19.051  0.00  0.00    +0.000 S 
ATOM     14  C   UNL     1      -0.226  14.431  18.821  0.00  0.00    +0.000 C 
ATOM     15  C   UNL     1      -0.581  13.332  19.827  0.00  0.00    +0.000 C 
ENDBRANCH   5   8
ENDBRANCH   1   2
BRANCH   1  16
ATOM     16  C   UNL     1       2.451   5.350  18.546  0.00  0.00    +0.000 C 
BRANCH  16  22
ATOM     17  C   UNL     1       1.282   3.176  20.806  0.00  0.00    +0.000 C 
ATOM     18  C   UNL     1       2.601   3.333  20.162  0.00  0.00    +0.000 A 
ATOM     19  O   UNL     1       3.560   2.451  20.536  0.00  0.00    +0.000 OA
ATOM     20  N   UNL     1       4.734   2.734  19.876  0.00  0.00    +0.000 NA
ATOM     21  C   UNL     1       4.489   3.802  19.097  0.00  0.00    +0.000 A 
ATOM     22  C   UNL     1       3.120   4.209  19.235  0.00  0.00    +0.000 A 
BRANCH  21  23
ATOM     23  C   UNL     1       5.548   4.402  18.268  0.00  0.00    +0.000 A 
ATOM     24  C   UNL     1       6.484   5.261  18.815  0.00  0.00    +0.000 A 
ATOM     25  C   UNL     1       7.414   5.779  17.947  0.00  0.00    +0.000 A 
ATOM     26  N   UNL     1       7.449   5.488  16.636  0.00  0.00    +0.000 NA
ATOM     27  C   UNL     1       6.503   4.644  16.204  0.00  0.00    +0.000 A 
ATOM     28  N   UNL     1       5.547   4.080  16.952  0.00  0.00    +0.000 NA
ENDBRANCH  21  23
ENDBRANCH  16  22
ENDBRANCH   1  16
TORSDOF 5
ENDMDL
MODEL 5
REMARK VINA RESULT:      -8.5      2.072      2.602
REMARK  Name = 
REMARK  6 active torsions:
REMARK  status: ('A' for Active; 'I' for Inactive)
REMARK    1  A    between atoms: C_1  and  C_2
REMARK    2  A    between atoms: C_5  and  C_6
REMARK    3  A    between atoms: C_12  and  C_13
REMARK    4  A    between atoms: C_13  and  O_14
REMARK    5  A    between atoms: O_14  and  C_15
REMARK    6  A    between atoms: C_18  and  C_19
REMARK                            x       y       z     vdW  Elec       q    Type
REMARK                         _______ _______ _______ _____ _____    ______ ____
ROOT
ATOM      1  O   UNL     1       3.239   6.505  18.834  0.00  0.00    +0.000 OA
ENDROOT
BRANCH   1   2
ATOM      2  C   UNL     1       2.474   7.647  18.931  0.00  0.00    +0.000 A 
ATOM      3  C   UNL     1       2.445   8.491  17.831  0.00  0.00    +0.000 A 
ATOM      4  C   UNL     1       1.643   9.633  17.898  0.00  0.00    +0.000 A 
ATOM      5  C   UNL     1       0.884   9.871  19.048  0.00  0.00    +0.000 A 
ATOM      6  C   UNL     1       1.039   9.001  20.110  0.00  0.00    +0.000 A 
ATOM      7  N   UNL     1       1.789   7.880  20.069  0.00  0.00    +0.000 NA
BRANCH   5   8
ATOM      8  C   UNL     1       0.031  11.074  19.145  0.00  0.00    +0.000 C 
ATOM      9  O   UNL     1       0.402  11.949  19.927  0.00  0.00    +0.000 OA
ATOM     10  N   UNL     1      -1.131  11.190  18.378  0.00  0.00    +0.000 N 
ATOM     11  C   UNL     1      -1.574  10.300  17.293  0.00  0.00    +0.000 C 
ATOM     12  C   UNL     1      -2.892   9.603  17.645  0.00  0.00    +0.000 C 
ATOM     13  S   UNL     1      -4.240  10.814  17.866  0.00  0.00    +0.000 S 
ATOM     14  C   UNL     1      -3.410  11.913  19.071  0.00  0.00    +0.000 C 
ATOM     15  C   UNL     1      -2.013  12.340  18.612  0.00  0.00    +0.000 C 
ENDBRANCH   5   8
ENDBRANCH   1   2
BRANCH   1  16
ATOM     16  C   UNL     1       2.425   5.323  18.840  0.00  0.00    +0.000 C 
BRANCH  16  22
ATOM     17  C   UNL     1       1.343   3.051  21.047  0.00  0.00    +0.000 C 
ATOM     18  C   UNL     1       2.637   3.239  20.363  0.00  0.00    +0.000 A 
ATOM     19  O   UNL     1       3.611   2.346  20.663  0.00  0.00    +0.000 OA
ATOM     20  N   UNL     1       4.759   2.660  19.973  0.00  0.00    +0.000 NA
ATOM     21  C   UNL     1       4.484   3.759  19.249  0.00  0.00    +0.000 A 
ATOM     22  C   UNL     1       3.120   4.156  19.455  0.00  0.00    +0.000 A 
BRANCH  21  23
ATOM     23  C   UNL     1       5.510   4.396  18.408  0.00  0.00    +0.000 A 
ATOM     24  C   UNL     1       6.455   5.247  18.954  0.00  0.00    +0.000 A 
ATOM     25  C   UNL     1       7.353   5.803  18.075  0.00  0.00    +0.000 A 
ATOM     26  N   UNL     1       7.349   5.555  16.755  0.00  0.00    +0.000 NA
ATOM     27  C   UNL     1       6.398   4.715  16.325  0.00  0.00    +0.000 A 
ATOM     28  N   UNL     1       5.472   4.117  17.084  0.00  0.00    +0.000 NA
ENDBRANCH  21  23
ENDBRANCH  16  22
ENDBRANCH   1  16
TORSDOF 5
ENDMDL
MODEL 6
REMARK VINA RESULT:      -8.3      1.464      3.139
REMARK  Name = 
REMARK  6 active torsions:
REMARK  status: ('A' for Active; 'I' for Inactive)
REMARK    1  A    between atoms: C_1  and  C_2
REMARK    2  A    between atoms: C_5  and  C_6
REMARK    3  A    between atoms: C_12  and  C_13
REMARK    4  A    between atoms: C_13  and  O_14
REMARK    5  A    between atoms: O_14  and  C_15
REMARK    6  A    between atoms: C_18  and  C_19
REMARK                            x       y       z     vdW  Elec       q    Type
REMARK                         _______ _______ _______ _____ _____    ______ ____
ROOT
ATOM      1  O   UNL     1       3.289   6.626  18.676  0.00  0.00    +0.000 OA
ENDROOT
BRANCH   1   2
ATOM      2  C   UNL     1       2.461   7.713  18.852  0.00  0.00    +0.000 A 
ATOM      3  C   UNL     1       2.276   8.558  17.768  0.00  0.00    +0.000 A 
ATOM      4  C   UNL     1       1.408   9.642  17.918  0.00  0.00    +0.000 A 
ATOM      5  C   UNL     1       0.742   9.824  19.133  0.00  0.00    +0.000 A 
ATOM      6  C   UNL     1       1.050   8.962  20.169  0.00  0.00    +0.000 A 
ATOM      7  N   UNL     1       1.867   7.894  20.049  0.00  0.00    +0.000 NA
BRANCH   5   8
ATOM      8  C   UNL     1      -0.178  10.966  19.319  0.00  0.00    +0.000 C 
ATOM      9  O   UNL     1      -1.370  10.752  19.102  0.00  0.00    +0.000 OA
ATOM     10  N   UNL     1       0.306  12.214  19.722  0.00  0.00    +0.000 N 
ATOM     11  C   UNL     1       1.667  12.537  20.177  0.00  0.00    +0.000 C 
ATOM     12  C   UNL     1       2.354  13.524  19.227  0.00  0.00    +0.000 C 
ATOM     13  S   UNL     1       1.464  15.117  19.175  0.00  0.00    +0.000 S 
ATOM     14  C   UNL     1      -0.208  14.472  18.807  0.00  0.00    +0.000 C 
ATOM     15  C   UNL     1      -0.627  13.347  19.759  0.00  0.00    +0.000 C 
ENDBRANCH   5   8
ENDBRANCH   1   2
BRANCH   1  16
ATOM     16  C   UNL     1       4.254   6.860  17.640  0.00  0.00    +0.000 C 
BRANCH  16  22
ATOM     17  C   UNL     1       7.453   7.815  17.397  0.00  0.00    +0.000 C 
ATOM     18  C   UNL     1       6.820   6.528  17.747  0.00  0.00    +0.000 A 
ATOM     19  O   UNL     1       7.660   5.501  18.022  0.00  0.00    +0.000 OA
ATOM     20  N   UNL     1       6.933   4.367  18.303  0.00  0.00    +0.000 NA
ATOM     21  C   UNL     1       5.636   4.706  18.194  0.00  0.00    +0.000 A 
ATOM     22  C   UNL     1       5.517   6.096  17.856  0.00  0.00    +0.000 A 
BRANCH  21  23
ATOM     23  C   UNL     1       4.568   3.714  18.398  0.00  0.00    +0.000 A 
ATOM     24  C   UNL     1       3.759   3.310  17.351  0.00  0.00    +0.000 A 
ATOM     25  C   UNL     1       2.780   2.396  17.657  0.00  0.00    +0.000 A 
ATOM     26  N   UNL     1       2.591   1.896  18.890  0.00  0.00    +0.000 NA
ATOM     27  C   UNL     1       3.428   2.347  19.833  0.00  0.00    +0.000 A 
ATOM     28  N   UNL     1       4.414   3.235  19.655  0.00  0.00    +0.000 NA
ENDBRANCH  21  23
ENDBRANCH  16  22
ENDBRANCH   1  16
TORSDOF 5
ENDMDL
MODEL 7
REMARK VINA RESULT:      -8.1      1.898      2.508
REMARK  Name = 
REMARK  6 active torsions:
REMARK  status: ('A' for Active; 'I' for Inactive)
REMARK    1  A    between atoms: C_1  and  C_2
REMARK    2  A    between atoms: C_5  and  C_6
REMARK    3  A    between atoms: C_12  and  C_13
REMARK    4  A    between atoms: C_13  and  O_14
REMARK    5  A    between atoms: O_14  and  C_15
REMARK    6  A    between atoms: C_18  and  C_19
REMARK                            x       y       z     vdW  Elec       q    Type
REMARK                         _______ _______ _______ _____ _____    ______ ____
ROOT
ATOM      1  O   UNL     1       3.193   6.830  18.094  0.00  0.00    +0.000 OA
ENDROOT
BRANCH   1   2
ATOM      2  C   UNL     1       2.441   7.934  18.434  0.00  0.00    +0.000 A 
ATOM      3  C   UNL     1       1.815   7.925  19.670  0.00  0.00    +0.000 A 
ATOM      4  C   UNL     1       1.081   9.053  20.046  0.00  0.00    +0.000 A 
ATOM      5  C   UNL     1       1.026  10.153  19.184  0.00  0.00    +0.000 A 
ATOM      6  C   UNL     1       1.632  10.030  17.948  0.00  0.00    +0.000 A 
ATOM      7  N   UNL     1       2.363   8.962  17.564  0.00  0.00    +0.000 NA
BRANCH   5   8
ATOM      8  C   UNL     1       0.254  11.357  19.556  0.00  0.00    +0.000 C 
ATOM      9  O   UNL     1       0.714  12.044  20.467  0.00  0.00    +0.000 OA
ATOM     10  N   UNL     1      -0.932  11.678  18.891  0.00  0.00    +0.000 N 
ATOM     11  C   UNL     1      -1.478  11.038  17.684  0.00  0.00    +0.000 C 
ATOM     12  C   UNL     1      -2.819  10.355  17.971  0.00  0.00    +0.000 C 
ATOM     13  S   UNL     1      -4.079  11.568  18.494  0.00  0.00    +0.000 S 
ATOM     14  C   UNL     1      -3.129  12.370  19.836  0.00  0.00    +0.000 C 
ATOM     15  C   UNL     1      -1.731  12.805  19.389  0.00  0.00    +0.000 C 
ENDBRANCH   5   8
ENDBRANCH   1   2
BRANCH   1  16
ATOM     16  C   UNL     1       3.327   5.923  19.199  0.00  0.00    +0.000 C 
BRANCH  16  22
ATOM     17  C   UNL     1       0.906   3.766  20.028  0.00  0.00    +0.000 C 
ATOM     18  C   UNL     1       2.096   3.646  19.163  0.00  0.00    +0.000 A 
ATOM     19  O   UNL     1       2.292   2.440  18.576  0.00  0.00    +0.000 OA
ATOM     20  N   UNL     1       3.445   2.470  17.826  0.00  0.00    +0.000 NA
ATOM     21  C   UNL     1       3.960   3.705  17.961  0.00  0.00    +0.000 A 
ATOM     22  C   UNL     1       3.111   4.503  18.800  0.00  0.00    +0.000 A 
BRANCH  21  23
ATOM     23  C   UNL     1       5.226   4.080  17.312  0.00  0.00    +0.000 A 
ATOM     24  C   UNL     1       6.333   4.440  18.059  0.00  0.00    +0.000 A 
ATOM     25  C   UNL     1       7.457   4.792  17.351  0.00  0.00    +0.000 A 
ATOM     26  N   UNL     1       7.517   4.794  16.008  0.00  0.00    +0.000 NA
ATOM     27  C   UNL     1       6.395   4.426  15.377  0.00  0.00    +0.000 A 
ATOM     28  N   UNL     1       5.244   4.066  15.958  0.00  0.00    +0.000 NA
ENDBRANCH  21  23
ENDBRANCH  16  22
ENDBRANCH   1  16
TORSDOF 5
ENDMDL
MODEL 8
REMARK VINA RESULT:      -8.1      1.621      2.015
REMARK  Name = 
REMARK  6 active torsions:
REMARK  status: ('A' for Active; 'I' for Inactive)
REMARK    1  A    between atoms: C_1  and  C_2
REMARK    2  A    between atoms: C_5  and  C_6
REMARK    3  A    between atoms: C_12  and  C_13
REMARK    4  A    between atoms: C_13  and  O_14
REMARK    5  A    between atoms: O_14  and  C_15
REMARK    6  A    between atoms: C_18  and  C_19
REMARK                            x       y       z     vdW  Elec       q    Type
REMARK                         _______ _______ _______ _____ _____    ______ ____
ROOT
ATOM      1  O   UNL     1       2.408   6.918  18.181  0.00  0.00    +0.000 OA
ENDROOT
BRANCH   1   2
ATOM      2  C   UNL     1       1.953   8.097  18.730  0.00  0.00    +0.000 A 
ATOM      3  C   UNL     1       1.973   9.227  17.927  0.00  0.00    +0.000 A 
ATOM      4  C   UNL     1       1.477  10.421  18.456  0.00  0.00    +0.000 A 
ATOM      5  C   UNL     1       0.958  10.432  19.754  0.00  0.00    +0.000 A 
ATOM      6  C   UNL     1       1.047   9.266  20.491  0.00  0.00    +0.000 A 
ATOM      7  N   UNL     1       1.502   8.093  20.002  0.00  0.00    +0.000 NA
BRANCH   5   8
ATOM      8  C   UNL     1       0.431  11.683  20.339  0.00  0.00    +0.000 C 
ATOM      9  O   UNL     1       1.073  12.166  21.271  0.00  0.00    +0.000 OA
ATOM     10  N   UNL     1      -0.736  12.268  19.840  0.00  0.00    +0.000 N 
ATOM     11  C   UNL     1      -1.479  11.882  18.630  0.00  0.00    +0.000 C 
ATOM     12  C   UNL     1      -2.887  11.385  18.974  0.00  0.00    +0.000 C 
ATOM     13  S   UNL     1      -3.879  12.702  19.758  0.00  0.00    +0.000 S 
ATOM     14  C   UNL     1      -2.700  13.166  21.079  0.00  0.00    +0.000 C 
ATOM     15  C   UNL     1      -1.291  13.432  20.543  0.00  0.00    +0.000 C 
ENDBRANCH   5   8
ENDBRANCH   1   2
BRANCH   1  16
ATOM     16  C   UNL     1       3.381   6.284  19.025  0.00  0.00    +0.000 C 
BRANCH  16  22
ATOM     17  C   UNL     1       1.110   4.276  20.443  0.00  0.00    +0.000 C 
ATOM     18  C   UNL     1       2.302   4.006  19.616  0.00  0.00    +0.000 A 
ATOM     19  O   UNL     1       2.575   2.702  19.364  0.00  0.00    +0.000 OA
ATOM     20  N   UNL     1       3.721   2.605  18.608  0.00  0.00    +0.000 NA
ATOM     21  C   UNL     1       4.154   3.861  18.403  0.00  0.00    +0.000 A 
ATOM     22  C   UNL     1       3.257   4.798  19.018  0.00  0.00    +0.000 A 
BRANCH  21  23
ATOM     23  C   UNL     1       5.391   4.130  17.651  0.00  0.00    +0.000 A 
ATOM     24  C   UNL     1       5.415   4.068  16.269  0.00  0.00    +0.000 A 
ATOM     25  C   UNL     1       6.626   4.315  15.670  0.00  0.00    +0.000 A 
ATOM     26  N   UNL     1       7.745   4.611  16.353  0.00  0.00    +0.000 NA
ATOM     27  C   UNL     1       7.617   4.652  17.686  0.00  0.00    +0.000 A 
ATOM     28  N   UNL     1       6.494   4.427  18.378  0.00  0.00    +0.000 NA
ENDBRANCH  21  23
ENDBRANCH  16  22
ENDBRANCH   1  16
TORSDOF 5
ENDMDL
MODEL 9
REMARK VINA RESULT:      -8.1      1.849      2.210
REMARK  Name = 
REMARK  6 active torsions:
REMARK  status: ('A' for Active; 'I' for Inactive)
REMARK    1  A    between atoms: C_1  and  C_2
REMARK    2  A    between atoms: C_5  and  C_6
REMARK    3  A    between atoms: C_12  and  C_13
REMARK    4  A    between atoms: C_13  and  O_14
REMARK    5  A    between atoms: O_14  and  C_15
REMARK    6  A    between atoms: C_18  and  C_19
REMARK                            x       y       z     vdW  Elec       q    Type
REMARK                         _______ _______ _______ _____ _____    ______ ____
ROOT
ATOM      1  O   UNL     1       2.472   6.965  18.593  0.00  0.00    +0.000 OA
ENDROOT
BRANCH   1   2
ATOM      2  C   UNL     1       1.877   7.860  19.456  0.00  0.00    +0.000 A 
ATOM      3  C   UNL     1       1.529   9.102  18.949  0.00  0.00    +0.000 A 
ATOM      4  C   UNL     1       0.890  10.006  19.801  0.00  0.00    +0.000 A 
ATOM      5  C   UNL     1       0.601   9.624  21.114  0.00  0.00    +0.000 A 
ATOM      6  C   UNL     1       1.051   8.387  21.536  0.00  0.00    +0.000 A 
ATOM      7  N   UNL     1       1.653   7.485  20.732  0.00  0.00    +0.000 NA
BRANCH   5   8
ATOM      8  C   UNL     1      -0.071  10.563  22.037  0.00  0.00    +0.000 C 
ATOM      9  O   UNL     1       0.054  10.335  23.239  0.00  0.00    +0.000 OA
ATOM     10  N   UNL     1      -0.802  11.647  21.544  0.00  0.00    +0.000 N 
ATOM     11  C   UNL     1      -0.870  12.116  20.151  0.00  0.00    +0.000 C 
ATOM     12  C   UNL     1      -2.291  11.992  19.589  0.00  0.00    +0.000 C 
ATOM     13  S   UNL     1      -3.461  13.042  20.517  0.00  0.00    +0.000 S 
ATOM     14  C   UNL     1      -3.064  12.450  22.202  0.00  0.00    +0.000 C 
ATOM     15  C   UNL     1      -1.561  12.469  22.494  0.00  0.00    +0.000 C 
ENDBRANCH   5   8
ENDBRANCH   1   2
BRANCH   1  16
ATOM     16  C   UNL     1       3.382   6.094  19.280  0.00  0.00    +0.000 C 
BRANCH  16  22
ATOM     17  C   UNL     1       0.921   4.021  20.202  0.00  0.00    +0.000 C 
ATOM     18  C   UNL     1       2.117   3.836  19.357  0.00  0.00    +0.000 A 
ATOM     19  O   UNL     1       2.300   2.597  18.839  0.00  0.00    +0.000 OA
ATOM     20  N   UNL     1       3.461   2.569  18.099  0.00  0.00    +0.000 NA
ATOM     21  C   UNL     1       3.992   3.802  18.171  0.00  0.00    +0.000 A 
ATOM     22  C   UNL     1       3.148   4.657  18.957  0.00  0.00    +0.000 A 
BRANCH  21  23
ATOM     23  C   UNL     1       5.270   4.123  17.515  0.00  0.00    +0.000 A 
ATOM     24  C   UNL     1       5.375   4.159  16.136  0.00  0.00    +0.000 A 
ATOM     25  C   UNL     1       6.618   4.448  15.627  0.00  0.00    +0.000 A 
ATOM     26  N   UNL     1       7.694   4.693  16.395  0.00  0.00    +0.000 NA
ATOM     27  C   UNL     1       7.488   4.639  17.717  0.00  0.00    +0.000 A 
ATOM     28  N   UNL     1       6.327   4.366  18.325  0.00  0.00    +0.000 NA
ENDBRANCH  21  23
ENDBRANCH  16  22
ENDBRANCH   1  16
TORSDOF 5
ENDMDL
