MODEL 1
REMARK VINA RESULT:      -8.2      0.000      0.000
REMARK  Name = 
REMARK  3 active torsions:
REMARK  status: ('A' for Active; 'I' for Inactive)
REMARK    1  A    between atoms: C_1  and  O_2
REMARK    2  A    between atoms: O_2  and  C_3
REMARK    3  A    between atoms: C_8  and  C_9
REMARK                            x       y       z     vdW  Elec       q    Type
REMARK                         _______ _______ _______ _____ _____    ______ ____
ROOT
ATOM      1  C   UNL     1       6.603   5.030  15.177  0.00  0.00    +0.000 A 
ATOM      2  C   UNL     1       6.313   3.676  15.274  0.00  0.00    +0.000 A 
ATOM      3  C   UNL     1       5.236   3.245  16.058  0.00  0.00    +0.000 A 
ATOM      4  C   UNL     1       4.418   4.134  16.748  0.00  0.00    +0.000 A 
ATOM      5  N   UNL     1       3.381   3.678  17.485  0.00  0.00    +0.000 NA
ATOM      6  C   UNL     1       2.566   4.541  18.166  0.00  0.00    +0.000 A 
ATOM      7  C   UNL     1       2.792   5.912  18.065  0.00  0.00    +0.000 A 
ATOM      8  C   UNL     1       3.857   6.376  17.291  0.00  0.00    +0.000 A 
ATOM      9  C   UNL     1       4.712   5.496  16.632  0.00  0.00    +0.000 A 
ATOM     10  C   UNL     1       5.799   5.935  15.858  0.00  0.00    +0.000 A 
ATOM     11  C   UNL     1       3.949   7.866  17.247  0.00  0.00    +0.000 C 
ATOM     12  C   UNL     1       2.719   8.319  18.021  0.00  0.00    +0.000 C 
ATOM     13  C   UNL     1       2.079   7.083  18.673  0.00  0.00    +0.000 C 
ENDROOT
BRANCH   6  14
ATOM     14  C   UNL     1       1.393   3.859  18.869  0.00  0.00    +0.000 C 
ATOM     15  C   UNL     1       1.576   2.327  19.041  0.00  0.00    +0.000 C 
ATOM     16  C   UNL     1       2.655   1.971  20.065  0.00  0.00    +0.000 C 
ATOM     17  C   UNL     1       2.492   2.689  21.404  0.00  0.00    +0.000 C 
ATOM     18  C   UNL     1       2.041   4.144  21.310  0.00  0.00    +0.000 C 
ATOM     19  C   UNL     1       0.973   4.384  20.250  0.00  0.00    +0.000 C 
ENDBRANCH   6  14
BRANCH   1  21
ATOM     20  C   UNL     1       7.764   5.190  13.115  0.00  0.00    +0.000 C 
ATOM     21  O   UNL     1       7.615   5.606  14.460  0.00  0.00    +0.000 OA
ENDBRANCH   1  21
TORSDOF 2
ENDMDL
MODEL 2
REMARK VINA RESULT:      -7.7      3.280      6.695
REMARK  Name = 
REMARK  3 active torsions:
REMARK  status: ('A' for Active; 'I' for Inactive)
REMARK    1  A    between atoms: C_1  and  O_2
REMARK    2  A    between atoms: O_2  and  C_3
REMARK    3  A    between atoms: C_8  and  C_9
REMARK                            x       y       z     vdW  Elec       q    Type
REMARK                         _______ _______ _______ _____ _____    ______ ____
ROOT
ATOM      1  C   UNL     1       0.644   8.515  21.067  0.00  0.00    +0.000 A 
ATOM      2  C   UNL     1       1.007   9.294  19.978  0.00  0.00    +0.000 A 
ATOM      3  C   UNL     1       1.854   8.770  18.993  0.00  0.00    +0.000 A 
ATOM      4  C   UNL     1       2.347   7.471  19.054  0.00  0.00    +0.000 A 
ATOM      5  N   UNL     1       3.153   6.998  18.076  0.00  0.00    +0.000 NA
ATOM      6  C   UNL     1       3.642   5.721  18.121  0.00  0.00    +0.000 A 
ATOM      7  C   UNL     1       3.271   4.887  19.173  0.00  0.00    +0.000 A 
ATOM      8  C   UNL     1       2.427   5.378  20.172  0.00  0.00    +0.000 A 
ATOM      9  C   UNL     1       1.964   6.691  20.149  0.00  0.00    +0.000 A 
ATOM     10  C   UNL     1       1.125   7.213  21.147  0.00  0.00    +0.000 A 
ATOM     11  C   UNL     1       2.088   4.359  21.210  0.00  0.00    +0.000 C 
ATOM     12  C   UNL     1       2.747   3.090  20.688  0.00  0.00    +0.000 C 
ATOM     13  C   UNL     1       3.628   3.464  19.486  0.00  0.00    +0.000 C 
ENDROOT
BRANCH   6  14
ATOM     14  C   UNL     1       4.459   5.329  16.890  0.00  0.00    +0.000 C 
ATOM     15  C   UNL     1       5.163   6.529  16.202  0.00  0.00    +0.000 C 
ATOM     16  C   UNL     1       6.315   7.094  17.033  0.00  0.00    +0.000 C 
ATOM     17  C   UNL     1       7.308   6.035  17.508  0.00  0.00    +0.000 C 
ATOM     18  C   UNL     1       6.687   4.712  17.946  0.00  0.00    +0.000 C 
ATOM     19  C   UNL     1       5.541   4.252  17.053  0.00  0.00    +0.000 C 
ENDBRANCH   6  14
BRANCH   1  21
ATOM     20  C   UNL     1      -0.389  10.265  22.290  0.00  0.00    +0.000 C 
ATOM     21  O   UNL     1      -0.167   8.879  22.107  0.00  0.00    +0.000 OA
ENDBRANCH   1  21
TORSDOF 2
ENDMDL
MODEL 3
REMARK VINA RESULT:      -7.7      2.599      5.132
REMARK  Name = 
REMARK  3 active torsions:
REMARK  status: ('A' for Active; 'I' for Inactive)
REMARK    1  A    between atoms: C_1  and  O_2
REMARK    2  A    between atoms: O_2  and  C_3
REMARK    3  A    between atoms: C_8  and  C_9
REMARK                            x       y       z     vdW  Elec       q    Type
REMARK                         _______ _______ _______ _____ _____    ______ ____
ROOT
ATOM      1  C   UNL     1       1.680   9.710  18.749  0.00  0.00    +0.000 A 
ATOM      2  C   UNL     1       1.154   9.205  19.930  0.00  0.00    +0.000 A 
ATOM      3  C   UNL     1       1.439   7.889  20.318  0.00  0.00    +0.000 A 
ATOM      4  C   UNL     1       2.252   7.053  19.561  0.00  0.00    +0.000 A 
ATOM      5  N   UNL     1       2.512   5.792  19.976  0.00  0.00    +0.000 NA
ATOM      6  C   UNL     1       3.313   4.960  19.244  0.00  0.00    +0.000 A 
ATOM      7  C   UNL     1       3.898   5.435  18.072  0.00  0.00    +0.000 A 
ATOM      8  C   UNL     1       3.636   6.743  17.657  0.00  0.00    +0.000 A 
ATOM      9  C   UNL     1       2.787   7.576  18.380  0.00  0.00    +0.000 A 
ATOM     10  C   UNL     1       2.496   8.890  17.978  0.00  0.00    +0.000 A 
ATOM     11  C   UNL     1       4.363   7.121  16.408  0.00  0.00    +0.000 C 
ATOM     12  C   UNL     1       5.228   5.902  16.120  0.00  0.00    +0.000 C 
ATOM     13  C   UNL     1       4.812   4.778  17.081  0.00  0.00    +0.000 C 
ENDROOT
BRANCH   6  14
ATOM     14  C   UNL     1       3.570   3.607  19.908  0.00  0.00    +0.000 C 
ATOM     15  C   UNL     1       2.518   3.234  20.986  0.00  0.00    +0.000 C 
ATOM     16  C   UNL     1       1.150   2.904  20.388  0.00  0.00    +0.000 C 
ATOM     17  C   UNL     1       1.204   1.882  19.254  0.00  0.00    +0.000 C 
ATOM     18  C   UNL     1       2.388   2.031  18.303  0.00  0.00    +0.000 C 
ATOM     19  C   UNL     1       3.697   2.371  19.007  0.00  0.00    +0.000 C 
ENDBRANCH   6  14
BRANCH   1  21
ATOM     20  C   UNL     1       0.794  11.890  19.043  0.00  0.00    +0.000 C 
ATOM     21  O   UNL     1       1.495  10.963  18.234  0.00  0.00    +0.000 OA
ENDBRANCH   1  21
TORSDOF 2
ENDMDL
MODEL 4
REMARK VINA RESULT:      -7.5      1.273      1.681
REMARK  Name = 
REMARK  3 active torsions:
REMARK  status: ('A' for Active; 'I' for Inactive)
REMARK    1  A    between atoms: C_1  and  O_2
REMARK    2  A    between atoms: O_2  and  C_3
REMARK    3  A    between atoms: C_8  and  C_9
REMARK                            x       y       z     vdW  Elec       q    Type
REMARK                         _______ _______ _______ _____ _____    ______ ____
ROOT
ATOM      1  C   UNL     1       6.644   5.434  16.264  0.00  0.00    +0.000 A 
ATOM      2  C   UNL     1       6.748   4.271  17.015  0.00  0.00    +0.000 A 
ATOM      3  C   UNL     1       5.854   4.036  18.068  0.00  0.00    +0.000 A 
ATOM      4  C   UNL     1       4.839   4.930  18.393  0.00  0.00    +0.000 A 
ATOM      5  N   UNL     1       3.990   4.660  19.410  0.00  0.00    +0.000 NA
ATOM      6  C   UNL     1       2.984   5.528  19.738  0.00  0.00    +0.000 A 
ATOM      7  C   UNL     1       2.814   6.688  18.985  0.00  0.00    +0.000 A 
ATOM      8  C   UNL     1       3.687   6.953  17.927  0.00  0.00    +0.000 A 
ATOM      9  C   UNL     1       4.736   6.091  17.620  0.00  0.00    +0.000 A 
ATOM     10  C   UNL     1       5.636   6.340  16.571  0.00  0.00    +0.000 A 
ATOM     11  C   UNL     1       3.356   8.210  17.192  0.00  0.00    +0.000 C 
ATOM     12  C   UNL     1       2.069   8.679  17.855  0.00  0.00    +0.000 C 
ATOM     13  C   UNL     1       1.818   7.803  19.092  0.00  0.00    +0.000 C 
ENDROOT
BRANCH   6  14
ATOM     14  C   UNL     1       2.068   5.019  20.851  0.00  0.00    +0.000 C 
ATOM     15  C   UNL     1       0.679   4.545  20.344  0.00  0.00    +0.000 C 
ATOM     16  C   UNL     1       0.754   3.247  19.541  0.00  0.00    +0.000 C 
ATOM     17  C   UNL     1       1.525   2.132  20.244  0.00  0.00    +0.000 C 
ATOM     18  C   UNL     1       2.772   2.582  21.001  0.00  0.00    +0.000 C 
ATOM     19  C   UNL     1       2.586   3.893  21.756  0.00  0.00    +0.000 C 
ENDBRANCH   6  14
BRANCH   1  21
ATOM     20  C   UNL     1       7.310   5.059  14.019  0.00  0.00    +0.000 C 
ATOM     21  O   UNL     1       7.435   5.808  15.213  0.00  0.00    +0.000 OA
ENDBRANCH   1  21
TORSDOF 2
ENDMDL
MODEL 5
REMARK VINA RESULT:      -7.5      3.244      6.539
REMARK  Name = 
REMARK  3 active torsions:
REMARK  status: ('A' for Active; 'I' for Inactive)
REMARK    1  A    between atoms: C_1  and  O_2
REMARK    2  A    between atoms: O_2  and  C_3
REMARK    3  A    between atoms: C_8  and  C_9
REMARK                            x       y       z     vdW  Elec       q    Type
REMARK                         _______ _______ _______ _____ _____    ______ ____
ROOT
ATOM      1  C   UNL     1       0.650   9.822  19.764  0.00  0.00    +0.000 A 
ATOM      2  C   UNL     1       1.241  10.314  18.609  0.00  0.00    +0.000 A 
ATOM      3  C   UNL     1       2.161   9.528  17.903  0.00  0.00    +0.000 A 
ATOM      4  C   UNL     1       2.506   8.245  18.311  0.00  0.00    +0.000 A 
ATOM      5  N   UNL     1       3.391   7.514  17.596  0.00  0.00    +0.000 NA
ATOM      6  C   UNL     1       3.737   6.248  17.984  0.00  0.00    +0.000 A 
ATOM      7  C   UNL     1       3.139   5.695  19.113  0.00  0.00    +0.000 A 
ATOM      8  C   UNL     1       2.216   6.451  19.840  0.00  0.00    +0.000 A 
ATOM      9  C   UNL     1       1.895   7.755  19.470  0.00  0.00    +0.000 A 
ATOM     10  C   UNL     1       0.981   8.541  20.190  0.00  0.00    +0.000 A 
ATOM     11  C   UNL     1       1.632   5.713  21.000  0.00  0.00    +0.000 C 
ATOM     12  C   UNL     1       2.227   4.318  20.866  0.00  0.00    +0.000 C 
ATOM     13  C   UNL     1       3.302   4.356  19.769  0.00  0.00    +0.000 C 
ENDROOT
BRANCH   6  14
ATOM     14  C   UNL     1       4.676   5.538  17.008  0.00  0.00    +0.000 C 
ATOM     15  C   UNL     1       5.596   6.505  16.216  0.00  0.00    +0.000 C 
ATOM     16  C   UNL     1       6.671   7.150  17.092  0.00  0.00    +0.000 C 
ATOM     17  C   UNL     1       7.466   6.149  17.927  0.00  0.00    +0.000 C 
ATOM     18  C   UNL     1       6.650   5.002  18.518  0.00  0.00    +0.000 C 
ATOM     19  C   UNL     1       5.601   4.445  17.561  0.00  0.00    +0.000 C 
ENDBRANCH   6  14
BRANCH   1  21
ATOM     20  C   UNL     1      -0.993  11.519  19.974  0.00  0.00    +0.000 C 
ATOM     21  O   UNL     1      -0.258  10.462  20.562  0.00  0.00    +0.000 OA
ENDBRANCH   1  21
TORSDOF 2
ENDMDL
MODEL 6
REMARK VINA RESULT:      -7.3      1.760      2.058
REMARK  Name = 
REMARK  3 active torsions:
REMARK  status: ('A' for Active; 'I' for Inactive)
REMARK    1  A    between atoms: C_1  and  O_2
REMARK    2  A    between atoms: O_2  and  C_3
REMARK    3  A    between atoms: C_8  and  C_9
REMARK                            x       y       z     vdW  Elec       q    Type
REMARK                         _______ _______ _______ _____ _____    ______ ____
ROOT
ATOM      1  C   UNL     1       7.341   6.749  17.245  0.00  0.00    +0.000 A 
ATOM      2  C   UNL     1       7.609   5.392  17.359  0.00  0.00    +0.000 A 
ATOM      3  C   UNL     1       6.574   4.497  17.661  0.00  0.00    +0.000 A 
ATOM      4  C   UNL     1       5.261   4.916  17.844  0.00  0.00    +0.000 A 
ATOM      5  N   UNL     1       4.289   4.019  18.124  0.00  0.00    +0.000 NA
ATOM      6  C   UNL     1       2.992   4.416  18.303  0.00  0.00    +0.000 A 
ATOM      7  C   UNL     1       2.667   5.763  18.157  0.00  0.00    +0.000 A 
ATOM      8  C   UNL     1       3.674   6.682  17.855  0.00  0.00    +0.000 A 
ATOM      9  C   UNL     1       5.001   6.284  17.715  0.00  0.00    +0.000 A 
ATOM     10  C   UNL     1       6.035   7.189  17.424  0.00  0.00    +0.000 A 
ATOM     11  C   UNL     1       3.169   8.078  17.692  0.00  0.00    +0.000 C 
ATOM     12  C   UNL     1       1.660   7.925  17.825  0.00  0.00    +0.000 C 
ATOM     13  C   UNL     1       1.360   6.488  18.279  0.00  0.00    +0.000 C 
ENDROOT
BRANCH   6  14
ATOM     14  C   UNL     1       2.015   3.260  18.520  0.00  0.00    +0.000 C 
ATOM     15  C   UNL     1       2.682   1.982  19.095  0.00  0.00    +0.000 C 
ATOM     16  C   UNL     1       3.120   2.148  20.551  0.00  0.00    +0.000 C 
ATOM     17  C   UNL     1       2.023   2.690  21.465  0.00  0.00    +0.000 C 
ATOM     18  C   UNL     1       1.144   3.775  20.851  0.00  0.00    +0.000 C 
ATOM     19  C   UNL     1       0.779   3.513  19.394  0.00  0.00    +0.000 C 
ENDBRANCH   6  14
BRANCH   1  21
ATOM     20  C   UNL     1       8.205   8.888  17.791  0.00  0.00    +0.000 C 
ATOM     21  O   UNL     1       8.235   7.743  16.960  0.00  0.00    +0.000 OA
ENDBRANCH   1  21
TORSDOF 2
ENDMDL
MODEL 7
REMARK VINA RESULT:      -6.8      4.441      7.232
REMARK  Name = 
REMARK  3 active torsions:
REMARK  status: ('A' for Active; 'I' for Inactive)
REMARK    1  A    between atoms: C_1  and  O_2
REMARK    2  A    between atoms: O_2  and  C_3
REMARK    3  A    between atoms: C_8  and  C_9
REMARK                            x       y       z     vdW  Elec       q    Type
REMARK                         _______ _______ _______ _____ _____    ______ ____
ROOT
ATOM      1  C   UNL     1      -0.740  10.802  21.767  0.00  0.00    +0.000 A 
ATOM      2  C   UNL     1      -0.723   9.841  22.769  0.00  0.00    +0.000 A 
ATOM      3  C   UNL     1      -0.027   8.641  22.577  0.00  0.00    +0.000 A 
ATOM      4  C   UNL     1       0.673   8.369  21.406  0.00  0.00    +0.000 A 
ATOM      5  N   UNL     1       1.342   7.202  21.265  0.00  0.00    +0.000 NA
ATOM      6  C   UNL     1       2.039   6.923  20.121  0.00  0.00    +0.000 A 
ATOM      7  C   UNL     1       2.087   7.874  19.104  0.00  0.00    +0.000 A 
ATOM      8  C   UNL     1       1.405   9.082  19.263  0.00  0.00    +0.000 A 
ATOM      9  C   UNL     1       0.661   9.349  20.409  0.00  0.00    +0.000 A 
ATOM     10  C   UNL     1      -0.045  10.550  20.589  0.00  0.00    +0.000 A 
ATOM     11  C   UNL     1       1.580  10.014  18.109  0.00  0.00    +0.000 C 
ATOM     12  C   UNL     1       2.569   9.283  17.212  0.00  0.00    +0.000 C 
ATOM     13  C   UNL     1       2.762   7.863  17.765  0.00  0.00    +0.000 C 
ENDROOT
BRANCH   6  14
ATOM     14  C   UNL     1       2.808   5.603  20.172  0.00  0.00    +0.000 C 
ATOM     15  C   UNL     1       2.125   4.519  21.049  0.00  0.00    +0.000 C 
ATOM     16  C   UNL     1       0.839   3.976  20.424  0.00  0.00    +0.000 C 
ATOM     17  C   UNL     1       1.002   3.528  18.973  0.00  0.00    +0.000 C 
ATOM     18  C   UNL     1       1.899   4.417  18.116  0.00  0.00    +0.000 C 
ATOM     19  C   UNL     1       3.144   4.910  18.844  0.00  0.00    +0.000 C 
ENDBRANCH   6  14
BRANCH   1  21
ATOM     20  C   UNL     1      -2.437  12.157  22.718  0.00  0.00    +0.000 C 
ATOM     21  O   UNL     1      -1.370  12.015  21.799  0.00  0.00    +0.000 OA
ENDBRANCH   1  21
TORSDOF 2
ENDMDL
MODEL 8
REMARK VINA RESULT:      -6.7      2.634      5.823
REMARK  Name = 
REMARK  3 active torsions:
REMARK  status: ('A' for Active; 'I' for Inactive)
REMARK    1  A    between atoms: C_1  and  O_2
REMARK    2  A    between atoms: O_2  and  C_3
REMARK    3  A    between atoms: C_8  and  C_9
REMARK                            x       y       z     vdW  Elec       q    Type
REMARK                         _______ _______ _______ _____ _____    ______ ____
ROOT
ATOM      1  C   UNL     1       3.062   2.741  21.075  0.00  0.00    +0.000 A 
ATOM      2  C   UNL     1       4.172   2.181  20.459  0.00  0.00    +0.000 A 
ATOM      3  C   UNL     1       4.832   2.878  19.438  0.00  0.00    +0.000 A 
ATOM      4  C   UNL     1       4.422   4.137  19.015  0.00  0.00    +0.000 A 
ATOM      5  N   UNL     1       5.093   4.782  18.034  0.00  0.00    +0.000 NA
ATOM      6  C   UNL     1       4.703   6.023  17.611  0.00  0.00    +0.000 A 
ATOM      7  C   UNL     1       3.620   6.644  18.229  0.00  0.00    +0.000 A 
ATOM      8  C   UNL     1       2.940   5.978  19.251  0.00  0.00    +0.000 A 
ATOM      9  C   UNL     1       3.310   4.697  19.653  0.00  0.00    +0.000 A 
ATOM     10  C   UNL     1       2.636   3.999  20.668  0.00  0.00    +0.000 A 
ATOM     11  C   UNL     1       1.829   6.782  19.842  0.00  0.00    +0.000 C 
ATOM     12  C   UNL     1       1.947   8.123  19.130  0.00  0.00    +0.000 C 
ATOM     13  C   UNL     1       2.975   7.978  17.998  0.00  0.00    +0.000 C 
ENDROOT
BRANCH   6  14
ATOM     14  C   UNL     1       5.630   6.638  16.562  0.00  0.00    +0.000 C 
ATOM     15  C   UNL     1       7.118   6.232  16.732  0.00  0.00    +0.000 C 
ATOM     16  C   UNL     1       7.375   4.765  16.388  0.00  0.00    +0.000 C 
ATOM     17  C   UNL     1       6.812   4.343  15.032  0.00  0.00    +0.000 C 
ATOM     18  C   UNL     1       5.450   4.937  14.682  0.00  0.00    +0.000 C 
ATOM     19  C   UNL     1       5.302   6.401  15.081  0.00  0.00    +0.000 C 
ENDBRANCH   6  14
BRANCH   1  21
ATOM     20  C   UNL     1       0.966   2.615  22.177  0.00  0.00    +0.000 C 
ATOM     21  O   UNL     1       2.312   2.190  22.078  0.00  0.00    +0.000 OA
ENDBRANCH   1  21
TORSDOF 2
ENDMDL
MODEL 9
REMARK VINA RESULT:      -6.6      4.989      7.718
REMARK  Name = 
REMARK  3 active torsions:
REMARK  status: ('A' for Active; 'I' for Inactive)
REMARK    1  A    between atoms: C_1  and  O_2
REMARK    2  A    between atoms: O_2  and  C_3
REMARK    3  A    between atoms: C_8  and  C_9
REMARK                            x       y       z     vdW  Elec       q    Type
REMARK                         _______ _______ _______ _____ _____    ______ ____
ROOT
ATOM      1  C   UNL     1       2.588   6.871  19.434  0.00  0.00    +0.000 A 
ATOM      2  C   UNL     1       2.619   7.464  18.179  0.00  0.00    +0.000 A 
ATOM      3  C   UNL     1       1.912   8.650  17.946  0.00  0.00    +0.000 A 
ATOM      4  C   UNL     1       1.173   9.280  18.942  0.00  0.00    +0.000 A 
ATOM      5  N   UNL     1       0.513  10.431  18.680  0.00  0.00    +0.000 NA
ATOM      6  C   UNL     1      -0.214  11.064  19.651  0.00  0.00    +0.000 A 
ATOM      7  C   UNL     1      -0.241  10.530  20.938  0.00  0.00    +0.000 A 
ATOM      8  C   UNL     1       0.455   9.349  21.204  0.00  0.00    +0.000 A 
ATOM      9  C   UNL     1       1.160   8.681  20.206  0.00  0.00    +0.000 A 
ATOM     10  C   UNL     1       1.856   7.485  20.444  0.00  0.00    +0.000 A 
ATOM     11  C   UNL     1       0.365   8.921  22.633  0.00  0.00    +0.000 C 
ATOM     12  C   UNL     1      -0.405  10.056  23.293  0.00  0.00    +0.000 C 
ATOM     13  C   UNL     1      -0.925  10.991  22.190  0.00  0.00    +0.000 C 
ENDROOT
BRANCH   6  14
ATOM     14  C   UNL     1      -0.816  12.395  19.203  0.00  0.00    +0.000 C 
ATOM     15  C   UNL     1      -1.116  12.461  17.682  0.00  0.00    +0.000 C 
ATOM     16  C   UNL     1      -2.286  11.566  17.270  0.00  0.00    +0.000 C 
ATOM     17  C   UNL     1      -3.541  11.766  18.117  0.00  0.00    +0.000 C 
ATOM     18  C   UNL     1      -3.292  11.984  19.607  0.00  0.00    +0.000 C 
ATOM     19  C   UNL     1      -2.095  12.882  19.900  0.00  0.00    +0.000 C 
ENDBRANCH   6  14
BRANCH   1  21
ATOM     20  C   UNL     1       4.466   5.441  19.210  0.00  0.00    +0.000 C 
ATOM     21  O   UNL     1       3.218   5.720  19.817  0.00  0.00    +0.000 OA
ENDBRANCH   1  21
TORSDOF 2
ENDMDL
