MODEL 1
REMARK VINA RESULT:      -7.5      0.000      0.000
REMARK  Name = 
REMARK  10 active torsions:
REMARK  status: ('A' for Active; 'I' for Inactive)
REMARK    1  A    between atoms: C_1  and  C_2
REMARK    2  A    between atoms: C_2  and  O_3
REMARK    3  A    between atoms: O_3  and  C_4
REMARK    4  A    between atoms: C_7  and  N_8
REMARK    5  A    between atoms: C_9  and  C_11
REMARK    6  A    between atoms: C_11  and  C_12
REMARK    7  A    between atoms: C_11  and  N_14
REMARK    8  A    between atoms: C_12  and  C_13
REMARK    9  A    between atoms: C_15  and  C_16
REMARK   10  A    between atoms: C_21  and  C_22
REMARK                            x       y       z     vdW  Elec       q    Type
REMARK                         _______ _______ _______ _____ _____    ______ ____
ROOT
ATOM      1  C   UNL     1       2.467   4.291  19.587  0.00  0.00    +0.000 C 
ENDROOT
BRANCH   1   2
ATOM      2  N   UNL     1       3.625   4.282  18.598  0.00  0.00    +0.000 N 
ATOM      3  C   UNL     1       3.594   3.488  17.429  0.00  0.00    +0.000 A 
ATOM      4  C   UNL     1       2.372   2.669  17.073  0.00  0.00    +0.000 C 
ATOM      5  N   UNL     1       4.557   3.388  16.557  0.00  0.00    +0.000 NA
ATOM      6  C   UNL     1       5.680   4.057  16.867  0.00  0.00    +0.000 A 
ATOM      7  O   UNL     1       6.833   4.052  16.137  0.00  0.00    +0.000 OA
ATOM      8  N   UNL     1       7.822   4.754  16.822  0.00  0.00    +0.000 NA
ATOM      9  C   UNL     1       7.243   5.174  17.956  0.00  0.00    +0.000 A 
ATOM     10  C   UNL     1       8.029   5.879  18.994  0.00  0.00    +0.000 C 
ATOM     11  C   UNL     1       5.890   4.794  17.990  0.00  0.00    +0.000 A 
ATOM     12  C   UNL     1       4.828   4.951  18.933  0.00  0.00    +0.000 A 
ATOM     13  O   UNL     1       5.045   5.592  19.952  0.00  0.00    +0.000 OA
ENDBRANCH   1   2
BRANCH   1  15
ATOM     14  N   UNL     1       2.190   6.639  18.890  0.00  0.00    +0.000 N 
ATOM     15  C   UNL     1       2.061   5.739  19.945  0.00  0.00    +0.000 C 
ATOM     16  O   UNL     1       1.645   6.009  21.071  0.00  0.00    +0.000 OA
ATOM     17  H   UNL     1       2.332   6.274  17.952  0.00  0.00    +0.000 HD
BRANCH  14  21
ATOM     18  C   UNL     1       1.236  10.769  19.017  0.00  0.00    +0.000 A 
ATOM     19  C   UNL     1       0.964   9.935  20.103  0.00  0.00    +0.000 A 
ATOM     20  C   UNL     1       1.300   8.584  20.069  0.00  0.00    +0.000 A 
ATOM     21  C   UNL     1       1.914   8.027  18.957  0.00  0.00    +0.000 A 
ATOM     22  C   UNL     1       2.260   8.865  17.888  0.00  0.00    +0.000 A 
ATOM     23  C   UNL     1       1.909  10.232  17.913  0.00  0.00    +0.000 A 
BRANCH  18  24
ATOM     24  O   UNL     1       0.880  12.094  18.954  0.00  0.00    +0.000 OA
BRANCH  24  26
ATOM     25  C   UNL     1      -1.365  11.988  18.025  0.00  0.00    +0.000 C 
ATOM     26  C   UNL     1      -0.505  12.348  19.218  0.00  0.00    +0.000 C 
ENDBRANCH  24  26
ENDBRANCH  18  24
ENDBRANCH  14  21
ENDBRANCH   1  15
BRANCH   1  27
ATOM     27  C   UNL     1       2.722   3.563  20.939  0.00  0.00    +0.000 C 
ATOM     28  C   UNL     1       1.601   2.710  21.519  0.00  0.00    +0.000 C 
ENDBRANCH   1  27
TORSDOF 6
ENDMDL
MODEL 2
REMARK VINA RESULT:      -7.4      3.248      7.864
REMARK  Name = 
REMARK  10 active torsions:
REMARK  status: ('A' for Active; 'I' for Inactive)
REMARK    1  A    between atoms: C_1  and  C_2
REMARK    2  A    between atoms: C_2  and  O_3
REMARK    3  A    between atoms: O_3  and  C_4
REMARK    4  A    between atoms: C_7  and  N_8
REMARK    5  A    between atoms: C_9  and  C_11
REMARK    6  A    between atoms: C_11  and  C_12
REMARK    7  A    between atoms: C_11  and  N_14
REMARK    8  A    between atoms: C_12  and  C_13
REMARK    9  A    between atoms: C_15  and  C_16
REMARK   10  A    between atoms: C_21  and  C_22
REMARK                            x       y       z     vdW  Elec       q    Type
REMARK                         _______ _______ _______ _____ _____    ______ ____
ROOT
ATOM      1  C   UNL     1       5.362   6.703  17.695  0.00  0.00    +0.000 C 
ENDROOT
BRANCH   1   2
ATOM      2  N   UNL     1       4.298   5.876  18.406  0.00  0.00    +0.000 N 
ATOM      3  C   UNL     1       3.027   6.413  18.714  0.00  0.00    +0.000 A 
ATOM      4  C   UNL     1       2.644   7.812  18.282  0.00  0.00    +0.000 C 
ATOM      5  N   UNL     1       2.080   5.791  19.358  0.00  0.00    +0.000 NA
ATOM      6  C   UNL     1       2.402   4.568  19.807  0.00  0.00    +0.000 A 
ATOM      7  O   UNL     1       1.595   3.758  20.553  0.00  0.00    +0.000 OA
ATOM      8  N   UNL     1       2.302   2.623  20.940  0.00  0.00    +0.000 NA
ATOM      9  C   UNL     1       3.528   2.768  20.416  0.00  0.00    +0.000 A 
ATOM     10  C   UNL     1       4.599   1.787  20.706  0.00  0.00    +0.000 C 
ATOM     11  C   UNL     1       3.606   3.952  19.662  0.00  0.00    +0.000 A 
ATOM     12  C   UNL     1       4.640   4.601  18.918  0.00  0.00    +0.000 A 
ATOM     13  O   UNL     1       5.725   4.045  18.824  0.00  0.00    +0.000 OA
ENDBRANCH   1   2
BRANCH   1  15
ATOM     14  N   UNL     1       5.996   5.168  15.873  0.00  0.00    +0.000 N 
ATOM     15  C   UNL     1       5.388   6.382  16.183  0.00  0.00    +0.000 C 
ATOM     16  O   UNL     1       4.878   7.157  15.374  0.00  0.00    +0.000 OA
ATOM     17  H   UNL     1       6.186   4.512  16.625  0.00  0.00    +0.000 HD
BRANCH  14  21
ATOM     18  C   UNL     1       6.608   3.503  12.022  0.00  0.00    +0.000 A 
ATOM     19  C   UNL     1       5.399   3.327  12.697  0.00  0.00    +0.000 A 
ATOM     20  C   UNL     1       5.191   3.895  13.951  0.00  0.00    +0.000 A 
ATOM     21  C   UNL     1       6.177   4.651  14.567  0.00  0.00    +0.000 A 
ATOM     22  C   UNL     1       7.368   4.899  13.871  0.00  0.00    +0.000 A 
ATOM     23  C   UNL     1       7.588   4.314  12.606  0.00  0.00    +0.000 A 
BRANCH  18  24
ATOM     24  O   UNL     1       6.907   2.925  10.812  0.00  0.00    +0.000 OA
BRANCH  24  26
ATOM     25  C   UNL     1       6.251   0.590  10.996  0.00  0.00    +0.000 C 
ATOM     26  C   UNL     1       7.393   1.580  10.903  0.00  0.00    +0.000 C 
ENDBRANCH  24  26
ENDBRANCH  18  24
ENDBRANCH  14  21
ENDBRANCH   1  15
BRANCH   1  27
ATOM     27  C   UNL     1       6.820   6.518  18.205  0.00  0.00    +0.000 C 
ATOM     28  C   UNL     1       7.838   7.606  17.886  0.00  0.00    +0.000 C 
ENDBRANCH   1  27
TORSDOF 6
ENDMDL
MODEL 3
REMARK VINA RESULT:      -7.4      1.675      2.174
REMARK  Name = 
REMARK  10 active torsions:
REMARK  status: ('A' for Active; 'I' for Inactive)
REMARK    1  A    between atoms: C_1  and  C_2
REMARK    2  A    between atoms: C_2  and  O_3
REMARK    3  A    between atoms: O_3  and  C_4
REMARK    4  A    between atoms: C_7  and  N_8
REMARK    5  A    between atoms: C_9  and  C_11
REMARK    6  A    between atoms: C_11  and  C_12
REMARK    7  A    between atoms: C_11  and  N_14
REMARK    8  A    between atoms: C_12  and  C_13
REMARK    9  A    between atoms: C_15  and  C_16
REMARK   10  A    between atoms: C_21  and  C_22
REMARK                            x       y       z     vdW  Elec       q    Type
REMARK                         _______ _______ _______ _____ _____    ______ ____
ROOT
ATOM      1  C   UNL     1       2.393   4.978  19.522  0.00  0.00    +0.000 C 
ENDROOT
BRANCH   1   2
ATOM      2  N   UNL     1       3.556   4.746  18.567  0.00  0.00    +0.000 N 
ATOM      3  C   UNL     1       3.434   3.897  17.444  0.00  0.00    +0.000 A 
ATOM      4  C   UNL     1       2.114   3.239  17.102  0.00  0.00    +0.000 C 
ATOM      5  N   UNL     1       4.389   3.609  16.605  0.00  0.00    +0.000 NA
ATOM      6  C   UNL     1       5.590   4.128  16.907  0.00  0.00    +0.000 A 
ATOM      7  O   UNL     1       6.744   3.916  16.211  0.00  0.00    +0.000 OA
ATOM      8  N   UNL     1       7.810   4.511  16.881  0.00  0.00    +0.000 NA
ATOM      9  C   UNL     1       7.276   5.075  17.973  0.00  0.00    +0.000 A 
ATOM     10  C   UNL     1       8.136   5.723  18.991  0.00  0.00    +0.000 C 
ATOM     11  C   UNL     1       5.882   4.894  17.993  0.00  0.00    +0.000 A 
ATOM     12  C   UNL     1       4.836   5.257  18.896  0.00  0.00    +0.000 A 
ATOM     13  O   UNL     1       5.123   5.920  19.883  0.00  0.00    +0.000 OA
ENDBRANCH   1   2
BRANCH   1  15
ATOM     14  N   UNL     1       1.462   6.883  20.782  0.00  0.00    +0.000 N 
ATOM     15  C   UNL     1       2.009   6.475  19.567  0.00  0.00    +0.000 C 
ATOM     16  O   UNL     1       2.213   7.199  18.593  0.00  0.00    +0.000 OA
ATOM     17  H   UNL     1       1.539   6.263  21.583  0.00  0.00    +0.000 HD
BRANCH  14  21
ATOM     18  C   UNL     1       0.205  10.816  21.744  0.00  0.00    +0.000 A 
ATOM     19  C   UNL     1       0.844  10.542  20.535  0.00  0.00    +0.000 A 
ATOM     20  C   UNL     1       1.234   9.246  20.209  0.00  0.00    +0.000 A 
ATOM     21  C   UNL     1       1.001   8.189  21.077  0.00  0.00    +0.000 A 
ATOM     22  C   UNL     1       0.295   8.435  22.262  0.00  0.00    +0.000 A 
ATOM     23  C   UNL     1      -0.090   9.749  22.602  0.00  0.00    +0.000 A 
BRANCH  18  24
ATOM     24  O   UNL     1      -0.154  12.076  22.160  0.00  0.00    +0.000 OA
BRANCH  24  26
ATOM     25  C   UNL     1      -2.443  12.879  22.349  0.00  0.00    +0.000 C 
ATOM     26  C   UNL     1      -1.312  12.112  23.003  0.00  0.00    +0.000 C 
ENDBRANCH  24  26
ENDBRANCH  18  24
ENDBRANCH  14  21
ENDBRANCH   1  15
BRANCH   1  27
ATOM     27  C   UNL     1       2.629   4.545  20.998  0.00  0.00    +0.000 C 
ATOM     28  C   UNL     1       2.421   3.078  21.358  0.00  0.00    +0.000 C 
ENDBRANCH   1  27
TORSDOF 6
ENDMDL
MODEL 4
REMARK VINA RESULT:      -7.3      0.887      1.401
REMARK  Name = 
REMARK  10 active torsions:
REMARK  status: ('A' for Active; 'I' for Inactive)
REMARK    1  A    between atoms: C_1  and  C_2
REMARK    2  A    between atoms: C_2  and  O_3
REMARK    3  A    between atoms: O_3  and  C_4
REMARK    4  A    between atoms: C_7  and  N_8
REMARK    5  A    between atoms: C_9  and  C_11
REMARK    6  A    between atoms: C_11  and  C_12
REMARK    7  A    between atoms: C_11  and  N_14
REMARK    8  A    between atoms: C_12  and  C_13
REMARK    9  A    between atoms: C_15  and  C_16
REMARK   10  A    between atoms: C_21  and  C_22
REMARK                            x       y       z     vdW  Elec       q    Type
REMARK                         _______ _______ _______ _____ _____    ______ ____
ROOT
ATOM      1  C   UNL     1       2.407   4.477  19.660  0.00  0.00    +0.000 C 
ENDROOT
BRANCH   1   2
ATOM      2  N   UNL     1       3.547   4.427  18.651  0.00  0.00    +0.000 N 
ATOM      3  C   UNL     1       3.494   3.588  17.515  0.00  0.00    +0.000 A 
ATOM      4  C   UNL     1       2.264   2.759  17.213  0.00  0.00    +0.000 C 
ATOM      5  N   UNL     1       4.441   3.451  16.631  0.00  0.00    +0.000 NA
ATOM      6  C   UNL     1       5.571   4.128  16.895  0.00  0.00    +0.000 A 
ATOM      7  O   UNL     1       6.711   4.091  16.146  0.00  0.00    +0.000 OA
ATOM      8  N   UNL     1       7.713   4.817  16.785  0.00  0.00    +0.000 NA
ATOM      9  C   UNL     1       7.156   5.282  17.912  0.00  0.00    +0.000 A 
ATOM     10  C   UNL     1       7.961   6.025  18.908  0.00  0.00    +0.000 C 
ATOM     11  C   UNL     1       5.802   4.907  17.985  0.00  0.00    +0.000 A 
ATOM     12  C   UNL     1       4.757   5.105  18.940  0.00  0.00    +0.000 A 
ATOM     13  O   UNL     1       4.993   5.784  19.929  0.00  0.00    +0.000 OA
ENDBRANCH   1   2
BRANCH   1  15
ATOM     14  N   UNL     1       2.102   6.788  18.856  0.00  0.00    +0.000 N 
ATOM     15  C   UNL     1       1.999   5.939  19.956  0.00  0.00    +0.000 C 
ATOM     16  O   UNL     1       1.604   6.261  21.075  0.00  0.00    +0.000 OA
ATOM     17  H   UNL     1       2.228   6.379  17.934  0.00  0.00    +0.000 HD
BRANCH  14  21
ATOM     18  C   UNL     1       1.378  10.965  18.954  0.00  0.00    +0.000 A 
ATOM     19  C   UNL     1       2.015  10.372  17.863  0.00  0.00    +0.000 A 
ATOM     20  C   UNL     1       2.230   8.996  17.822  0.00  0.00    +0.000 A 
ATOM     21  C   UNL     1       1.819   8.176  18.862  0.00  0.00    +0.000 A 
ATOM     22  C   UNL     1       1.113   8.746  19.929  0.00  0.00    +0.000 A 
ATOM     23  C   UNL     1       0.905  10.140  19.982  0.00  0.00    +0.000 A 
BRANCH  18  24
ATOM     24  O   UNL     1       1.185  12.318  19.093  0.00  0.00    +0.000 OA
BRANCH  24  26
ATOM     25  C   UNL     1       2.589  14.077  18.170  0.00  0.00    +0.000 C 
ATOM     26  C   UNL     1       2.389  13.071  19.284  0.00  0.00    +0.000 C 
ENDBRANCH  24  26
ENDBRANCH  18  24
ENDBRANCH  14  21
ENDBRANCH   1  15
BRANCH   1  27
ATOM     27  C   UNL     1       2.689   3.816  21.039  0.00  0.00    +0.000 C 
ATOM     28  C   UNL     1       1.715   2.758  21.543  0.00  0.00    +0.000 C 
ENDBRANCH   1  27
TORSDOF 6
ENDMDL
MODEL 5
REMARK VINA RESULT:      -7.2      1.950      3.121
REMARK  Name = 
REMARK  10 active torsions:
REMARK  status: ('A' for Active; 'I' for Inactive)
REMARK    1  A    between atoms: C_1  and  C_2
REMARK    2  A    between atoms: C_2  and  O_3
REMARK    3  A    between atoms: O_3  and  C_4
REMARK    4  A    between atoms: C_7  and  N_8
REMARK    5  A    between atoms: C_9  and  C_11
REMARK    6  A    between atoms: C_11  and  C_12
REMARK    7  A    between atoms: C_11  and  N_14
REMARK    8  A    between atoms: C_12  and  C_13
REMARK    9  A    between atoms: C_15  and  C_16
REMARK   10  A    between atoms: C_21  and  C_22
REMARK                            x       y       z     vdW  Elec       q    Type
REMARK                         _______ _______ _______ _____ _____    ______ ____
ROOT
ATOM      1  C   UNL     1       4.085   3.880  18.302  0.00  0.00    +0.000 C 
ENDROOT
BRANCH   1   2
ATOM      2  N   UNL     1       5.194   4.245  17.323  0.00  0.00    +0.000 N 
ATOM      3  C   UNL     1       6.290   5.049  17.712  0.00  0.00    +0.000 A 
ATOM      4  C   UNL     1       6.446   5.519  19.142  0.00  0.00    +0.000 C 
ATOM      5  N   UNL     1       7.253   5.444  16.928  0.00  0.00    +0.000 NA
ATOM      6  C   UNL     1       7.120   5.094  15.639  0.00  0.00    +0.000 A 
ATOM      7  O   UNL     1       7.971   5.443  14.630  0.00  0.00    +0.000 OA
ATOM      8  N   UNL     1       7.454   5.009  13.412  0.00  0.00    +0.000 NA
ATOM      9  C   UNL     1       6.297   4.400  13.710  0.00  0.00    +0.000 A 
ATOM     10  C   UNL     1       5.408   3.892  12.640  0.00  0.00    +0.000 C 
ATOM     11  C   UNL     1       6.085   4.396  15.100  0.00  0.00    +0.000 A 
ATOM     12  C   UNL     1       5.044   3.915  15.954  0.00  0.00    +0.000 A 
ATOM     13  O   UNL     1       4.107   3.315  15.447  0.00  0.00    +0.000 OA
ENDBRANCH   1   2
BRANCH   1  15
ATOM     14  N   UNL     1       3.343   6.165  18.852  0.00  0.00    +0.000 N 
ATOM     15  C   UNL     1       2.968   4.948  18.289  0.00  0.00    +0.000 C 
ATOM     16  O   UNL     1       1.872   4.695  17.790  0.00  0.00    +0.000 OA
ATOM     17  H   UNL     1       4.328   6.336  19.034  0.00  0.00    +0.000 HD
BRANCH  14  21
ATOM     18  C   UNL     1       0.946   9.632  19.320  0.00  0.00    +0.000 A 
ATOM     19  C   UNL     1       1.499   9.304  18.083  0.00  0.00    +0.000 A 
ATOM     20  C   UNL     1       2.266   8.151  17.925  0.00  0.00    +0.000 A 
ATOM     21  C   UNL     1       2.503   7.298  18.992  0.00  0.00    +0.000 A 
ATOM     22  C   UNL     1       1.894   7.575  20.223  0.00  0.00    +0.000 A 
ATOM     23  C   UNL     1       1.128   8.748  20.391  0.00  0.00    +0.000 A 
BRANCH  18  24
ATOM     24  O   UNL     1       0.232  10.780  19.566  0.00  0.00    +0.000 OA
BRANCH  24  26
ATOM     25  C   UNL     1      -1.574  12.260  18.885  0.00  0.00    +0.000 C 
ATOM     26  C   UNL     1      -1.030  10.847  18.891  0.00  0.00    +0.000 C 
ENDBRANCH  24  26
ENDBRANCH  18  24
ENDBRANCH  14  21
ENDBRANCH   1  15
BRANCH   1  27
ATOM     27  C   UNL     1       4.517   3.718  19.788  0.00  0.00    +0.000 C 
ATOM     28  C   UNL     1       4.296   2.368  20.459  0.00  0.00    +0.000 C 
ENDBRANCH   1  27
TORSDOF 6
ENDMDL
MODEL 6
REMARK VINA RESULT:      -7.2      3.340      8.473
REMARK  Name = 
REMARK  10 active torsions:
REMARK  status: ('A' for Active; 'I' for Inactive)
REMARK    1  A    between atoms: C_1  and  C_2
REMARK    2  A    between atoms: C_2  and  O_3
REMARK    3  A    between atoms: O_3  and  C_4
REMARK    4  A    between atoms: C_7  and  N_8
REMARK    5  A    between atoms: C_9  and  C_11
REMARK    6  A    between atoms: C_11  and  C_12
REMARK    7  A    between atoms: C_11  and  N_14
REMARK    8  A    between atoms: C_12  and  C_13
REMARK    9  A    between atoms: C_15  and  C_16
REMARK   10  A    between atoms: C_21  and  C_22
REMARK                            x       y       z     vdW  Elec       q    Type
REMARK                         _______ _______ _______ _____ _____    ______ ____
ROOT
ATOM      1  C   UNL     1       0.016  10.324  19.874  0.00  0.00    +0.000 C 
ENDROOT
BRANCH   1   2
ATOM      2  N   UNL     1       0.624  11.646  20.324  0.00  0.00    +0.000 N 
ATOM      3  C   UNL     1       0.117  12.353  21.438  0.00  0.00    +0.000 A 
ATOM      4  C   UNL     1      -1.007  11.785  22.278  0.00  0.00    +0.000 C 
ATOM      5  N   UNL     1       0.547  13.508  21.861  0.00  0.00    +0.000 NA
ATOM      6  C   UNL     1       1.506  14.070  21.108  0.00  0.00    +0.000 A 
ATOM      7  O   UNL     1       2.066  15.297  21.321  0.00  0.00    +0.000 OA
ATOM      8  N   UNL     1       2.934  15.603  20.277  0.00  0.00    +0.000 NA
ATOM      9  C   UNL     1       2.884  14.549  19.449  0.00  0.00    +0.000 A 
ATOM     10  C   UNL     1       3.612  14.560  18.160  0.00  0.00    +0.000 C 
ATOM     11  C   UNL     1       2.036  13.554  19.967  0.00  0.00    +0.000 A 
ATOM     12  C   UNL     1       1.608  12.267  19.516  0.00  0.00    +0.000 A 
ATOM     13  O   UNL     1       2.073  11.832  18.472  0.00  0.00    +0.000 OA
ENDBRANCH   1   2
BRANCH   1  15
ATOM     14  N   UNL     1       1.526   8.666  18.849  0.00  0.00    +0.000 N 
ATOM     15  C   UNL     1       1.027   9.167  20.049  0.00  0.00    +0.000 C 
ATOM     16  O   UNL     1       1.342   8.782  21.174  0.00  0.00    +0.000 OA
ATOM     17  H   UNL     1       1.367   9.195  17.996  0.00  0.00    +0.000 HD
BRANCH  14  21
ATOM     18  C   UNL     1       4.362   5.527  18.557  0.00  0.00    +0.000 A 
ATOM     19  C   UNL     1       3.380   5.517  19.547  0.00  0.00    +0.000 A 
ATOM     20  C   UNL     1       2.434   6.536  19.627  0.00  0.00    +0.000 A 
ATOM     21  C   UNL     1       2.440   7.590  18.726  0.00  0.00    +0.000 A 
ATOM     22  C   UNL     1       3.373   7.577  17.681  0.00  0.00    +0.000 A 
ATOM     23  C   UNL     1       4.342   6.554  17.605  0.00  0.00    +0.000 A 
BRANCH  18  24
ATOM     24  O   UNL     1       5.362   4.591  18.452  0.00  0.00    +0.000 OA
BRANCH  24  26
ATOM     25  C   UNL     1       7.579   4.597  17.451  0.00  0.00    +0.000 C 
ATOM     26  C   UNL     1       6.687   5.128  18.554  0.00  0.00    +0.000 C 
ENDBRANCH  24  26
ENDBRANCH  18  24
ENDBRANCH  14  21
ENDBRANCH   1  15
BRANCH   1  27
ATOM     27  C   UNL     1      -0.462  10.265  18.395  0.00  0.00    +0.000 C 
ATOM     28  C   UNL     1      -1.962  10.233  18.125  0.00  0.00    +0.000 C 
ENDBRANCH   1  27
TORSDOF 6
ENDMDL
MODEL 7
REMARK VINA RESULT:      -7.0      3.351      8.552
REMARK  Name = 
REMARK  10 active torsions:
REMARK  status: ('A' for Active; 'I' for Inactive)
REMARK    1  A    between atoms: C_1  and  C_2
REMARK    2  A    between atoms: C_2  and  O_3
REMARK    3  A    between atoms: O_3  and  C_4
REMARK    4  A    between atoms: C_7  and  N_8
REMARK    5  A    between atoms: C_9  and  C_11
REMARK    6  A    between atoms: C_11  and  C_12
REMARK    7  A    between atoms: C_11  and  N_14
REMARK    8  A    between atoms: C_12  and  C_13
REMARK    9  A    between atoms: C_15  and  C_16
REMARK   10  A    between atoms: C_21  and  C_22
REMARK                            x       y       z     vdW  Elec       q    Type
REMARK                         _______ _______ _______ _____ _____    ______ ____
ROOT
ATOM      1  C   UNL     1      -0.041  10.253  20.026  0.00  0.00    +0.000 C 
ENDROOT
BRANCH   1   2
ATOM      2  N   UNL     1       0.538  11.598  20.449  0.00  0.00    +0.000 N 
ATOM      3  C   UNL     1       0.030  12.306  21.561  0.00  0.00    +0.000 A 
ATOM      4  C   UNL     1      -1.064  11.719  22.427  0.00  0.00    +0.000 C 
ATOM      5  N   UNL     1       0.435  13.478  21.961  0.00  0.00    +0.000 NA
ATOM      6  C   UNL     1       1.366  14.056  21.185  0.00  0.00    +0.000 A 
ATOM      7  O   UNL     1       1.895  15.300  21.372  0.00  0.00    +0.000 OA
ATOM      8  N   UNL     1       2.737  15.614  20.309  0.00  0.00    +0.000 NA
ATOM      9  C   UNL     1       2.703  14.548  19.497  0.00  0.00    +0.000 A 
ATOM     10  C   UNL     1       3.410  14.561  18.195  0.00  0.00    +0.000 C 
ATOM     11  C   UNL     1       1.891  13.538  20.042  0.00  0.00    +0.000 A 
ATOM     12  C   UNL     1       1.491  12.233  19.616  0.00  0.00    +0.000 A 
ATOM     13  O   UNL     1       1.951  11.797  18.570  0.00  0.00    +0.000 OA
ENDBRANCH   1   2
BRANCH   1  15
ATOM     14  N   UNL     1       1.470   8.697  18.855  0.00  0.00    +0.000 N 
ATOM     15  C   UNL     1       1.034   9.145  20.100  0.00  0.00    +0.000 C 
ATOM     16  O   UNL     1       1.448   8.751  21.189  0.00  0.00    +0.000 OA
ATOM     17  H   UNL     1       1.226   9.236  18.030  0.00  0.00    +0.000 HD
BRANCH  14  21
ATOM     18  C   UNL     1       4.226   5.558  18.128  0.00  0.00    +0.000 A 
ATOM     19  C   UNL     1       4.253   6.727  17.367  0.00  0.00    +0.000 A 
ATOM     20  C   UNL     1       3.362   7.767  17.624  0.00  0.00    +0.000 A 
ATOM     21  C   UNL     1       2.424   7.672  18.640  0.00  0.00    +0.000 A 
ATOM     22  C   UNL     1       2.434   6.536  19.460  0.00  0.00    +0.000 A 
ATOM     23  C   UNL     1       3.324   5.474  19.196  0.00  0.00    +0.000 A 
BRANCH  18  24
ATOM     24  O   UNL     1       5.030   4.468  17.897  0.00  0.00    +0.000 OA
BRANCH  24  26
ATOM     25  C   UNL     1       6.477   4.202  15.959  0.00  0.00    +0.000 C 
ATOM     26  C   UNL     1       5.081   4.050  16.527  0.00  0.00    +0.000 C 
ENDBRANCH  24  26
ENDBRANCH  18  24
ENDBRANCH  14  21
ENDBRANCH   1  15
BRANCH   1  27
ATOM     27  C   UNL     1      -0.635  10.190  18.590  0.00  0.00    +0.000 C 
ATOM     28  C   UNL     1      -1.938  10.932  18.317  0.00  0.00    +0.000 C 
ENDBRANCH   1  27
TORSDOF 6
ENDMDL
MODEL 8
REMARK VINA RESULT:      -7.0      1.300      1.761
REMARK  Name = 
REMARK  10 active torsions:
REMARK  status: ('A' for Active; 'I' for Inactive)
REMARK    1  A    between atoms: C_1  and  C_2
REMARK    2  A    between atoms: C_2  and  O_3
REMARK    3  A    between atoms: O_3  and  C_4
REMARK    4  A    between atoms: C_7  and  N_8
REMARK    5  A    between atoms: C_9  and  C_11
REMARK    6  A    between atoms: C_11  and  C_12
REMARK    7  A    between atoms: C_11  and  N_14
REMARK    8  A    between atoms: C_12  and  C_13
REMARK    9  A    between atoms: C_15  and  C_16
REMARK   10  A    between atoms: C_21  and  C_22
REMARK                            x       y       z     vdW  Elec       q    Type
REMARK                         _______ _______ _______ _____ _____    ______ ____
ROOT
ATOM      1  C   UNL     1       2.878   3.989  19.459  0.00  0.00    +0.000 C 
ENDROOT
BRANCH   1   2
ATOM      2  N   UNL     1       3.851   4.385  18.355  0.00  0.00    +0.000 N 
ATOM      3  C   UNL     1       3.760   3.834  17.057  0.00  0.00    +0.000 A 
ATOM      4  C   UNL     1       2.643   2.881  16.688  0.00  0.00    +0.000 C 
ATOM      5  N   UNL     1       4.576   4.083  16.072  0.00  0.00    +0.000 NA
ATOM      6  C   UNL     1       5.613   4.880  16.375  0.00  0.00    +0.000 A 
ATOM      7  O   UNL     1       6.621   5.229  15.525  0.00  0.00    +0.000 OA
ATOM      8  N   UNL     1       7.582   5.963  16.216  0.00  0.00    +0.000 NA
ATOM      9  C   UNL     1       7.132   6.045  17.476  0.00  0.00    +0.000 A 
ATOM     10  C   UNL     1       7.951   6.677  18.536  0.00  0.00    +0.000 C 
ATOM     11  C   UNL     1       5.880   5.418  17.596  0.00  0.00    +0.000 A 
ATOM     12  C   UNL     1       4.969   5.193  18.675  0.00  0.00    +0.000 A 
ATOM     13  O   UNL     1       5.241   5.659  19.772  0.00  0.00    +0.000 OA
ENDBRANCH   1   2
BRANCH   1  15
ATOM     14  N   UNL     1       2.159   6.347  19.418  0.00  0.00    +0.000 N 
ATOM     15  C   UNL     1       2.383   5.236  20.228  0.00  0.00    +0.000 C 
ATOM     16  O   UNL     1       2.199   5.185  21.443  0.00  0.00    +0.000 OA
ATOM     17  H   UNL     1       2.133   6.218  18.410  0.00  0.00    +0.000 HD
BRANCH  14  21
ATOM     18  C   UNL     1       1.019  10.183  20.820  0.00  0.00    +0.000 A 
ATOM     19  C   UNL     1       1.332   9.973  19.476  0.00  0.00    +0.000 A 
ATOM     20  C   UNL     1       1.683   8.707  19.013  0.00  0.00    +0.000 A 
ATOM     21  C   UNL     1       1.732   7.619  19.871  0.00  0.00    +0.000 A 
ATOM     22  C   UNL     1       1.349   7.799  21.207  0.00  0.00    +0.000 A 
ATOM     23  C   UNL     1       1.007   9.082  21.684  0.00  0.00    +0.000 A 
BRANCH  18  24
ATOM     24  O   UNL     1       0.724  11.411  21.361  0.00  0.00    +0.000 OA
BRANCH  24  26
ATOM     25  C   UNL     1      -1.654  11.883  21.163  0.00  0.00    +0.000 C 
ATOM     26  C   UNL     1      -0.518  11.461  22.072  0.00  0.00    +0.000 C 
ENDBRANCH  24  26
ENDBRANCH  18  24
ENDBRANCH  14  21
ENDBRANCH   1  15
BRANCH   1  27
ATOM     27  C   UNL     1       3.431   3.007  20.531  0.00  0.00    +0.000 C 
ATOM     28  C   UNL     1       4.508   2.014  20.110  0.00  0.00    +0.000 C 
ENDBRANCH   1  27
TORSDOF 6
ENDMDL
MODEL 9
REMARK VINA RESULT:      -7.0      1.567      1.819
REMARK  Name = 
REMARK  10 active torsions:
REMARK  status: ('A' for Active; 'I' for Inactive)
REMARK    1  A    between atoms: C_1  and  C_2
REMARK    2  A    between atoms: C_2  and  O_3
REMARK    3  A    between atoms: O_3  and  C_4
REMARK    4  A    between atoms: C_7  and  N_8
REMARK    5  A    between atoms: C_9  and  C_11
REMARK    6  A    between atoms: C_11  and  C_12
REMARK    7  A    between atoms: C_11  and  N_14
REMARK    8  A    between atoms: C_12  and  C_13
REMARK    9  A    between atoms: C_15  and  C_16
REMARK   10  A    between atoms: C_21  and  C_22
REMARK                            x       y       z     vdW  Elec       q    Type
REMARK                         _______ _______ _______ _____ _____    ______ ____
ROOT
ATOM      1  C   UNL     1       2.478   4.813  19.214  0.00  0.00    +0.000 C 
ENDROOT
BRANCH   1   2
ATOM      2  N   UNL     1       3.584   4.616  18.185  0.00  0.00    +0.000 N 
ATOM      3  C   UNL     1       3.667   3.441  17.404  0.00  0.00    +0.000 A 
ATOM      4  C   UNL     1       2.612   2.360  17.505  0.00  0.00    +0.000 C 
ATOM      5  N   UNL     1       4.603   3.173  16.538  0.00  0.00    +0.000 NA
ATOM      6  C   UNL     1       5.587   4.083  16.461  0.00  0.00    +0.000 A 
ATOM      7  O   UNL     1       6.696   3.988  15.672  0.00  0.00    +0.000 OA
ATOM      8  N   UNL     1       7.555   5.051  15.942  0.00  0.00    +0.000 NA
ATOM      9  C   UNL     1       6.944   5.773  16.892  0.00  0.00    +0.000 A 
ATOM     10  C   UNL     1       7.614   6.941  17.509  0.00  0.00    +0.000 C 
ATOM     11  C   UNL     1       5.689   5.219  17.204  0.00  0.00    +0.000 A 
ATOM     12  C   UNL     1       4.647   5.550  18.124  0.00  0.00    +0.000 A 
ATOM     13  O   UNL     1       4.771   6.558  18.805  0.00  0.00    +0.000 OA
ENDBRANCH   1   2
BRANCH   1  15
ATOM     14  N   UNL     1       1.934   6.904  20.402  0.00  0.00    +0.000 N 
ATOM     15  C   UNL     1       1.936   6.261  19.166  0.00  0.00    +0.000 C 
ATOM     16  O   UNL     1       1.575   6.755  18.099  0.00  0.00    +0.000 OA
ATOM     17  H   UNL     1       2.450   6.486  21.170  0.00  0.00    +0.000 HD
BRANCH  14  21
ATOM     18  C   UNL     1       0.391  10.795  21.081  0.00  0.00    +0.000 A 
ATOM     19  C   UNL     1       0.567   9.899  22.135  0.00  0.00    +0.000 A 
ATOM     20  C   UNL     1       1.097   8.630  21.914  0.00  0.00    +0.000 A 
ATOM     21  C   UNL     1       1.464   8.219  20.641  0.00  0.00    +0.000 A 
ATOM     22  C   UNL     1       1.362   9.133  19.584  0.00  0.00    +0.000 A 
ATOM     23  C   UNL     1       0.813  10.415  19.801  0.00  0.00    +0.000 A 
BRANCH  18  24
ATOM     24  O   UNL     1      -0.180  12.038  21.212  0.00  0.00    +0.000 OA
BRANCH  24  26
ATOM     25  C   UNL     1      -1.706  12.611  23.018  0.00  0.00    +0.000 C 
ATOM     26  C   UNL     1      -1.549  12.019  21.632  0.00  0.00    +0.000 C 
ENDBRANCH  24  26
ENDBRANCH  18  24
ENDBRANCH  14  21
ENDBRANCH   1  15
BRANCH   1  27
ATOM     27  C   UNL     1       2.870   4.543  20.695  0.00  0.00    +0.000 C 
ATOM     28  C   UNL     1       2.226   3.359  21.405  0.00  0.00    +0.000 C 
ENDBRANCH   1  27
TORSDOF 6
ENDMDL
