MODEL 1
REMARK VINA RESULT:      -8.9      0.000      0.000
REMARK  Name = 
REMARK  7 active torsions:
REMARK  status: ('A' for Active; 'I' for Inactive)
REMARK    1  A    between atoms: C_1  and  O_2
REMARK    2  A    between atoms: O_2  and  C_3
REMARK    3  A    between atoms: C_6  and  C_7
REMARK    4  A    between atoms: N_9  and  C_10
REMARK    5  A    between atoms: N_9  and  C_22
REMARK    6  A    between atoms: C_10  and  C_11
REMARK    7  A    between atoms: C_14  and  C_15
REMARK                            x       y       z     vdW  Elec       q    Type
REMARK                         _______ _______ _______ _____ _____    ______ ____
ROOT
ATOM      1  C   UNL     1       5.054   4.656  17.345  0.00  0.00    +0.000 C 
ATOM      2  O   UNL     1       5.232   3.993  16.320  0.00  0.00    +0.000 OA
ATOM      3  N   UNL     1       3.841   4.580  18.046  0.00  0.00    +0.000 N 
ENDROOT
BRANCH   1   7
ATOM      4  C   UNL     1       8.111   7.513  18.378  0.00  0.00    +0.000 A 
ATOM      5  C   UNL     1       8.087   6.291  19.049  0.00  0.00    +0.000 A 
ATOM      6  C   UNL     1       7.142   5.304  18.720  0.00  0.00    +0.000 A 
ATOM      7  C   UNL     1       6.252   5.488  17.664  0.00  0.00    +0.000 A 
ATOM      8  C   UNL     1       6.329   6.713  16.963  0.00  0.00    +0.000 A 
ATOM      9  C   UNL     1       7.224   7.719  17.329  0.00  0.00    +0.000 A 
BRANCH   4  11
ATOM     10  C   UNL     1       8.440   9.860  18.223  0.00  0.00    +0.000 C 
ATOM     11  O   UNL     1       8.889   8.593  18.682  0.00  0.00    +0.000 OA
ENDBRANCH   4  11
ENDBRANCH   1   7
BRANCH   3  12
ATOM     12  C   UNL     1       2.720   3.750  17.495  0.00  0.00    +0.000 C 
ATOM     13  C   UNL     1       2.948   2.229  17.564  0.00  0.00    +0.000 C 
ATOM     14  C   UNL     1       2.580   1.567  18.888  0.00  0.00    +0.000 C 
ATOM     15  C   UNL     1       1.261   2.034  19.493  0.00  0.00    +0.000 C 
ATOM     16  C   UNL     1       0.859   3.500  19.287  0.00  0.00    +0.000 C 
ATOM     17  C   UNL     1       1.301   4.105  17.961  0.00  0.00    +0.000 C 
ENDBRANCH   3  12
BRANCH   3  18
ATOM     18  C   UNL     1       3.495   5.351  19.245  0.00  0.00    +0.000 C 
BRANCH  18  19
ATOM     19  C   UNL     1       2.941   6.723  19.003  0.00  0.00    +0.000 A 
ATOM     20  C   UNL     1       2.795   7.418  17.821  0.00  0.00    +0.000 A 
ATOM     21  S   UNL     1       1.944   8.884  18.096  0.00  0.00    +0.000 S 
ATOM     22  C   UNL     1       1.745   8.473  19.759  0.00  0.00    +0.000 A 
ATOM     23  N   UNL     1       2.372   7.363  20.105  0.00  0.00    +0.000 NA
BRANCH  22  24
ATOM     24  C   UNL     1       0.892   9.253  20.686  0.00  0.00    +0.000 A 
ATOM     25  C   UNL     1       0.116  10.358  20.297  0.00  0.00    +0.000 A 
ATOM     26  C   UNL     1      -0.742  10.998  21.203  0.00  0.00    +0.000 A 
ATOM     27  C   UNL     1      -0.835  10.550  22.517  0.00  0.00    +0.000 A 
ATOM     28  C   UNL     1      -0.064   9.470  22.932  0.00  0.00    +0.000 A 
ATOM     29  C   UNL     1       0.789   8.831  22.026  0.00  0.00    +0.000 A 
ENDBRANCH  22  24
ENDBRANCH  18  19
ENDBRANCH   3  18
TORSDOF 6
ENDMDL
MODEL 2
REMARK VINA RESULT:      -8.4      0.723      1.258
REMARK  Name = 
REMARK  7 active torsions:
REMARK  status: ('A' for Active; 'I' for Inactive)
REMARK    1  A    between atoms: C_1  and  O_2
REMARK    2  A    between atoms: O_2  and  C_3
REMARK    3  A    between atoms: C_6  and  C_7
REMARK    4  A    between atoms: N_9  and  C_10
REMARK    5  A    between atoms: N_9  and  C_22
REMARK    6  A    between atoms: C_10  and  C_11
REMARK    7  A    between atoms: C_14  and  C_15
REMARK                            x       y       z     vdW  Elec       q    Type
REMARK                         _______ _______ _______ _____ _____    ______ ____
ROOT
ATOM      1  C   UNL     1       5.644   4.447  17.561  0.00  0.00    +0.000 C 
ATOM      2  O   UNL     1       5.935   3.701  16.623  0.00  0.00    +0.000 OA
ATOM      3  N   UNL     1       4.535   4.175  18.376  0.00  0.00    +0.000 N 
ENDROOT
BRANCH   1   7
ATOM      4  C   UNL     1       7.893   8.105  17.922  0.00  0.00    +0.000 A 
ATOM      5  C   UNL     1       8.239   7.028  18.736  0.00  0.00    +0.000 A 
ATOM      6  C   UNL     1       7.570   5.796  18.629  0.00  0.00    +0.000 A 
ATOM      7  C   UNL     1       6.597   5.593  17.654  0.00  0.00    +0.000 A 
ATOM      8  C   UNL     1       6.300   6.682  16.803  0.00  0.00    +0.000 A 
ATOM      9  C   UNL     1       6.918   7.924  16.950  0.00  0.00    +0.000 A 
BRANCH   4  11
ATOM     10  C   UNL     1       9.053   9.729  19.208  0.00  0.00    +0.000 C 
ATOM     11  O   UNL     1       8.375   9.379  18.011  0.00  0.00    +0.000 OA
ENDBRANCH   4  11
ENDBRANCH   1   7
BRANCH   3  12
ATOM     12  C   UNL     1       3.643   3.015  18.047  0.00  0.00    +0.000 C 
ATOM     13  C   UNL     1       3.331   2.085  19.234  0.00  0.00    +0.000 C 
ATOM     14  C   UNL     1       2.174   2.522  20.126  0.00  0.00    +0.000 C 
ATOM     15  C   UNL     1       0.943   3.024  19.379  0.00  0.00    +0.000 C 
ATOM     16  C   UNL     1       1.166   3.787  18.067  0.00  0.00    +0.000 C 
ATOM     17  C   UNL     1       2.367   3.325  17.253  0.00  0.00    +0.000 C 
ENDBRANCH   3  12
BRANCH   3  18
ATOM     18  C   UNL     1       4.063   5.009  19.487  0.00  0.00    +0.000 C 
BRANCH  18  19
ATOM     19  C   UNL     1       3.368   6.280  19.102  0.00  0.00    +0.000 A 
ATOM     20  C   UNL     1       3.133   6.812  17.852  0.00  0.00    +0.000 A 
ATOM     21  S   UNL     1       2.140   8.207  17.978  0.00  0.00    +0.000 S 
ATOM     22  C   UNL     1       2.010   7.978  19.682  0.00  0.00    +0.000 A 
ATOM     23  N   UNL     1       2.753   6.986  20.137  0.00  0.00    +0.000 NA
BRANCH  22  24
ATOM     24  C   UNL     1       1.096   8.773  20.535  0.00  0.00    +0.000 A 
ATOM     25  C   UNL     1       1.015   8.643  21.932  0.00  0.00    +0.000 A 
ATOM     26  C   UNL     1       0.196   9.489  22.694  0.00  0.00    +0.000 A 
ATOM     27  C   UNL     1      -0.564  10.476  22.073  0.00  0.00    +0.000 A 
ATOM     28  C   UNL     1      -0.515  10.613  20.690  0.00  0.00    +0.000 A 
ATOM     29  C   UNL     1       0.304   9.770  19.932  0.00  0.00    +0.000 A 
ENDBRANCH  22  24
ENDBRANCH  18  19
ENDBRANCH   3  18
TORSDOF 6
ENDMDL
MODEL 3
REMARK VINA RESULT:      -8.4      2.202      2.712
REMARK  Name = 
REMARK  7 active torsions:
REMARK  status: ('A' for Active; 'I' for Inactive)
REMARK    1  A    between atoms: C_1  and  O_2
REMARK    2  A    between atoms: O_2  and  C_3
REMARK    3  A    between atoms: C_6  and  C_7
REMARK    4  A    between atoms: N_9  and  C_10
REMARK    5  A    between atoms: N_9  and  C_22
REMARK    6  A    between atoms: C_10  and  C_11
REMARK    7  A    between atoms: C_14  and  C_15
REMARK                            x       y       z     vdW  Elec       q    Type
REMARK                         _______ _______ _______ _____ _____    ______ ____
ROOT
ATOM      1  C   UNL     1       3.367   4.376  17.419  0.00  0.00    +0.000 C 
ATOM      2  O   UNL     1       2.843   3.425  16.833  0.00  0.00    +0.000 OA
ATOM      3  N   UNL     1       2.792   4.904  18.585  0.00  0.00    +0.000 N 
ENDROOT
BRANCH   1   7
ATOM      4  C   UNL     1       6.760   5.308  14.930  0.00  0.00    +0.000 A 
ATOM      5  C   UNL     1       5.988   6.359  15.425  0.00  0.00    +0.000 A 
ATOM      6  C   UNL     1       4.898   6.116  16.279  0.00  0.00    +0.000 A 
ATOM      7  C   UNL     1       4.606   4.826  16.717  0.00  0.00    +0.000 A 
ATOM      8  C   UNL     1       5.434   3.782  16.246  0.00  0.00    +0.000 A 
ATOM      9  C   UNL     1       6.476   4.014  15.347  0.00  0.00    +0.000 A 
BRANCH   4  11
ATOM     10  C   UNL     1       7.487   4.872  12.712  0.00  0.00    +0.000 C 
ATOM     11  O   UNL     1       7.757   5.399  14.003  0.00  0.00    +0.000 OA
ENDBRANCH   4  11
ENDBRANCH   1   7
BRANCH   3  12
ATOM     12  C   UNL     1       1.481   4.363  19.072  0.00  0.00    +0.000 C 
ATOM     13  C   UNL     1       1.219   2.888  18.718  0.00  0.00    +0.000 C 
ATOM     14  C   UNL     1       1.820   1.864  19.676  0.00  0.00    +0.000 C 
ATOM     15  C   UNL     1       1.654   2.196  21.155  0.00  0.00    +0.000 C 
ATOM     16  C   UNL     1       1.695   3.674  21.565  0.00  0.00    +0.000 C 
ATOM     17  C   UNL     1       1.119   4.639  20.538  0.00  0.00    +0.000 C 
ENDBRANCH   3  12
BRANCH   3  18
ATOM     18  C   UNL     1       3.293   6.057  19.340  0.00  0.00    +0.000 C 
BRANCH  18  19
ATOM     19  C   UNL     1       2.568   7.349  19.120  0.00  0.00    +0.000 A 
ATOM     20  C   UNL     1       2.179   7.952  17.942  0.00  0.00    +0.000 A 
ATOM     21  S   UNL     1       1.225   9.341  18.274  0.00  0.00    +0.000 S 
ATOM     22  C   UNL     1       1.312   9.016  19.965  0.00  0.00    +0.000 A 
ATOM     23  N   UNL     1       2.097   7.996  20.264  0.00  0.00    +0.000 NA
BRANCH  22  24
ATOM     24  C   UNL     1       0.522   9.763  20.972  0.00  0.00    +0.000 A 
ATOM     25  C   UNL     1       0.031  11.064  20.775  0.00  0.00    +0.000 A 
ATOM     26  C   UNL     1      -0.788  11.683  21.730  0.00  0.00    +0.000 A 
ATOM     27  C   UNL     1      -1.126  11.015  22.903  0.00  0.00    +0.000 A 
ATOM     28  C   UNL     1      -0.639   9.733  23.130  0.00  0.00    +0.000 A 
ATOM     29  C   UNL     1       0.176   9.116  22.174  0.00  0.00    +0.000 A 
ENDBRANCH  22  24
ENDBRANCH  18  19
ENDBRANCH   3  18
TORSDOF 6
ENDMDL
MODEL 4
REMARK VINA RESULT:      -8.2      0.773      1.255
REMARK  Name = 
REMARK  7 active torsions:
REMARK  status: ('A' for Active; 'I' for Inactive)
REMARK    1  A    between atoms: C_1  and  O_2
REMARK    2  A    between atoms: O_2  and  C_3
REMARK    3  A    between atoms: C_6  and  C_7
REMARK    4  A    between atoms: N_9  and  C_10
REMARK    5  A    between atoms: N_9  and  C_22
REMARK    6  A    between atoms: C_10  and  C_11
REMARK    7  A    between atoms: C_14  and  C_15
REMARK                            x       y       z     vdW  Elec       q    Type
REMARK                         _______ _______ _______ _____ _____    ______ ____
ROOT
ATOM      1  C   UNL     1       4.300   4.912  17.792  0.00  0.00    +0.000 C 
ATOM      2  O   UNL     1       4.252   4.143  16.828  0.00  0.00    +0.000 OA
ATOM      3  N   UNL     1       3.189   5.080  18.632  0.00  0.00    +0.000 N 
ENDROOT
BRANCH   1   7
ATOM      4  C   UNL     1       7.836   7.343  18.199  0.00  0.00    +0.000 A 
ATOM      5  C   UNL     1       7.749   6.164  18.938  0.00  0.00    +0.000 A 
ATOM      6  C   UNL     1       6.640   5.309  18.810  0.00  0.00    +0.000 A 
ATOM      7  C   UNL     1       5.635   5.577  17.885  0.00  0.00    +0.000 A 
ATOM      8  C   UNL     1       5.768   6.749  17.107  0.00  0.00    +0.000 A 
ATOM      9  C   UNL     1       6.836   7.631  17.279  0.00  0.00    +0.000 A 
BRANCH   4  11
ATOM     10  C   UNL     1       8.351   9.660  18.241  0.00  0.00    +0.000 C 
ATOM     11  O   UNL     1       8.789   8.312  18.322  0.00  0.00    +0.000 OA
ENDBRANCH   4  11
ENDBRANCH   1   7
BRANCH   3  12
ATOM     12  C   UNL     1       1.901   4.386  18.301  0.00  0.00    +0.000 C 
ATOM     13  C   UNL     1       2.062   3.044  17.563  0.00  0.00    +0.000 C 
ATOM     14  C   UNL     1       2.309   1.830  18.452  0.00  0.00    +0.000 C 
ATOM     15  C   UNL     1       1.436   1.761  19.700  0.00  0.00    +0.000 C 
ATOM     16  C   UNL     1       1.056   3.083  20.380  0.00  0.00    +0.000 C 
ATOM     17  C   UNL     1       0.871   4.260  19.433  0.00  0.00    +0.000 C 
ENDBRANCH   3  12
BRANCH   3  18
ATOM     18  C   UNL     1       3.110   5.996  19.775  0.00  0.00    +0.000 C 
BRANCH  18  19
ATOM     19  C   UNL     1       2.485   7.331  19.503  0.00  0.00    +0.000 A 
ATOM     20  C   UNL     1       2.331   8.005  18.309  0.00  0.00    +0.000 A 
ATOM     21  S   UNL     1       1.389   9.421  18.546  0.00  0.00    +0.000 S 
ATOM     22  C   UNL     1       1.168   9.015  20.207  0.00  0.00    +0.000 A 
ATOM     23  N   UNL     1       1.849   7.946  20.581  0.00  0.00    +0.000 NA
BRANCH  22  24
ATOM     24  C   UNL     1       0.245   9.752  21.102  0.00  0.00    +0.000 A 
ATOM     25  C   UNL     1      -0.027   9.378  22.429  0.00  0.00    +0.000 A 
ATOM     26  C   UNL     1      -0.838  10.169  23.254  0.00  0.00    +0.000 A 
ATOM     27  C   UNL     1      -1.399  11.346  22.767  0.00  0.00    +0.000 A 
ATOM     28  C   UNL     1      -1.159  11.729  21.452  0.00  0.00    +0.000 A 
ATOM     29  C   UNL     1      -0.348  10.940  20.631  0.00  0.00    +0.000 A 
ENDBRANCH  22  24
ENDBRANCH  18  19
ENDBRANCH   3  18
TORSDOF 6
ENDMDL
MODEL 5
REMARK VINA RESULT:      -8.1      1.995      2.641
REMARK  Name = 
REMARK  7 active torsions:
REMARK  status: ('A' for Active; 'I' for Inactive)
REMARK    1  A    between atoms: C_1  and  O_2
REMARK    2  A    between atoms: O_2  and  C_3
REMARK    3  A    between atoms: C_6  and  C_7
REMARK    4  A    between atoms: N_9  and  C_10
REMARK    5  A    between atoms: N_9  and  C_22
REMARK    6  A    between atoms: C_10  and  C_11
REMARK    7  A    between atoms: C_14  and  C_15
REMARK                            x       y       z     vdW  Elec       q    Type
REMARK                         _______ _______ _______ _____ _____    ______ ____
ROOT
ATOM      1  C   UNL     1       3.582   3.936  17.391  0.00  0.00    +0.000 C 
ATOM      2  O   UNL     1       2.986   2.967  16.913  0.00  0.00    +0.000 OA
ATOM      3  N   UNL     1       3.024   4.670  18.448  0.00  0.00    +0.000 N 
ENDROOT
BRANCH   1   7
ATOM      4  C   UNL     1       7.057   5.091  15.119  0.00  0.00    +0.000 A 
ATOM      5  C   UNL     1       7.188   4.923  16.496  0.00  0.00    +0.000 A 
ATOM      6  C   UNL     1       6.099   4.502  17.281  0.00  0.00    +0.000 A 
ATOM      7  C   UNL     1       4.882   4.167  16.693  0.00  0.00    +0.000 A 
ATOM      8  C   UNL     1       4.787   4.293  15.288  0.00  0.00    +0.000 A 
ATOM      9  C   UNL     1       5.846   4.772  14.517  0.00  0.00    +0.000 A 
BRANCH   4  11
ATOM     10  C   UNL     1       7.868   5.278  12.895  0.00  0.00    +0.000 C 
ATOM     11  O   UNL     1       7.992   5.610  14.270  0.00  0.00    +0.000 OA
ENDBRANCH   4  11
ENDBRANCH   1   7
BRANCH   3  12
ATOM     12  C   UNL     1       1.650   4.327  18.942  0.00  0.00    +0.000 C 
ATOM     13  C   UNL     1       1.230   2.864  18.718  0.00  0.00    +0.000 C 
ATOM     14  C   UNL     1       1.691   1.875  19.784  0.00  0.00    +0.000 C 
ATOM     15  C   UNL     1       1.533   2.363  21.220  0.00  0.00    +0.000 C 
ATOM     16  C   UNL     1       1.733   3.859  21.493  0.00  0.00    +0.000 C 
ATOM     17  C   UNL     1       1.291   4.781  20.364  0.00  0.00    +0.000 C 
ENDBRANCH   3  12
BRANCH   3  18
ATOM     18  C   UNL     1       3.613   5.863  19.066  0.00  0.00    +0.000 C 
BRANCH  18  19
ATOM     19  C   UNL     1       2.858   7.143  18.868  0.00  0.00    +0.000 A 
ATOM     20  C   UNL     1       2.483   7.773  17.700  0.00  0.00    +0.000 A 
ATOM     21  S   UNL     1       1.484   9.125  18.050  0.00  0.00    +0.000 S 
ATOM     22  C   UNL     1       1.536   8.747  19.731  0.00  0.00    +0.000 A 
ATOM     23  N   UNL     1       2.341   7.740  20.019  0.00  0.00    +0.000 NA
BRANCH  22  24
ATOM     24  C   UNL     1       0.701   9.440  20.740  0.00  0.00    +0.000 A 
ATOM     25  C   UNL     1       0.163   8.814  21.877  0.00  0.00    +0.000 A 
ATOM     26  C   UNL     1      -0.542   9.545  22.843  0.00  0.00    +0.000 A 
ATOM     27  C   UNL     1      -0.730  10.916  22.688  0.00  0.00    +0.000 A 
ATOM     28  C   UNL     1      -0.222  11.556  21.563  0.00  0.00    +0.000 A 
ATOM     29  C   UNL     1       0.483  10.825  20.601  0.00  0.00    +0.000 A 
ENDBRANCH  22  24
ENDBRANCH  18  19
ENDBRANCH   3  18
TORSDOF 6
ENDMDL
MODEL 6
REMARK VINA RESULT:      -7.9      1.042      1.214
REMARK  Name = 
REMARK  7 active torsions:
REMARK  status: ('A' for Active; 'I' for Inactive)
REMARK    1  A    between atoms: C_1  and  O_2
REMARK    2  A    between atoms: O_2  and  C_3
REMARK    3  A    between atoms: C_6  and  C_7
REMARK    4  A    between atoms: N_9  and  C_10
REMARK    5  A    between atoms: N_9  and  C_22
REMARK    6  A    between atoms: C_10  and  C_11
REMARK    7  A    between atoms: C_14  and  C_15
REMARK                            x       y       z     vdW  Elec       q    Type
REMARK                         _______ _______ _______ _____ _____    ______ ____
ROOT
ATOM      1  C   UNL     1       3.952   4.867  17.825  0.00  0.00    +0.000 C 
ATOM      2  O   UNL     1       3.799   3.992  16.970  0.00  0.00    +0.000 OA
ATOM      3  N   UNL     1       2.972   5.093  18.804  0.00  0.00    +0.000 N 
ENDROOT
BRANCH   1   7
ATOM      4  C   UNL     1       7.379   7.449  17.419  0.00  0.00    +0.000 A 
ATOM      5  C   UNL     1       7.468   6.355  18.279  0.00  0.00    +0.000 A 
ATOM      6  C   UNL     1       6.398   5.453  18.415  0.00  0.00    +0.000 A 
ATOM      7  C   UNL     1       5.249   5.584  17.638  0.00  0.00    +0.000 A 
ATOM      8  C   UNL     1       5.202   6.669  16.734  0.00  0.00    +0.000 A 
ATOM      9  C   UNL     1       6.237   7.601  16.644  0.00  0.00    +0.000 A 
BRANCH   4  11
ATOM     10  C   UNL     1       8.529   9.259  18.438  0.00  0.00    +0.000 C 
ATOM     11  O   UNL     1       8.289   8.458  17.290  0.00  0.00    +0.000 OA
ENDBRANCH   4  11
ENDBRANCH   1   7
BRANCH   3  12
ATOM     12  C   UNL     1       1.687   4.321  18.754  0.00  0.00    +0.000 C 
ATOM     13  C   UNL     1       1.804   2.910  18.150  0.00  0.00    +0.000 C 
ATOM     14  C   UNL     1       2.245   1.814  19.115  0.00  0.00    +0.000 C 
ATOM     15  C   UNL     1       1.573   1.860  20.484  0.00  0.00    +0.000 C 
ATOM     16  C   UNL     1       1.232   3.237  21.068  0.00  0.00    +0.000 C 
ATOM     17  C   UNL     1       0.846   4.291  20.038  0.00  0.00    +0.000 C 
ENDBRANCH   3  12
BRANCH   3  18
ATOM     18  C   UNL     1       3.019   6.130  19.840  0.00  0.00    +0.000 C 
BRANCH  18  19
ATOM     19  C   UNL     1       2.381   7.439  19.484  0.00  0.00    +0.000 A 
ATOM     20  C   UNL     1       2.156   8.002  18.246  0.00  0.00    +0.000 A 
ATOM     21  S   UNL     1       1.233   9.441  18.408  0.00  0.00    +0.000 S 
ATOM     22  C   UNL     1       1.112   9.190  20.109  0.00  0.00    +0.000 A 
ATOM     23  N   UNL     1       1.812   8.155  20.539  0.00  0.00    +0.000 NA
BRANCH  22  24
ATOM     24  C   UNL     1       0.247  10.013  20.987  0.00  0.00    +0.000 A 
ATOM     25  C   UNL     1      -0.432  11.167  20.560  0.00  0.00    +0.000 A 
ATOM     26  C   UNL     1      -1.309  11.850  21.414  0.00  0.00    +0.000 A 
ATOM     27  C   UNL     1      -1.519  11.397  22.713  0.00  0.00    +0.000 A 
ATOM     28  C   UNL     1      -0.846  10.268  23.165  0.00  0.00    +0.000 A 
ATOM     29  C   UNL     1       0.027   9.586  22.311  0.00  0.00    +0.000 A 
ENDBRANCH  22  24
ENDBRANCH  18  19
ENDBRANCH   3  18
TORSDOF 6
ENDMDL
MODEL 7
REMARK VINA RESULT:      -7.8      0.473      1.004
REMARK  Name = 
REMARK  7 active torsions:
REMARK  status: ('A' for Active; 'I' for Inactive)
REMARK    1  A    between atoms: C_1  and  O_2
REMARK    2  A    between atoms: O_2  and  C_3
REMARK    3  A    between atoms: C_6  and  C_7
REMARK    4  A    between atoms: N_9  and  C_10
REMARK    5  A    between atoms: N_9  and  C_22
REMARK    6  A    between atoms: C_10  and  C_11
REMARK    7  A    between atoms: C_14  and  C_15
REMARK                            x       y       z     vdW  Elec       q    Type
REMARK                         _______ _______ _______ _____ _____    ______ ____
ROOT
ATOM      1  C   UNL     1       4.934   5.128  17.397  0.00  0.00    +0.000 C 
ATOM      2  O   UNL     1       5.328   4.539  16.387  0.00  0.00    +0.000 OA
ATOM      3  N   UNL     1       3.748   4.740  18.036  0.00  0.00    +0.000 N 
ENDROOT
BRANCH   1   7
ATOM      4  C   UNL     1       8.070   7.940  18.312  0.00  0.00    +0.000 A 
ATOM      5  C   UNL     1       7.047   8.339  17.453  0.00  0.00    +0.000 A 
ATOM      6  C   UNL     1       5.974   7.480  17.156  0.00  0.00    +0.000 A 
ATOM      7  C   UNL     1       5.864   6.235  17.772  0.00  0.00    +0.000 A 
ATOM      8  C   UNL     1       6.884   5.872  18.680  0.00  0.00    +0.000 A 
ATOM      9  C   UNL     1       7.981   6.698  18.927  0.00  0.00    +0.000 A 
BRANCH   4  11
ATOM     10  C   UNL     1       9.095  10.016  18.837  0.00  0.00    +0.000 C 
ATOM     11  O   UNL     1       9.219   8.625  18.581  0.00  0.00    +0.000 OA
ENDBRANCH   4  11
ENDBRANCH   1   7
BRANCH   3  12
ATOM     12  C   UNL     1       2.905   3.656  17.434  0.00  0.00    +0.000 C 
ATOM     13  C   UNL     1       3.393   2.224  17.720  0.00  0.00    +0.000 C 
ATOM     14  C   UNL     1       2.939   1.626  19.047  0.00  0.00    +0.000 C 
ATOM     15  C   UNL     1       1.474   1.872  19.393  0.00  0.00    +0.000 C 
ATOM     16  C   UNL     1       0.850   3.204  18.954  0.00  0.00    +0.000 C 
ATOM     17  C   UNL     1       1.387   3.760  17.643  0.00  0.00    +0.000 C 
ENDBRANCH   3  12
BRANCH   3  18
ATOM     18  C   UNL     1       3.155   5.390  19.210  0.00  0.00    +0.000 C 
BRANCH  18  19
ATOM     19  C   UNL     1       2.638   6.780  18.998  0.00  0.00    +0.000 A 
ATOM     20  C   UNL     1       2.426   7.472  17.823  0.00  0.00    +0.000 A 
ATOM     21  S   UNL     1       1.656   8.971  18.149  0.00  0.00    +0.000 S 
ATOM     22  C   UNL     1       1.571   8.581  19.826  0.00  0.00    +0.000 A 
ATOM     23  N   UNL     1       2.180   7.449  20.134  0.00  0.00    +0.000 NA
BRANCH  22  24
ATOM     24  C   UNL     1       0.823   9.400  20.809  0.00  0.00    +0.000 A 
ATOM     25  C   UNL     1       0.338  10.692  20.545  0.00  0.00    +0.000 A 
ATOM     26  C   UNL     1      -0.443  11.379  21.485  0.00  0.00    +0.000 A 
ATOM     27  C   UNL     1      -0.748  10.792  22.709  0.00  0.00    +0.000 A 
ATOM     28  C   UNL     1      -0.265   9.521  23.001  0.00  0.00    +0.000 A 
ATOM     29  C   UNL     1       0.512   8.836  22.061  0.00  0.00    +0.000 A 
ENDBRANCH  22  24
ENDBRANCH  18  19
ENDBRANCH   3  18
TORSDOF 6
ENDMDL
MODEL 8
REMARK VINA RESULT:      -7.7      1.914      2.800
REMARK  Name = 
REMARK  7 active torsions:
REMARK  status: ('A' for Active; 'I' for Inactive)
REMARK    1  A    between atoms: C_1  and  O_2
REMARK    2  A    between atoms: O_2  and  C_3
REMARK    3  A    between atoms: C_6  and  C_7
REMARK    4  A    between atoms: N_9  and  C_10
REMARK    5  A    between atoms: N_9  and  C_22
REMARK    6  A    between atoms: C_10  and  C_11
REMARK    7  A    between atoms: C_14  and  C_15
REMARK                            x       y       z     vdW  Elec       q    Type
REMARK                         _______ _______ _______ _____ _____    ______ ____
ROOT
ATOM      1  C   UNL     1       4.880   4.673  18.487  0.00  0.00    +0.000 C 
ATOM      2  O   UNL     1       5.713   4.093  19.187  0.00  0.00    +0.000 OA
ATOM      3  N   UNL     1       3.592   4.938  18.976  0.00  0.00    +0.000 N 
ENDROOT
BRANCH   1   7
ATOM      4  C   UNL     1       7.035   5.419  14.830  0.00  0.00    +0.000 A 
ATOM      5  C   UNL     1       5.884   4.635  14.776  0.00  0.00    +0.000 A 
ATOM      6  C   UNL     1       5.115   4.398  15.930  0.00  0.00    +0.000 A 
ATOM      7  C   UNL     1       5.440   5.002  17.142  0.00  0.00    +0.000 A 
ATOM      8  C   UNL     1       6.581   5.836  17.162  0.00  0.00    +0.000 A 
ATOM      9  C   UNL     1       7.380   6.021  16.034  0.00  0.00    +0.000 A 
BRANCH   4  11
ATOM     10  C   UNL     1       7.659   4.978  12.582  0.00  0.00    +0.000 C 
ATOM     11  O   UNL     1       7.929   5.621  13.819  0.00  0.00    +0.000 OA
ENDBRANCH   4  11
ENDBRANCH   1   7
BRANCH   3  12
ATOM     12  C   UNL     1       3.198   4.431  20.332  0.00  0.00    +0.000 C 
ATOM     13  C   UNL     1       1.798   4.866  20.802  0.00  0.00    +0.000 C 
ATOM     14  C   UNL     1       0.641   4.001  20.313  0.00  0.00    +0.000 C 
ATOM     15  C   UNL     1       0.890   2.498  20.384  0.00  0.00    +0.000 C 
ATOM     16  C   UNL     1       2.319   1.998  20.131  0.00  0.00    +0.000 C 
ATOM     17  C   UNL     1       3.419   2.937  20.605  0.00  0.00    +0.000 C 
ENDBRANCH   3  12
BRANCH   3  18
ATOM     18  C   UNL     1       2.505   5.575  18.226  0.00  0.00    +0.000 C 
BRANCH  18  19
ATOM     19  C   UNL     1       2.368   7.057  18.402  0.00  0.00    +0.000 A 
ATOM     20  C   UNL     1       2.568   8.075  17.493  0.00  0.00    +0.000 A 
ATOM     21  S   UNL     1       2.103   9.580  18.176  0.00  0.00    +0.000 S 
ATOM     22  C   UNL     1       1.583   8.784  19.614  0.00  0.00    +0.000 A 
ATOM     23  N   UNL     1       1.845   7.489  19.622  0.00  0.00    +0.000 NA
BRANCH  22  24
ATOM     24  C   UNL     1       0.849   9.476  20.699  0.00  0.00    +0.000 A 
ATOM     25  C   UNL     1       0.060  10.622  20.506  0.00  0.00    +0.000 A 
ATOM     26  C   UNL     1      -0.684  11.177  21.556  0.00  0.00    +0.000 A 
ATOM     27  C   UNL     1      -0.649  10.601  22.823  0.00  0.00    +0.000 A 
ATOM     28  C   UNL     1       0.138   9.476  23.045  0.00  0.00    +0.000 A 
ATOM     29  C   UNL     1       0.878   8.923  21.994  0.00  0.00    +0.000 A 
ENDBRANCH  22  24
ENDBRANCH  18  19
ENDBRANCH   3  18
TORSDOF 6
ENDMDL
MODEL 9
REMARK VINA RESULT:      -7.5      2.149      3.114
REMARK  Name = 
REMARK  7 active torsions:
REMARK  status: ('A' for Active; 'I' for Inactive)
REMARK    1  A    between atoms: C_1  and  O_2
REMARK    2  A    between atoms: O_2  and  C_3
REMARK    3  A    between atoms: C_6  and  C_7
REMARK    4  A    between atoms: N_9  and  C_10
REMARK    5  A    between atoms: N_9  and  C_22
REMARK    6  A    between atoms: C_10  and  C_11
REMARK    7  A    between atoms: C_14  and  C_15
REMARK                            x       y       z     vdW  Elec       q    Type
REMARK                         _______ _______ _______ _____ _____    ______ ____
ROOT
ATOM      1  C   UNL     1       4.984   4.802  18.594  0.00  0.00    +0.000 C 
ATOM      2  O   UNL     1       5.814   4.236  19.309  0.00  0.00    +0.000 OA
ATOM      3  N   UNL     1       3.673   5.015  19.048  0.00  0.00    +0.000 N 
ENDROOT
BRANCH   1   7
ATOM      4  C   UNL     1       6.714   5.273  14.675  0.00  0.00    +0.000 A 
ATOM      5  C   UNL     1       5.530   5.949  14.966  0.00  0.00    +0.000 A 
ATOM      6  C   UNL     1       4.946   5.869  16.243  0.00  0.00    +0.000 A 
ATOM      7  C   UNL     1       5.574   5.176  17.274  0.00  0.00    +0.000 A 
ATOM      8  C   UNL     1       6.801   4.543  16.972  0.00  0.00    +0.000 A 
ATOM      9  C   UNL     1       7.349   4.568  15.689  0.00  0.00    +0.000 A 
BRANCH   4  11
ATOM     10  C   UNL     1       6.894   4.095  12.622  0.00  0.00    +0.000 C 
ATOM     11  O   UNL     1       7.311   5.169  13.453  0.00  0.00    +0.000 OA
ENDBRANCH   4  11
ENDBRANCH   1   7
BRANCH   3  12
ATOM     12  C   UNL     1       3.255   4.468  20.380  0.00  0.00    +0.000 C 
ATOM     13  C   UNL     1       1.856   4.909  20.848  0.00  0.00    +0.000 C 
ATOM     14  C   UNL     1       0.692   4.079  20.316  0.00  0.00    +0.000 C 
ATOM     15  C   UNL     1       0.918   2.571  20.339  0.00  0.00    +0.000 C 
ATOM     16  C   UNL     1       2.342   2.057  20.085  0.00  0.00    +0.000 C 
ATOM     17  C   UNL     1       3.450   2.962  20.604  0.00  0.00    +0.000 C 
ENDBRANCH   3  12
BRANCH   3  18
ATOM     18  C   UNL     1       2.589   5.632  18.276  0.00  0.00    +0.000 C 
BRANCH  18  19
ATOM     19  C   UNL     1       2.407   7.107  18.465  0.00  0.00    +0.000 A 
ATOM     20  C   UNL     1       2.623   8.142  17.580  0.00  0.00    +0.000 A 
ATOM     21  S   UNL     1       2.089   9.626  18.261  0.00  0.00    +0.000 S 
ATOM     22  C   UNL     1       1.524   8.796  19.663  0.00  0.00    +0.000 A 
ATOM     23  N   UNL     1       1.818   7.508  19.665  0.00  0.00    +0.000 NA
BRANCH  22  24
ATOM     24  C   UNL     1       0.724   9.454  20.722  0.00  0.00    +0.000 A 
ATOM     25  C   UNL     1       0.486   8.893  21.988  0.00  0.00    +0.000 A 
ATOM     26  C   UNL     1      -0.202   9.606  22.980  0.00  0.00    +0.000 A 
ATOM     27  C   UNL     1      -0.672  10.891  22.724  0.00  0.00    +0.000 A 
ATOM     28  C   UNL     1      -0.464  11.462  21.473  0.00  0.00    +0.000 A 
ATOM     29  C   UNL     1       0.224  10.749  20.485  0.00  0.00    +0.000 A 
ENDBRANCH  22  24
ENDBRANCH  18  19
ENDBRANCH   3  18
TORSDOF 6
ENDMDL
