MODEL 1
REMARK VINA RESULT:      -7.6      0.000      0.000
REMARK  Name = 
REMARK  7 active torsions:
REMARK  status: ('A' for Active; 'I' for Inactive)
REMARK    1  A    between atoms: C_1  and  O_2
REMARK    2  A    between atoms: O_2  and  C_3
REMARK    3  A    between atoms: C_8  and  N_9
REMARK    4  A    between atoms: C_13  and  C_15
REMARK    5  A    between atoms: C_19  and  C_20
REMARK    6  A    between atoms: C_22  and  C_23
REMARK    7  A    between atoms: C_25  and  C_26
REMARK                            x       y       z     vdW  Elec       q    Type
REMARK                         _______ _______ _______ _____ _____    ______ ____
ROOT
ATOM      1  N   UNL     1       0.746  12.091  19.399  0.00  0.00    +0.000 N 
ATOM      2  C   UNL     1       0.597  11.029  18.399  0.00  0.00    +0.000 C 
ATOM      3  C   UNL     1       1.355   9.775  18.888  0.00  0.00    +0.000 C 
ATOM      4  N   UNL     1       1.015   9.338  20.259  0.00  0.00    +0.000 N 
ATOM      5  C   UNL     1       1.295   8.035  20.760  0.00  0.00    +0.000 C 
ATOM      6  O   UNL     1       0.946   7.720  21.903  0.00  0.00    +0.000 OA
ATOM      7  C   UNL     1       0.881  10.427  21.241  0.00  0.00    +0.000 C 
ATOM      8  C   UNL     1       0.182  11.703  20.709  0.00  0.00    +0.000 C 
ENDROOT
BRANCH   5   9
ATOM      9  C   UNL     1       1.990   7.092  19.888  0.00  0.00    +0.000 A 
ATOM     10  O   UNL     1       2.907   7.624  19.022  0.00  0.00    +0.000 OA
ATOM     11  C   UNL     1       3.393   6.627  18.256  0.00  0.00    +0.000 A 
ATOM     12  C   UNL     1       4.371   6.812  17.290  0.00  0.00    +0.000 A 
ATOM     13  C   UNL     1       4.738   5.688  16.549  0.00  0.00    +0.000 A 
ATOM     14  C   UNL     1       5.864   5.778  15.565  0.00  0.00    +0.000 C 
ATOM     15  C   UNL     1       4.041   4.487  16.723  0.00  0.00    +0.000 A 
ATOM     16  C   UNL     1       3.038   4.320  17.713  0.00  0.00    +0.000 A 
ATOM     17  C   UNL     1       2.225   3.053  17.683  0.00  0.00    +0.000 C 
ATOM     18  C   UNL     1       2.780   5.427  18.566  0.00  0.00    +0.000 A 
ATOM     19  C   UNL     1       2.073   5.697  19.792  0.00  0.00    +0.000 A 
ATOM     20  C   UNL     1       1.605   4.683  20.772  0.00  0.00    +0.000 C 
ENDBRANCH   5   9
BRANCH   1  26
ATOM     21  C   UNL     1       1.948  14.166  18.649  0.00  0.00    +0.000 A 
ATOM     22  C   UNL     1       1.869  15.556  18.415  0.00  0.00    +0.000 A 
ATOM     23  C   UNL     1       0.666  16.246  18.552  0.00  0.00    +0.000 A 
ATOM     24  C   UNL     1      -0.473  15.556  18.932  0.00  0.00    +0.000 A 
ATOM     25  C   UNL     1      -0.401  14.183  19.178  0.00  0.00    +0.000 A 
ATOM     26  C   UNL     1       0.795  13.442  19.053  0.00  0.00    +0.000 A 
BRANCH  21  28
ATOM     27  C   UNL     1       4.305  14.248  18.269  0.00  0.00    +0.000 C 
ATOM     28  O   UNL     1       3.130  13.474  18.496  0.00  0.00    +0.000 OA
ENDBRANCH  21  28
ENDBRANCH   1  26
TORSDOF 3
ENDMDL
MODEL 2
REMARK VINA RESULT:      -7.5      2.185      3.273
REMARK  Name = 
REMARK  7 active torsions:
REMARK  status: ('A' for Active; 'I' for Inactive)
REMARK    1  A    between atoms: C_1  and  O_2
REMARK    2  A    between atoms: O_2  and  C_3
REMARK    3  A    between atoms: C_8  and  N_9
REMARK    4  A    between atoms: C_13  and  C_15
REMARK    5  A    between atoms: C_19  and  C_20
REMARK    6  A    between atoms: C_22  and  C_23
REMARK    7  A    between atoms: C_25  and  C_26
REMARK                            x       y       z     vdW  Elec       q    Type
REMARK                         _______ _______ _______ _____ _____    ______ ____
ROOT
ATOM      1  N   UNL     1       1.147  14.332  19.580  0.00  0.00    +0.000 N 
ATOM      2  C   UNL     1       2.245  13.514  19.054  0.00  0.00    +0.000 C 
ATOM      3  C   UNL     1       1.854  12.023  19.168  0.00  0.00    +0.000 C 
ATOM      4  N   UNL     1       0.538  11.679  18.587  0.00  0.00    +0.000 N 
ATOM      5  C   UNL     1       0.153  10.351  18.249  0.00  0.00    +0.000 C 
ATOM      6  O   UNL     1      -0.947  10.137  17.728  0.00  0.00    +0.000 OA
ATOM      7  C   UNL     1      -0.536  12.645  18.871  0.00  0.00    +0.000 C 
ATOM      8  C   UNL     1      -0.106  14.132  18.822  0.00  0.00    +0.000 C 
ENDROOT
BRANCH   5   9
ATOM      9  C   UNL     1       1.089   9.266  18.527  0.00  0.00    +0.000 A 
ATOM     10  O   UNL     1       2.025   9.005  17.564  0.00  0.00    +0.000 OA
ATOM     11  C   UNL     1       2.750   7.938  17.955  0.00  0.00    +0.000 A 
ATOM     12  C   UNL     1       3.810   7.424  17.224  0.00  0.00    +0.000 A 
ATOM     13  C   UNL     1       4.434   6.287  17.741  0.00  0.00    +0.000 A 
ATOM     14  C   UNL     1       5.655   5.737  17.072  0.00  0.00    +0.000 C 
ATOM     15  C   UNL     1       3.902   5.664  18.876  0.00  0.00    +0.000 A 
ATOM     16  C   UNL     1       2.812   6.203  19.606  0.00  0.00    +0.000 A 
ATOM     17  C   UNL     1       2.204   5.353  20.691  0.00  0.00    +0.000 C 
ATOM     18  C   UNL     1       2.283   7.443  19.158  0.00  0.00    +0.000 A 
ATOM     19  C   UNL     1       1.387   8.465  19.638  0.00  0.00    +0.000 A 
ATOM     20  C   UNL     1       0.946   8.650  21.044  0.00  0.00    +0.000 C 
ENDBRANCH   5   9
BRANCH   1  26
ATOM     21  C   UNL     1       1.233  15.800  21.617  0.00  0.00    +0.000 A 
ATOM     22  C   UNL     1       1.398  17.108  22.122  0.00  0.00    +0.000 A 
ATOM     23  C   UNL     1       1.713  18.174  21.282  0.00  0.00    +0.000 A 
ATOM     24  C   UNL     1       1.861  17.949  19.924  0.00  0.00    +0.000 A 
ATOM     25  C   UNL     1       1.686  16.661  19.414  0.00  0.00    +0.000 A 
ATOM     26  C   UNL     1       1.366  15.550  20.226  0.00  0.00    +0.000 A 
BRANCH  21  28
ATOM     27  C   UNL     1      -0.437  14.480  22.700  0.00  0.00    +0.000 C 
ATOM     28  O   UNL     1       0.941  14.738  22.444  0.00  0.00    +0.000 OA
ENDBRANCH  21  28
ENDBRANCH   1  26
TORSDOF 3
ENDMDL
MODEL 3
REMARK VINA RESULT:      -7.5      2.564      4.503
REMARK  Name = 
REMARK  7 active torsions:
REMARK  status: ('A' for Active; 'I' for Inactive)
REMARK    1  A    between atoms: C_1  and  O_2
REMARK    2  A    between atoms: O_2  and  C_3
REMARK    3  A    between atoms: C_8  and  N_9
REMARK    4  A    between atoms: C_13  and  C_15
REMARK    5  A    between atoms: C_19  and  C_20
REMARK    6  A    between atoms: C_22  and  C_23
REMARK    7  A    between atoms: C_25  and  C_26
REMARK                            x       y       z     vdW  Elec       q    Type
REMARK                         _______ _______ _______ _____ _____    ______ ____
ROOT
ATOM      1  N   UNL     1      -0.605  11.255  20.704  0.00  0.00    +0.000 N 
ATOM      2  C   UNL     1       0.357  10.380  21.381  0.00  0.00    +0.000 C 
ATOM      3  C   UNL     1       0.833   9.299  20.385  0.00  0.00    +0.000 C 
ATOM      4  N   UNL     1       1.325   9.819  19.091  0.00  0.00    +0.000 N 
ATOM      5  C   UNL     1       2.139   9.064  18.200  0.00  0.00    +0.000 C 
ATOM      6  O   UNL     1       2.552   9.573  17.152  0.00  0.00    +0.000 OA
ATOM      7  C   UNL     1       0.520  10.909  18.515  0.00  0.00    +0.000 C 
ATOM      8  C   UNL     1      -0.008  11.943  19.541  0.00  0.00    +0.000 C 
ENDROOT
BRANCH   5   9
ATOM      9  C   UNL     1       2.472   7.689  18.562  0.00  0.00    +0.000 A 
ATOM     10  O   UNL     1       1.633   7.071  19.449  0.00  0.00    +0.000 OA
ATOM     11  C   UNL     1       2.129   5.848  19.719  0.00  0.00    +0.000 A 
ATOM     12  C   UNL     1       1.507   4.937  20.560  0.00  0.00    +0.000 A 
ATOM     13  C   UNL     1       2.169   3.728  20.774  0.00  0.00    +0.000 A 
ATOM     14  C   UNL     1       1.511   2.648  21.578  0.00  0.00    +0.000 C 
ATOM     15  C   UNL     1       3.451   3.539  20.244  0.00  0.00    +0.000 A 
ATOM     16  C   UNL     1       4.074   4.486  19.391  0.00  0.00    +0.000 A 
ATOM     17  C   UNL     1       5.521   4.267  19.037  0.00  0.00    +0.000 C 
ATOM     18  C   UNL     1       3.326   5.646  19.056  0.00  0.00    +0.000 A 
ATOM     19  C   UNL     1       3.396   6.735  18.115  0.00  0.00    +0.000 A 
ATOM     20  C   UNL     1       4.233   6.778  16.888  0.00  0.00    +0.000 C 
ENDBRANCH   5   9
BRANCH   1  26
ATOM     21  C   UNL     1      -2.859  12.361  20.788  0.00  0.00    +0.000 A 
ATOM     22  C   UNL     1      -3.817  13.029  21.583  0.00  0.00    +0.000 A 
ATOM     23  C   UNL     1      -3.634  13.191  22.955  0.00  0.00    +0.000 A 
ATOM     24  C   UNL     1      -2.487  12.693  23.550  0.00  0.00    +0.000 A 
ATOM     25  C   UNL     1      -1.529  12.044  22.770  0.00  0.00    +0.000 A 
ATOM     26  C   UNL     1      -1.670  11.857  21.377  0.00  0.00    +0.000 A 
BRANCH  21  28
ATOM     27  C   UNL     1      -4.388  12.069  18.976  0.00  0.00    +0.000 C 
ATOM     28  O   UNL     1      -3.043  12.180  19.435  0.00  0.00    +0.000 OA
ENDBRANCH  21  28
ENDBRANCH   1  26
TORSDOF 3
ENDMDL
MODEL 4
REMARK VINA RESULT:      -7.5      2.214      3.097
REMARK  Name = 
REMARK  7 active torsions:
REMARK  status: ('A' for Active; 'I' for Inactive)
REMARK    1  A    between atoms: C_1  and  O_2
REMARK    2  A    between atoms: O_2  and  C_3
REMARK    3  A    between atoms: C_8  and  N_9
REMARK    4  A    between atoms: C_13  and  C_15
REMARK    5  A    between atoms: C_19  and  C_20
REMARK    6  A    between atoms: C_22  and  C_23
REMARK    7  A    between atoms: C_25  and  C_26
REMARK                            x       y       z     vdW  Elec       q    Type
REMARK                         _______ _______ _______ _____ _____    ______ ____
ROOT
ATOM      1  N   UNL     1       1.288  14.496  19.836  0.00  0.00    +0.000 N 
ATOM      2  C   UNL     1       2.200  13.626  19.088  0.00  0.00    +0.000 C 
ATOM      3  C   UNL     1       1.823  12.153  19.365  0.00  0.00    +0.000 C 
ATOM      4  N   UNL     1       0.396  11.826  19.152  0.00  0.00    +0.000 N 
ATOM      5  C   UNL     1      -0.087  10.498  18.983  0.00  0.00    +0.000 C 
ATOM      6  O   UNL     1      -1.287  10.297  18.766  0.00  0.00    +0.000 OA
ATOM      7  C   UNL     1      -0.552  12.834  19.654  0.00  0.00    +0.000 C 
ATOM      8  C   UNL     1      -0.120  14.305  19.430  0.00  0.00    +0.000 C 
ENDROOT
BRANCH   5   9
ATOM      9  C   UNL     1       0.868   9.397  19.065  0.00  0.00    +0.000 A 
ATOM     10  O   UNL     1       1.681   9.213  17.980  0.00  0.00    +0.000 OA
ATOM     11  C   UNL     1       2.440   8.121  18.200  0.00  0.00    +0.000 A 
ATOM     12  C   UNL     1       3.403   7.666  17.312  0.00  0.00    +0.000 A 
ATOM     13  C   UNL     1       4.076   6.495  17.664  0.00  0.00    +0.000 A 
ATOM     14  C   UNL     1       5.206   5.999  16.814  0.00  0.00    +0.000 C 
ATOM     15  C   UNL     1       3.678   5.785  18.803  0.00  0.00    +0.000 A 
ATOM     16  C   UNL     1       2.686   6.265  19.697  0.00  0.00    +0.000 A 
ATOM     17  C   UNL     1       2.205   5.334  20.778  0.00  0.00    +0.000 C 
ATOM     18  C   UNL     1       2.116   7.534  19.410  0.00  0.00    +0.000 A 
ATOM     19  C   UNL     1       1.290   8.515  20.068  0.00  0.00    +0.000 A 
ATOM     20  C   UNL     1       1.020   8.591  21.527  0.00  0.00    +0.000 C 
ENDBRANCH   5   9
BRANCH   1  26
ATOM     21  C   UNL     1       2.381  15.952  21.568  0.00  0.00    +0.000 A 
ATOM     22  C   UNL     1       2.641  17.268  22.010  0.00  0.00    +0.000 A 
ATOM     23  C   UNL     1       2.246  18.374  21.260  0.00  0.00    +0.000 A 
ATOM     24  C   UNL     1       1.580  18.181  20.062  0.00  0.00    +0.000 A 
ATOM     25  C   UNL     1       1.307  16.883  19.624  0.00  0.00    +0.000 A 
ATOM     26  C   UNL     1       1.686  15.732  20.350  0.00  0.00    +0.000 A 
BRANCH  21  28
ATOM     27  C   UNL     1       4.185  14.587  22.337  0.00  0.00    +0.000 C 
ATOM     28  O   UNL     1       2.785  14.853  22.295  0.00  0.00    +0.000 OA
ENDBRANCH  21  28
ENDBRANCH   1  26
TORSDOF 3
ENDMDL
MODEL 5
REMARK VINA RESULT:      -7.5      2.075      2.984
REMARK  Name = 
REMARK  7 active torsions:
REMARK  status: ('A' for Active; 'I' for Inactive)
REMARK    1  A    between atoms: C_1  and  O_2
REMARK    2  A    between atoms: O_2  and  C_3
REMARK    3  A    between atoms: C_8  and  N_9
REMARK    4  A    between atoms: C_13  and  C_15
REMARK    5  A    between atoms: C_19  and  C_20
REMARK    6  A    between atoms: C_22  and  C_23
REMARK    7  A    between atoms: C_25  and  C_26
REMARK                            x       y       z     vdW  Elec       q    Type
REMARK                         _______ _______ _______ _____ _____    ______ ____
ROOT
ATOM      1  N   UNL     1       1.235  14.322  19.515  0.00  0.00    +0.000 N 
ATOM      2  C   UNL     1       2.305  13.486  18.961  0.00  0.00    +0.000 C 
ATOM      3  C   UNL     1       1.909  12.001  19.118  0.00  0.00    +0.000 C 
ATOM      4  N   UNL     1       0.569  11.656  18.596  0.00  0.00    +0.000 N 
ATOM      5  C   UNL     1       0.162  10.325  18.298  0.00  0.00    +0.000 C 
ATOM      6  O   UNL     1      -0.960  10.110  17.824  0.00  0.00    +0.000 OA
ATOM      7  C   UNL     1      -0.487  12.635  18.905  0.00  0.00    +0.000 C 
ATOM      8  C   UNL     1      -0.049  14.118  18.811  0.00  0.00    +0.000 C 
ENDROOT
BRANCH   5   9
ATOM      9  C   UNL     1       1.101   9.238  18.559  0.00  0.00    +0.000 A 
ATOM     10  O   UNL     1       2.028   8.985  17.584  0.00  0.00    +0.000 OA
ATOM     11  C   UNL     1       2.757   7.916  17.961  0.00  0.00    +0.000 A 
ATOM     12  C   UNL     1       3.810   7.407  17.216  0.00  0.00    +0.000 A 
ATOM     13  C   UNL     1       4.439   6.267  17.718  0.00  0.00    +0.000 A 
ATOM     14  C   UNL     1       5.654   5.722  17.033  0.00  0.00    +0.000 C 
ATOM     15  C   UNL     1       3.919   5.635  18.854  0.00  0.00    +0.000 A 
ATOM     16  C   UNL     1       2.835   6.168  19.598  0.00  0.00    +0.000 A 
ATOM     17  C   UNL     1       2.238   5.310  20.682  0.00  0.00    +0.000 C 
ATOM     18  C   UNL     1       2.301   7.411  19.165  0.00  0.00    +0.000 A 
ATOM     19  C   UNL     1       1.410   8.429  19.661  0.00  0.00    +0.000 A 
ATOM     20  C   UNL     1       0.982   8.603  21.073  0.00  0.00    +0.000 C 
ENDBRANCH   5   9
BRANCH   1  26
ATOM     21  C   UNL     1       1.811  16.767  19.474  0.00  0.00    +0.000 A 
ATOM     22  C   UNL     1       2.131  17.916  20.230  0.00  0.00    +0.000 A 
ATOM     23  C   UNL     1       2.117  17.894  21.623  0.00  0.00    +0.000 A 
ATOM     24  C   UNL     1       1.790  16.721  22.280  0.00  0.00    +0.000 A 
ATOM     25  C   UNL     1       1.485  15.575  21.542  0.00  0.00    +0.000 A 
ATOM     26  C   UNL     1       1.486  15.550  20.129  0.00  0.00    +0.000 A 
BRANCH  21  28
ATOM     27  C   UNL     1       3.070  16.773  17.445  0.00  0.00    +0.000 C 
ATOM     28  O   UNL     1       1.803  16.787  18.097  0.00  0.00    +0.000 OA
ENDBRANCH  21  28
ENDBRANCH   1  26
TORSDOF 3
ENDMDL
MODEL 6
REMARK VINA RESULT:      -7.4      2.370      4.201
REMARK  Name = 
REMARK  7 active torsions:
REMARK  status: ('A' for Active; 'I' for Inactive)
REMARK    1  A    between atoms: C_1  and  O_2
REMARK    2  A    between atoms: O_2  and  C_3
REMARK    3  A    between atoms: C_8  and  N_9
REMARK    4  A    between atoms: C_13  and  C_15
REMARK    5  A    between atoms: C_19  and  C_20
REMARK    6  A    between atoms: C_22  and  C_23
REMARK    7  A    between atoms: C_25  and  C_26
REMARK                            x       y       z     vdW  Elec       q    Type
REMARK                         _______ _______ _______ _____ _____    ______ ____
ROOT
ATOM      1  N   UNL     1      -0.090  11.644  21.216  0.00  0.00    +0.000 N 
ATOM      2  C   UNL     1       0.987  10.778  21.705  0.00  0.00    +0.000 C 
ATOM      3  C   UNL     1       1.185   9.617  20.706  0.00  0.00    +0.000 C 
ATOM      4  N   UNL     1       1.363  10.032  19.297  0.00  0.00    +0.000 N 
ATOM      5  C   UNL     1       1.921   9.189  18.295  0.00  0.00    +0.000 C 
ATOM      6  O   UNL     1       2.082   9.614  17.145  0.00  0.00    +0.000 OA
ATOM      7  C   UNL     1       0.468  11.113  18.852  0.00  0.00    +0.000 C 
ATOM      8  C   UNL     1       0.226  12.231  19.897  0.00  0.00    +0.000 C 
ENDROOT
BRANCH   5   9
ATOM      9  C   UNL     1       2.301   7.829  18.666  0.00  0.00    +0.000 A 
ATOM     10  O   UNL     1       1.458   7.172  19.521  0.00  0.00    +0.000 OA
ATOM     11  C   UNL     1       1.997   5.970  19.806  0.00  0.00    +0.000 A 
ATOM     12  C   UNL     1       1.385   5.030  20.622  0.00  0.00    +0.000 A 
ATOM     13  C   UNL     1       2.091   3.850  20.856  0.00  0.00    +0.000 A 
ATOM     14  C   UNL     1       1.453   2.740  21.634  0.00  0.00    +0.000 C 
ATOM     15  C   UNL     1       3.398   3.718  20.372  0.00  0.00    +0.000 A 
ATOM     16  C   UNL     1       4.010   4.695  19.544  0.00  0.00    +0.000 A 
ATOM     17  C   UNL     1       5.476   4.540  19.241  0.00  0.00    +0.000 C 
ATOM     18  C   UNL     1       3.224   5.823  19.185  0.00  0.00    +0.000 A 
ATOM     19  C   UNL     1       3.280   6.918  18.249  0.00  0.00    +0.000 A 
ATOM     20  C   UNL     1       4.158   7.001  17.054  0.00  0.00    +0.000 C 
ENDBRANCH   5   9
BRANCH   1  26
ATOM     21  C   UNL     1      -0.658  13.533  22.772  0.00  0.00    +0.000 A 
ATOM     22  C   UNL     1      -1.592  14.069  23.686  0.00  0.00    +0.000 A 
ATOM     23  C   UNL     1      -2.819  13.450  23.913  0.00  0.00    +0.000 A 
ATOM     24  C   UNL     1      -3.127  12.282  23.236  0.00  0.00    +0.000 A 
ATOM     25  C   UNL     1      -2.204  11.738  22.341  0.00  0.00    +0.000 A 
ATOM     26  C   UNL     1      -0.948  12.329  22.078  0.00  0.00    +0.000 A 
BRANCH  21  28
ATOM     27  C   UNL     1       0.508  15.532  22.179  0.00  0.00    +0.000 C 
ATOM     28  O   UNL     1       0.549  14.151  22.528  0.00  0.00    +0.000 OA
ENDBRANCH  21  28
ENDBRANCH   1  26
TORSDOF 3
ENDMDL
MODEL 7
REMARK VINA RESULT:      -7.4      2.785      3.906
REMARK  Name = 
REMARK  7 active torsions:
REMARK  status: ('A' for Active; 'I' for Inactive)
REMARK    1  A    between atoms: C_1  and  O_2
REMARK    2  A    between atoms: O_2  and  C_3
REMARK    3  A    between atoms: C_8  and  N_9
REMARK    4  A    between atoms: C_13  and  C_15
REMARK    5  A    between atoms: C_19  and  C_20
REMARK    6  A    between atoms: C_22  and  C_23
REMARK    7  A    between atoms: C_25  and  C_26
REMARK                            x       y       z     vdW  Elec       q    Type
REMARK                         _______ _______ _______ _____ _____    ______ ____
ROOT
ATOM      1  N   UNL     1      -0.115  13.222  21.255  0.00  0.00    +0.000 N 
ATOM      2  C   UNL     1       1.227  12.792  20.852  0.00  0.00    +0.000 C 
ATOM      3  C   UNL     1       1.146  11.344  20.319  0.00  0.00    +0.000 C 
ATOM      4  N   UNL     1       0.122  11.121  19.275  0.00  0.00    +0.000 N 
ATOM      5  C   UNL     1       0.125   9.998  18.400  0.00  0.00    +0.000 C 
ATOM      6  O   UNL     1      -0.737   9.894  17.521  0.00  0.00    +0.000 OA
ATOM      7  C   UNL     1      -1.169  11.784  19.523  0.00  0.00    +0.000 C 
ATOM      8  C   UNL     1      -1.066  13.208  20.124  0.00  0.00    +0.000 C 
ENDROOT
BRANCH   5   9
ATOM      9  C   UNL     1       1.171   8.993  18.566  0.00  0.00    +0.000 A 
ATOM     10  O   UNL     1       2.126   8.937  17.588  0.00  0.00    +0.000 OA
ATOM     11  C   UNL     1       2.959   7.915  17.867  0.00  0.00    +0.000 A 
ATOM     12  C   UNL     1       4.065   7.596  17.093  0.00  0.00    +0.000 A 
ATOM     13  C   UNL     1       4.805   6.481  17.489  0.00  0.00    +0.000 A 
ATOM     14  C   UNL     1       6.075   6.137  16.774  0.00  0.00    +0.000 C 
ATOM     15  C   UNL     1       4.345   5.686  18.546  0.00  0.00    +0.000 A 
ATOM     16  C   UNL     1       3.207   6.026  19.321  0.00  0.00    +0.000 A 
ATOM     17  C   UNL     1       2.695   5.006  20.302  0.00  0.00    +0.000 C 
ATOM     18  C   UNL     1       2.550   7.246  19.006  0.00  0.00    +0.000 A 
ATOM     19  C   UNL     1       1.554   8.111  19.586  0.00  0.00    +0.000 A 
ATOM     20  C   UNL     1       1.100   8.096  21.001  0.00  0.00    +0.000 C 
ENDBRANCH   5   9
BRANCH   1  26
ATOM     21  C   UNL     1      -1.182  13.893  23.429  0.00  0.00    +0.000 A 
ATOM     22  C   UNL     1      -1.373  14.917  24.383  0.00  0.00    +0.000 A 
ATOM     23  C   UNL     1      -0.723  16.144  24.269  0.00  0.00    +0.000 A 
ATOM     24  C   UNL     1       0.123  16.367  23.196  0.00  0.00    +0.000 A 
ATOM     25  C   UNL     1       0.308  15.365  22.241  0.00  0.00    +0.000 A 
ATOM     26  C   UNL     1      -0.330  14.107  22.314  0.00  0.00    +0.000 A 
BRANCH  21  28
ATOM     27  C   UNL     1      -3.224  12.655  23.402  0.00  0.00    +0.000 C 
ATOM     28  O   UNL     1      -1.807  12.671  23.546  0.00  0.00    +0.000 OA
ENDBRANCH  21  28
ENDBRANCH   1  26
TORSDOF 3
ENDMDL
MODEL 8
REMARK VINA RESULT:      -7.4      2.010      2.844
REMARK  Name = 
REMARK  7 active torsions:
REMARK  status: ('A' for Active; 'I' for Inactive)
REMARK    1  A    between atoms: C_1  and  O_2
REMARK    2  A    between atoms: O_2  and  C_3
REMARK    3  A    between atoms: C_8  and  N_9
REMARK    4  A    between atoms: C_13  and  C_15
REMARK    5  A    between atoms: C_19  and  C_20
REMARK    6  A    between atoms: C_22  and  C_23
REMARK    7  A    between atoms: C_25  and  C_26
REMARK                            x       y       z     vdW  Elec       q    Type
REMARK                         _______ _______ _______ _____ _____    ______ ____
ROOT
ATOM      1  N   UNL     1       0.908  10.552  19.306  0.00  0.00    +0.000 N 
ATOM      2  C   UNL     1       1.202   9.712  18.141  0.00  0.00    +0.000 C 
ATOM      3  C   UNL     1       2.067   8.515  18.594  0.00  0.00    +0.000 C 
ATOM      4  N   UNL     1       1.523   7.755  19.741  0.00  0.00    +0.000 N 
ATOM      5  C   UNL     1       1.939   6.435  20.074  0.00  0.00    +0.000 C 
ATOM      6  O   UNL     1       1.414   5.839  21.021  0.00  0.00    +0.000 OA
ATOM      7  C   UNL     1       0.958   8.581  20.820  0.00  0.00    +0.000 C 
ATOM      8  C   UNL     1       0.155   9.817  20.344  0.00  0.00    +0.000 C 
ENDROOT
BRANCH   5   9
ATOM      9  C   UNL     1       2.986   5.813  19.269  0.00  0.00    +0.000 A 
ATOM     10  O   UNL     1       4.264   5.907  19.750  0.00  0.00    +0.000 OA
ATOM     11  C   UNL     1       5.097   5.346  18.852  0.00  0.00    +0.000 A 
ATOM     12  C   UNL     1       6.467   5.240  19.041  0.00  0.00    +0.000 A 
ATOM     13  C   UNL     1       7.201   4.673  17.997  0.00  0.00    +0.000 A 
ATOM     14  C   UNL     1       8.667   4.421  18.167  0.00  0.00    +0.000 C 
ATOM     15  C   UNL     1       6.559   4.355  16.795  0.00  0.00    +0.000 A 
ATOM     16  C   UNL     1       5.156   4.477  16.619  0.00  0.00    +0.000 A 
ATOM     17  C   UNL     1       4.604   4.292  15.231  0.00  0.00    +0.000 C 
ATOM     18  C   UNL     1       4.399   4.911  17.740  0.00  0.00    +0.000 A 
ATOM     19  C   UNL     1       3.017   4.983  18.140  0.00  0.00    +0.000 A 
ATOM     20  C   UNL     1       1.886   4.255  17.509  0.00  0.00    +0.000 C 
ENDBRANCH   5   9
BRANCH   1  26
ATOM     21  C   UNL     1      -0.438  12.638  18.921  0.00  0.00    +0.000 A 
ATOM     22  C   UNL     1      -0.420  14.042  18.767  0.00  0.00    +0.000 A 
ATOM     23  C   UNL     1       0.757  14.772  18.915  0.00  0.00    +0.000 A 
ATOM     24  C   UNL     1       1.935  14.108  19.214  0.00  0.00    +0.000 A 
ATOM     25  C   UNL     1       1.930  12.719  19.354  0.00  0.00    +0.000 A 
ATOM     26  C   UNL     1       0.762  11.937  19.212  0.00  0.00    +0.000 A 
BRANCH  21  28
ATOM     27  C   UNL     1      -2.060  11.654  17.470  0.00  0.00    +0.000 C 
ATOM     28  O   UNL     1      -1.602  11.913  18.794  0.00  0.00    +0.000 OA
ENDBRANCH  21  28
ENDBRANCH   1  26
TORSDOF 3
ENDMDL
MODEL 9
REMARK VINA RESULT:      -7.3      1.019      1.796
REMARK  Name = 
REMARK  7 active torsions:
REMARK  status: ('A' for Active; 'I' for Inactive)
REMARK    1  A    between atoms: C_1  and  O_2
REMARK    2  A    between atoms: O_2  and  C_3
REMARK    3  A    between atoms: C_8  and  N_9
REMARK    4  A    between atoms: C_13  and  C_15
REMARK    5  A    between atoms: C_19  and  C_20
REMARK    6  A    between atoms: C_22  and  C_23
REMARK    7  A    between atoms: C_25  and  C_26
REMARK                            x       y       z     vdW  Elec       q    Type
REMARK                         _______ _______ _______ _____ _____    ______ ____
ROOT
ATOM      1  N   UNL     1       1.253  11.789  19.410  0.00  0.00    +0.000 N 
ATOM      2  C   UNL     1       1.123  10.789  18.346  0.00  0.00    +0.000 C 
ATOM      3  C   UNL     1       1.750   9.462  18.830  0.00  0.00    +0.000 C 
ATOM      4  N   UNL     1       1.260   8.986  20.142  0.00  0.00    +0.000 N 
ATOM      5  C   UNL     1       1.408   7.645  20.594  0.00  0.00    +0.000 C 
ATOM      6  O   UNL     1       0.938   7.302  21.685  0.00  0.00    +0.000 OA
ATOM      7  C   UNL     1       1.113  10.034  21.165  0.00  0.00    +0.000 C 
ATOM      8  C   UNL     1       0.550  11.380  20.644  0.00  0.00    +0.000 C 
ENDROOT
BRANCH   5   9
ATOM      9  C   UNL     1       2.114   6.697  19.737  0.00  0.00    +0.000 A 
ATOM     10  O   UNL     1       3.026   7.226  18.864  0.00  0.00    +0.000 OA
ATOM     11  C   UNL     1       3.523   6.224  18.112  0.00  0.00    +0.000 A 
ATOM     12  C   UNL     1       4.500   6.405  17.145  0.00  0.00    +0.000 A 
ATOM     13  C   UNL     1       4.879   5.275  16.419  0.00  0.00    +0.000 A 
ATOM     14  C   UNL     1       6.005   5.364  15.435  0.00  0.00    +0.000 C 
ATOM     15  C   UNL     1       4.194   4.070  16.610  0.00  0.00    +0.000 A 
ATOM     16  C   UNL     1       3.192   3.906  17.601  0.00  0.00    +0.000 A 
ATOM     17  C   UNL     1       2.392   2.631  17.588  0.00  0.00    +0.000 C 
ATOM     18  C   UNL     1       2.922   5.022  18.438  0.00  0.00    +0.000 A 
ATOM     19  C   UNL     1       2.211   5.302  19.660  0.00  0.00    +0.000 A 
ATOM     20  C   UNL     1       1.752   4.296  20.653  0.00  0.00    +0.000 C 
ENDBRANCH   5   9
BRANCH   1  26
ATOM     21  C   UNL     1       0.401  14.134  19.113  0.00  0.00    +0.000 A 
ATOM     22  C   UNL     1       0.705  15.461  18.737  0.00  0.00    +0.000 A 
ATOM     23  C   UNL     1       2.004  15.840  18.407  0.00  0.00    +0.000 A 
ATOM     24  C   UNL     1       3.017  14.897  18.442  0.00  0.00    +0.000 A 
ATOM     25  C   UNL     1       2.724  13.580  18.800  0.00  0.00    +0.000 A 
ATOM     26  C   UNL     1       1.422  13.148  19.142  0.00  0.00    +0.000 A 
BRANCH  21  28
ATOM     27  C   UNL     1      -1.569  14.592  20.384  0.00  0.00    +0.000 C 
ATOM     28  O   UNL     1      -0.878  13.756  19.460  0.00  0.00    +0.000 OA
ENDBRANCH  21  28
ENDBRANCH   1  26
TORSDOF 3
ENDMDL
