MODEL 1
REMARK VINA RESULT:      -7.5      0.000      0.000
REMARK  Name = 
REMARK  5 active torsions:
REMARK  status: ('A' for Active; 'I' for Inactive)
REMARK    1  A    between atoms: C_2  and  C_3
REMARK    2  A    between atoms: C_3  and  O_4
REMARK    3  A    between atoms: O_4  and  C_5
REMARK    4  A    between atoms: N_15  and  C_16
REMARK    5  A    between atoms: C_16  and  C_17
REMARK                            x       y       z     vdW  Elec       q    Type
REMARK                         _______ _______ _______ _____ _____    ______ ____
ROOT
ATOM      1  O   UNL     1       4.998   3.921  16.663  0.00  0.00    +0.000 OA
ENDROOT
BRANCH   1   2
ATOM      2  C   UNL     1       4.145   4.688  17.436  0.00  0.00    +0.000 A 
ATOM      3  C   UNL     1       4.161   6.092  17.411  0.00  0.00    +0.000 A 
ATOM      4  C   UNL     1       3.258   6.823  18.179  0.00  0.00    +0.000 A 
ATOM      5  C   UNL     1       2.335   6.157  18.971  0.00  0.00    +0.000 A 
ATOM      6  C   UNL     1       2.299   4.755  18.995  0.00  0.00    +0.000 A 
ATOM      7  C   UNL     1       1.357   4.090  19.791  0.00  0.00    +0.000 A 
ATOM      8  C   UNL     1       1.323   2.705  19.812  0.00  0.00    +0.000 A 
ATOM      9  C   UNL     1       2.239   2.029  19.032  0.00  0.00    +0.000 A 
ATOM     10  N   UNL     1       3.164   2.635  18.250  0.00  0.00    +0.000 NA
ATOM     11  C   UNL     1       3.206   3.990  18.220  0.00  0.00    +0.000 A 
ENDBRANCH   1   2
BRANCH   1  12
ATOM     12  C   UNL     1       6.324   4.418  16.500  0.00  0.00    +0.000 C 
BRANCH  12  14
ATOM     13  O   UNL     1       7.555   5.331  14.627  0.00  0.00    +0.000 OA
ATOM     14  C   UNL     1       6.740   4.503  15.029  0.00  0.00    +0.000 C 
ATOM     15  N   UNL     1       6.137   3.594  14.195  0.00  0.00    +0.000 N 
ATOM     16  H   UNL     1       5.381   3.037  14.589  0.00  0.00    +0.000 HD
BRANCH  15  17
ATOM     17  C   UNL     1       6.351   3.633  12.749  0.00  0.00    +0.000 C 
BRANCH  17  18
ATOM     18  C   UNL     1       5.185   3.150  11.874  0.00  0.00    +0.000 C 
ATOM     19  F   UNL     1       5.382   1.909  11.378  0.00  0.00    +0.000 F 
ATOM     20  F   UNL     1       4.017   3.144  12.555  0.00  0.00    +0.000 F 
ATOM     21  F   UNL     1       5.022   3.981  10.813  0.00  0.00    +0.000 F 
ENDBRANCH  17  18
ENDBRANCH  15  17
ENDBRANCH  12  14
ENDBRANCH   1  12
TORSDOF 5
ENDMDL
MODEL 2
REMARK VINA RESULT:      -7.5      1.951      2.254
REMARK  Name = 
REMARK  5 active torsions:
REMARK  status: ('A' for Active; 'I' for Inactive)
REMARK    1  A    between atoms: C_2  and  C_3
REMARK    2  A    between atoms: C_3  and  O_4
REMARK    3  A    between atoms: O_4  and  C_5
REMARK    4  A    between atoms: N_15  and  C_16
REMARK    5  A    between atoms: C_16  and  C_17
REMARK                            x       y       z     vdW  Elec       q    Type
REMARK                         _______ _______ _______ _____ _____    ______ ____
ROOT
ATOM      1  O   UNL     1       6.179   5.613  19.209  0.00  0.00    +0.000 OA
ENDROOT
BRANCH   1   2
ATOM      2  C   UNL     1       4.854   5.586  18.814  0.00  0.00    +0.000 A 
ATOM      3  C   UNL     1       4.200   6.711  18.287  0.00  0.00    +0.000 A 
ATOM      4  C   UNL     1       2.875   6.626  17.868  0.00  0.00    +0.000 A 
ATOM      5  C   UNL     1       2.198   5.421  17.971  0.00  0.00    +0.000 A 
ATOM      6  C   UNL     1       2.843   4.285  18.483  0.00  0.00    +0.000 A 
ATOM      7  C   UNL     1       2.155   3.068  18.575  0.00  0.00    +0.000 A 
ATOM      8  C   UNL     1       2.795   1.948  19.080  0.00  0.00    +0.000 A 
ATOM      9  C   UNL     1       4.108   2.085  19.480  0.00  0.00    +0.000 A 
ATOM     10  N   UNL     1       4.807   3.243  19.407  0.00  0.00    +0.000 NA
ATOM     11  C   UNL     1       4.192   4.346  18.913  0.00  0.00    +0.000 A 
ENDBRANCH   1   2
BRANCH   1  12
ATOM     12  C   UNL     1       7.102   6.184  18.285  0.00  0.00    +0.000 C 
BRANCH  12  14
ATOM     13  O   UNL     1       8.041   4.203  17.261  0.00  0.00    +0.000 OA
ATOM     14  C   UNL     1       7.412   5.248  17.114  0.00  0.00    +0.000 C 
ATOM     15  N   UNL     1       6.942   5.663  15.891  0.00  0.00    +0.000 N 
ATOM     16  H   UNL     1       6.549   6.601  15.842  0.00  0.00    +0.000 HD
BRANCH  15  17
ATOM     17  C   UNL     1       7.261   4.929  14.668  0.00  0.00    +0.000 C 
BRANCH  17  18
ATOM     18  C   UNL     1       6.181   3.970  14.146  0.00  0.00    +0.000 C 
ATOM     19  F   UNL     1       6.500   3.421  12.954  0.00  0.00    +0.000 F 
ATOM     20  F   UNL     1       5.942   2.963  15.016  0.00  0.00    +0.000 F 
ATOM     21  F   UNL     1       5.009   4.635  13.976  0.00  0.00    +0.000 F 
ENDBRANCH  17  18
ENDBRANCH  15  17
ENDBRANCH  12  14
ENDBRANCH   1  12
TORSDOF 5
ENDMDL
MODEL 3
REMARK VINA RESULT:      -7.5      4.077      5.068
REMARK  Name = 
REMARK  5 active torsions:
REMARK  status: ('A' for Active; 'I' for Inactive)
REMARK    1  A    between atoms: C_2  and  C_3
REMARK    2  A    between atoms: C_3  and  O_4
REMARK    3  A    between atoms: O_4  and  C_5
REMARK    4  A    between atoms: N_15  and  C_16
REMARK    5  A    between atoms: C_16  and  C_17
REMARK                            x       y       z     vdW  Elec       q    Type
REMARK                         _______ _______ _______ _____ _____    ______ ____
ROOT
ATOM      1  O   UNL     1       2.973   3.860  17.006  0.00  0.00    +0.000 OA
ENDROOT
BRANCH   1   2
ATOM      2  C   UNL     1       2.373   3.862  18.253  0.00  0.00    +0.000 A 
ATOM      3  C   UNL     1       1.972   2.682  18.900  0.00  0.00    +0.000 A 
ATOM      4  C   UNL     1       1.408   2.729  20.172  0.00  0.00    +0.000 A 
ATOM      5  C   UNL     1       1.242   3.952  20.803  0.00  0.00    +0.000 A 
ATOM      6  C   UNL     1       1.650   5.138  20.174  0.00  0.00    +0.000 A 
ATOM      7  C   UNL     1       1.487   6.369  20.824  0.00  0.00    +0.000 A 
ATOM      8  C   UNL     1       1.892   7.539  20.201  0.00  0.00    +0.000 A 
ATOM      9  C   UNL     1       2.448   7.436  18.942  0.00  0.00    +0.000 A 
ATOM     10  N   UNL     1       2.621   6.266  18.282  0.00  0.00    +0.000 NA
ATOM     11  C   UNL     1       2.230   5.115  18.882  0.00  0.00    +0.000 A 
ENDBRANCH   1   2
BRANCH   1  12
ATOM     12  C   UNL     1       4.261   3.257  16.925  0.00  0.00    +0.000 C 
BRANCH  12  14
ATOM     13  O   UNL     1       5.342   5.351  16.374  0.00  0.00    +0.000 OA
ATOM     14  C   UNL     1       5.393   4.286  16.986  0.00  0.00    +0.000 C 
ATOM     15  N   UNL     1       6.466   3.933  17.768  0.00  0.00    +0.000 N 
ATOM     16  H   UNL     1       6.480   2.981  18.130  0.00  0.00    +0.000 HD
BRANCH  15  17
ATOM     17  C   UNL     1       7.666   4.765  17.829  0.00  0.00    +0.000 C 
BRANCH  17  18
ATOM     18  C   UNL     1       7.780   5.712  19.033  0.00  0.00    +0.000 C 
ATOM     19  F   UNL     1       8.128   6.969  18.679  0.00  0.00    +0.000 F 
ATOM     20  F   UNL     1       6.620   5.783  19.725  0.00  0.00    +0.000 F 
ATOM     21  F   UNL     1       8.730   5.263  19.892  0.00  0.00    +0.000 F 
ENDBRANCH  17  18
ENDBRANCH  15  17
ENDBRANCH  12  14
ENDBRANCH   1  12
TORSDOF 5
ENDMDL
MODEL 4
REMARK VINA RESULT:      -7.4      1.917      2.194
REMARK  Name = 
REMARK  5 active torsions:
REMARK  status: ('A' for Active; 'I' for Inactive)
REMARK    1  A    between atoms: C_2  and  C_3
REMARK    2  A    between atoms: C_3  and  O_4
REMARK    3  A    between atoms: O_4  and  C_5
REMARK    4  A    between atoms: N_15  and  C_16
REMARK    5  A    between atoms: C_16  and  C_17
REMARK                            x       y       z     vdW  Elec       q    Type
REMARK                         _______ _______ _______ _____ _____    ______ ____
ROOT
ATOM      1  O   UNL     1       5.877   4.782  19.351  0.00  0.00    +0.000 OA
ENDROOT
BRANCH   1   2
ATOM      2  C   UNL     1       4.593   5.130  18.970  0.00  0.00    +0.000 A 
ATOM      3  C   UNL     1       4.220   6.456  18.698  0.00  0.00    +0.000 A 
ATOM      4  C   UNL     1       2.925   6.754  18.280  0.00  0.00    +0.000 A 
ATOM      5  C   UNL     1       2.000   5.732  18.132  0.00  0.00    +0.000 A 
ATOM      6  C   UNL     1       2.363   4.401  18.388  0.00  0.00    +0.000 A 
ATOM      7  C   UNL     1       1.424   3.373  18.226  0.00  0.00    +0.000 A 
ATOM      8  C   UNL     1       1.786   2.060  18.478  0.00  0.00    +0.000 A 
ATOM      9  C   UNL     1       3.082   1.819  18.888  0.00  0.00    +0.000 A 
ATOM     10  N   UNL     1       4.017   2.784  19.055  0.00  0.00    +0.000 NA
ATOM     11  C   UNL     1       3.675   4.073  18.810  0.00  0.00    +0.000 A 
ENDBRANCH   1   2
BRANCH   1  12
ATOM     12  C   UNL     1       6.937   5.526  18.756  0.00  0.00    +0.000 C 
BRANCH  12  14
ATOM     13  O   UNL     1       8.243   4.116  17.286  0.00  0.00    +0.000 OA
ATOM     14  C   UNL     1       7.357   4.961  17.397  0.00  0.00    +0.000 C 
ATOM     15  N   UNL     1       6.677   5.465  16.315  0.00  0.00    +0.000 N 
ATOM     16  H   UNL     1       6.055   6.253  16.488  0.00  0.00    +0.000 HD
BRANCH  15  17
ATOM     17  C   UNL     1       7.050   5.103  14.949  0.00  0.00    +0.000 C 
BRANCH  17  18
ATOM     18  C   UNL     1       6.192   4.024  14.271  0.00  0.00    +0.000 C 
ATOM     19  F   UNL     1       6.037   2.922  15.037  0.00  0.00    +0.000 F 
ATOM     20  F   UNL     1       4.961   4.487  13.958  0.00  0.00    +0.000 F 
ATOM     21  F   UNL     1       6.774   3.624  13.112  0.00  0.00    +0.000 F 
ENDBRANCH  17  18
ENDBRANCH  15  17
ENDBRANCH  12  14
ENDBRANCH   1  12
TORSDOF 5
ENDMDL
MODEL 5
REMARK VINA RESULT:      -7.4      2.146      2.714
REMARK  Name = 
REMARK  5 active torsions:
REMARK  status: ('A' for Active; 'I' for Inactive)
REMARK    1  A    between atoms: C_2  and  C_3
REMARK    2  A    between atoms: C_3  and  O_4
REMARK    3  A    between atoms: O_4  and  C_5
REMARK    4  A    between atoms: N_15  and  C_16
REMARK    5  A    between atoms: C_16  and  C_17
REMARK                            x       y       z     vdW  Elec       q    Type
REMARK                         _______ _______ _______ _____ _____    ______ ____
ROOT
ATOM      1  O   UNL     1       6.446   5.130  19.565  0.00  0.00    +0.000 OA
ENDROOT
BRANCH   1   2
ATOM      2  C   UNL     1       5.175   5.303  19.046  0.00  0.00    +0.000 A 
ATOM      3  C   UNL     1       4.723   6.537  18.552  0.00  0.00    +0.000 A 
ATOM      4  C   UNL     1       3.448   6.655  18.004  0.00  0.00    +0.000 A 
ATOM      5  C   UNL     1       2.621   5.544  17.945  0.00  0.00    +0.000 A 
ATOM      6  C   UNL     1       3.065   4.302  18.422  0.00  0.00    +0.000 A 
ATOM      7  C   UNL     1       2.226   3.181  18.349  0.00  0.00    +0.000 A 
ATOM      8  C   UNL     1       2.667   1.955  18.821  0.00  0.00    +0.000 A 
ATOM      9  C   UNL     1       3.939   1.893  19.352  0.00  0.00    +0.000 A 
ATOM     10  N   UNL     1       4.779   2.951  19.440  0.00  0.00    +0.000 NA
ATOM     11  C   UNL     1       4.359   4.156  18.981  0.00  0.00    +0.000 A 
ENDBRANCH   1   2
BRANCH   1  12
ATOM     12  C   UNL     1       7.485   5.897  18.963  0.00  0.00    +0.000 C 
BRANCH  12  14
ATOM     13  O   UNL     1       7.535   6.872  16.748  0.00  0.00    +0.000 OA
ATOM     14  C   UNL     1       7.430   5.856  17.433  0.00  0.00    +0.000 C 
ATOM     15  N   UNL     1       7.254   4.610  16.885  0.00  0.00    +0.000 N 
ATOM     16  H   UNL     1       7.045   3.848  17.528  0.00  0.00    +0.000 HD
BRANCH  15  17
ATOM     17  C   UNL     1       7.068   4.434  15.445  0.00  0.00    +0.000 C 
BRANCH  17  18
ATOM     18  C   UNL     1       5.635   4.597  14.918  0.00  0.00    +0.000 C 
ATOM     19  F   UNL     1       5.226   5.884  14.903  0.00  0.00    +0.000 F 
ATOM     20  F   UNL     1       5.504   4.106  13.664  0.00  0.00    +0.000 F 
ATOM     21  F   UNL     1       4.767   3.913  15.706  0.00  0.00    +0.000 F 
ENDBRANCH  17  18
ENDBRANCH  15  17
ENDBRANCH  12  14
ENDBRANCH   1  12
TORSDOF 5
ENDMDL
MODEL 6
REMARK VINA RESULT:      -7.3      0.998      1.103
REMARK  Name = 
REMARK  5 active torsions:
REMARK  status: ('A' for Active; 'I' for Inactive)
REMARK    1  A    between atoms: C_2  and  C_3
REMARK    2  A    between atoms: C_3  and  O_4
REMARK    3  A    between atoms: O_4  and  C_5
REMARK    4  A    between atoms: N_15  and  C_16
REMARK    5  A    between atoms: C_16  and  C_17
REMARK                            x       y       z     vdW  Elec       q    Type
REMARK                         _______ _______ _______ _____ _____    ______ ____
ROOT
ATOM      1  O   UNL     1       4.116   4.855  17.023  0.00  0.00    +0.000 OA
ENDROOT
BRANCH   1   2
ATOM      2  C   UNL     1       3.370   5.351  18.077  0.00  0.00    +0.000 A 
ATOM      3  C   UNL     1       3.236   6.727  18.325  0.00  0.00    +0.000 A 
ATOM      4  C   UNL     1       2.443   7.181  19.376  0.00  0.00    +0.000 A 
ATOM      5  C   UNL     1       1.781   6.268  20.182  0.00  0.00    +0.000 A 
ATOM      6  C   UNL     1       1.896   4.891  19.937  0.00  0.00    +0.000 A 
ATOM      7  C   UNL     1       1.216   3.974  20.750  0.00  0.00    +0.000 A 
ATOM      8  C   UNL     1       1.330   2.615  20.506  0.00  0.00    +0.000 A 
ATOM      9  C   UNL     1       2.126   2.218  19.451  0.00  0.00    +0.000 A 
ATOM     10  N   UNL     1       2.798   3.072  18.643  0.00  0.00    +0.000 NA
ATOM     11  C   UNL     1       2.694   4.404  18.872  0.00  0.00    +0.000 A 
ENDBRANCH   1   2
BRANCH   1  12
ATOM     12  C   UNL     1       5.259   5.616  16.643  0.00  0.00    +0.000 C 
BRANCH  12  14
ATOM     13  O   UNL     1       7.389   4.656  16.010  0.00  0.00    +0.000 OA
ATOM     14  C   UNL     1       6.205   4.833  15.729  0.00  0.00    +0.000 C 
ATOM     15  N   UNL     1       5.639   4.348  14.575  0.00  0.00    +0.000 N 
ATOM     16  H   UNL     1       4.691   4.654  14.362  0.00  0.00    +0.000 HD
BRANCH  15  17
ATOM     17  C   UNL     1       6.448   3.682  13.556  0.00  0.00    +0.000 C 
BRANCH  17  18
ATOM     18  C   UNL     1       5.744   3.360  12.230  0.00  0.00    +0.000 C 
ATOM     19  F   UNL     1       5.806   2.048  11.910  0.00  0.00    +0.000 F 
ATOM     20  F   UNL     1       4.440   3.719  12.255  0.00  0.00    +0.000 F 
ATOM     21  F   UNL     1       6.326   4.044  11.213  0.00  0.00    +0.000 F 
ENDBRANCH  17  18
ENDBRANCH  15  17
ENDBRANCH  12  14
ENDBRANCH   1  12
TORSDOF 5
ENDMDL
MODEL 7
REMARK VINA RESULT:      -7.2      1.999      2.251
REMARK  Name = 
REMARK  5 active torsions:
REMARK  status: ('A' for Active; 'I' for Inactive)
REMARK    1  A    between atoms: C_2  and  C_3
REMARK    2  A    between atoms: C_3  and  O_4
REMARK    3  A    between atoms: O_4  and  C_5
REMARK    4  A    between atoms: N_15  and  C_16
REMARK    5  A    between atoms: C_16  and  C_17
REMARK                            x       y       z     vdW  Elec       q    Type
REMARK                         _______ _______ _______ _____ _____    ______ ____
ROOT
ATOM      1  O   UNL     1       5.750   4.615  19.335  0.00  0.00    +0.000 OA
ENDROOT
BRANCH   1   2
ATOM      2  C   UNL     1       4.458   5.085  19.183  0.00  0.00    +0.000 A 
ATOM      3  C   UNL     1       4.150   6.204  18.393  0.00  0.00    +0.000 A 
ATOM      4  C   UNL     1       2.829   6.617  18.238  0.00  0.00    +0.000 A 
ATOM      5  C   UNL     1       1.812   5.916  18.867  0.00  0.00    +0.000 A 
ATOM      6  C   UNL     1       2.104   4.788  19.648  0.00  0.00    +0.000 A 
ATOM      7  C   UNL     1       1.069   4.079  20.273  0.00  0.00    +0.000 A 
ATOM      8  C   UNL     1       1.361   2.965  21.043  0.00  0.00    +0.000 A 
ATOM      9  C   UNL     1       2.686   2.597  21.163  0.00  0.00    +0.000 A 
ATOM     10  N   UNL     1       3.713   3.255  20.575  0.00  0.00    +0.000 NA
ATOM     11  C   UNL     1       3.440   4.346  19.818  0.00  0.00    +0.000 A 
ENDBRANCH   1   2
BRANCH   1  12
ATOM     12  C   UNL     1       6.787   5.428  18.791  0.00  0.00    +0.000 C 
BRANCH  12  14
ATOM     13  O   UNL     1       8.230   4.123  17.352  0.00  0.00    +0.000 OA
ATOM     14  C   UNL     1       7.288   4.908  17.441  0.00  0.00    +0.000 C 
ATOM     15  N   UNL     1       6.615   5.382  16.342  0.00  0.00    +0.000 N 
ATOM     16  H   UNL     1       5.938   6.127  16.501  0.00  0.00    +0.000 HD
BRANCH  15  17
ATOM     17  C   UNL     1       7.057   5.062  14.985  0.00  0.00    +0.000 C 
BRANCH  17  18
ATOM     18  C   UNL     1       6.219   4.025  14.222  0.00  0.00    +0.000 C 
ATOM     19  F   UNL     1       6.038   2.883  14.921  0.00  0.00    +0.000 F 
ATOM     20  F   UNL     1       5.000   4.509  13.895  0.00  0.00    +0.000 F 
ATOM     21  F   UNL     1       6.838   3.688  13.062  0.00  0.00    +0.000 F 
ENDBRANCH  17  18
ENDBRANCH  15  17
ENDBRANCH  12  14
ENDBRANCH   1  12
TORSDOF 5
ENDMDL
MODEL 8
REMARK VINA RESULT:      -7.2      3.783      4.369
REMARK  Name = 
REMARK  5 active torsions:
REMARK  status: ('A' for Active; 'I' for Inactive)
REMARK    1  A    between atoms: C_2  and  C_3
REMARK    2  A    between atoms: C_3  and  O_4
REMARK    3  A    between atoms: O_4  and  C_5
REMARK    4  A    between atoms: N_15  and  C_16
REMARK    5  A    between atoms: C_16  and  C_17
REMARK                            x       y       z     vdW  Elec       q    Type
REMARK                         _______ _______ _______ _____ _____    ______ ____
ROOT
ATOM      1  O   UNL     1       4.035   3.832  16.761  0.00  0.00    +0.000 OA
ENDROOT
BRANCH   1   2
ATOM      2  C   UNL     1       3.457   4.709  17.661  0.00  0.00    +0.000 A 
ATOM      3  C   UNL     1       3.553   6.103  17.526  0.00  0.00    +0.000 A 
ATOM      4  C   UNL     1       2.922   6.948  18.435  0.00  0.00    +0.000 A 
ATOM      5  C   UNL     1       2.192   6.406  19.481  0.00  0.00    +0.000 A 
ATOM      6  C   UNL     1       2.076   5.015  19.622  0.00  0.00    +0.000 A 
ATOM      7  C   UNL     1       1.327   4.475  20.677  0.00  0.00    +0.000 A 
ATOM      8  C   UNL     1       1.213   3.101  20.812  0.00  0.00    +0.000 A 
ATOM      9  C   UNL     1       1.857   2.309  19.883  0.00  0.00    +0.000 A 
ATOM     10  N   UNL     1       2.588   2.792  18.851  0.00  0.00    +0.000 NA
ATOM     11  C   UNL     1       2.706   4.135  18.707  0.00  0.00    +0.000 A 
ENDBRANCH   1   2
BRANCH   1  12
ATOM     12  C   UNL     1       4.886   4.409  15.774  0.00  0.00    +0.000 C 
BRANCH  12  14
ATOM     13  O   UNL     1       6.686   6.017  15.947  0.00  0.00    +0.000 OA
ATOM     14  C   UNL     1       6.171   4.986  16.374  0.00  0.00    +0.000 C 
ATOM     15  N   UNL     1       6.705   4.269  17.417  0.00  0.00    +0.000 N 
ATOM     16  H   UNL     1       6.286   3.362  17.616  0.00  0.00    +0.000 HD
BRANCH  15  17
ATOM     17  C   UNL     1       7.989   4.638  18.011  0.00  0.00    +0.000 C 
BRANCH  17  18
ATOM     18  C   UNL     1       7.940   5.635  19.178  0.00  0.00    +0.000 C 
ATOM     19  F   UNL     1       8.333   6.877  18.821  0.00  0.00    +0.000 F 
ATOM     20  F   UNL     1       6.698   5.728  19.705  0.00  0.00    +0.000 F 
ATOM     21  F   UNL     1       8.766   5.228  20.175  0.00  0.00    +0.000 F 
ENDBRANCH  17  18
ENDBRANCH  15  17
ENDBRANCH  12  14
ENDBRANCH   1  12
TORSDOF 5
ENDMDL
MODEL 9
REMARK VINA RESULT:      -7.2      1.276      1.625
REMARK  Name = 
REMARK  5 active torsions:
REMARK  status: ('A' for Active; 'I' for Inactive)
REMARK    1  A    between atoms: C_2  and  C_3
REMARK    2  A    between atoms: C_3  and  O_4
REMARK    3  A    between atoms: O_4  and  C_5
REMARK    4  A    between atoms: N_15  and  C_16
REMARK    5  A    between atoms: C_16  and  C_17
REMARK                            x       y       z     vdW  Elec       q    Type
REMARK                         _______ _______ _______ _____ _____    ______ ____
ROOT
ATOM      1  O   UNL     1       4.061   5.080  16.962  0.00  0.00    +0.000 OA
ENDROOT
BRANCH   1   2
ATOM      2  C   UNL     1       3.403   5.613  18.056  0.00  0.00    +0.000 A 
ATOM      3  C   UNL     1       2.999   6.957  18.113  0.00  0.00    +0.000 A 
ATOM      4  C   UNL     1       2.306   7.440  19.219  0.00  0.00    +0.000 A 
ATOM      5  C   UNL     1       2.011   6.587  20.271  0.00  0.00    +0.000 A 
ATOM      6  C   UNL     1       2.397   5.239  20.221  0.00  0.00    +0.000 A 
ATOM      7  C   UNL     1       2.087   4.380  21.285  0.00  0.00    +0.000 A 
ATOM      8  C   UNL     1       2.468   3.049  21.233  0.00  0.00    +0.000 A 
ATOM      9  C   UNL     1       3.151   2.621  20.113  0.00  0.00    +0.000 A 
ATOM     10  N   UNL     1       3.469   3.419  19.066  0.00  0.00    +0.000 NA
ATOM     11  C   UNL     1       3.101   4.723  19.105  0.00  0.00    +0.000 A 
ENDBRANCH   1   2
BRANCH   1  12
ATOM     12  C   UNL     1       5.147   5.844  16.442  0.00  0.00    +0.000 C 
BRANCH  12  14
ATOM     13  O   UNL     1       7.330   4.892  16.015  0.00  0.00    +0.000 OA
ATOM     14  C   UNL     1       6.153   4.982  15.674  0.00  0.00    +0.000 C 
ATOM     15  N   UNL     1       5.647   4.322  14.581  0.00  0.00    +0.000 N 
ATOM     16  H   UNL     1       4.697   4.559  14.299  0.00  0.00    +0.000 HD
BRANCH  15  17
ATOM     17  C   UNL     1       6.515   3.557  13.689  0.00  0.00    +0.000 C 
BRANCH  17  18
ATOM     18  C   UNL     1       6.068   3.456  12.223  0.00  0.00    +0.000 C 
ATOM     19  F   UNL     1       4.732   3.594  12.073  0.00  0.00    +0.000 F 
ATOM     20  F   UNL     1       6.670   4.388  11.450  0.00  0.00    +0.000 F 
ATOM     21  F   UNL     1       6.401   2.242  11.715  0.00  0.00    +0.000 F 
ENDBRANCH  17  18
ENDBRANCH  15  17
ENDBRANCH  12  14
ENDBRANCH   1  12
TORSDOF 5
ENDMDL
