MODEL 1
REMARK VINA RESULT:      -6.4      0.000      0.000
REMARK  Name = 
REMARK  10 active torsions:
REMARK  status: ('A' for Active; 'I' for Inactive)
REMARK    1  A    between atoms: C_1  and  O_2
REMARK    2  A    between atoms: O_2  and  C_3
REMARK    3  A    between atoms: C_6  and  N_7
REMARK    4  A    between atoms: C_11  and  N_12
REMARK    5  A    between atoms: N_12  and  C_13
REMARK    6  A    between atoms: C_13  and  C_14
REMARK    7  A    between atoms: C_14  and  C_15
REMARK    8  A    between atoms: C_15  and  N_16
REMARK    9  A    between atoms: N_16  and  C_17
REMARK   10  A    between atoms: N_16  and  C_18
REMARK                            x       y       z     vdW  Elec       q    Type
REMARK                         _______ _______ _______ _____ _____    ______ ____
ROOT
ATOM      1  C   UNL     1      -3.086  12.940  21.343  0.00  0.00    +0.000 A 
ATOM      2  C   UNL     1      -2.412  13.011  22.559  0.00  0.00    +0.000 A 
ATOM      3  C   UNL     1      -1.221  12.340  22.695  0.00  0.00    +0.000 A 
ATOM      4  C   UNL     1      -0.732  11.586  21.615  0.00  0.00    +0.000 A 
ATOM      5  C   UNL     1      -1.439  11.377  20.364  0.00  0.00    +0.000 A 
ATOM      6  C   UNL     1      -1.170  10.533  19.194  0.00  0.00    +0.000 A 
ATOM      7  C   UNL     1      -2.031  10.587  18.035  0.00  0.00    +0.000 A 
ATOM      8  C   UNL     1      -1.872   9.827  16.838  0.00  0.00    +0.000 A 
ATOM      9  C   UNL     1      -2.778   9.915  15.775  0.00  0.00    +0.000 A 
ATOM     10  C   UNL     1      -3.861  10.773  15.871  0.00  0.00    +0.000 A 
ATOM     11  C   UNL     1      -4.023  11.526  17.032  0.00  0.00    +0.000 A 
ATOM     12  C   UNL     1      -3.139  11.433  18.102  0.00  0.00    +0.000 A 
ATOM     13  N   UNL     1      -3.411  12.160  19.178  0.00  0.00    +0.000 NA
ATOM     14  C   UNL     1      -2.636  12.141  20.269  0.00  0.00    +0.000 A 
ENDROOT
BRANCH   4  15
ATOM     15  N   UNL     1       0.603  11.086  21.864  0.00  0.00    +0.000 N 
ATOM     16  O   UNL     1       1.536  11.652  21.272  0.00  0.00    +0.000 OA
ATOM     17  O   UNL     1       0.711  10.088  22.588  0.00  0.00    +0.000 OA
ENDBRANCH   4  15
BRANCH   1  19
ATOM     18  C   UNL     1      -5.320  13.317  22.081  0.00  0.00    +0.000 C 
ATOM     19  O   UNL     1      -4.281  13.612  21.155  0.00  0.00    +0.000 OA
ENDBRANCH   1  19
BRANCH   6  20
ATOM     20  N   UNL     1      -0.034   9.696  19.032  0.00  0.00    +0.000 N 
ATOM     21  H   UNL     1      -0.336   8.757  18.762  0.00  0.00    +0.000 HD
BRANCH  20  22
ATOM     22  C   UNL     1       1.156  10.135  18.316  0.00  0.00    +0.000 C 
BRANCH  22  23
ATOM     23  C   UNL     1       2.027   8.985  17.864  0.00  0.00    +0.000 C 
BRANCH  23  24
ATOM     24  C   UNL     1       2.170   7.907  18.923  0.00  0.00    +0.000 C 
BRANCH  24  25
ATOM     25  N   UNL     1       2.878   6.664  18.414  0.00  0.00    +0.000 N 
ATOM     26  C   UNL     1       4.002   7.032  17.483  0.00  0.00    +0.000 C 
ATOM     27  C   UNL     1       3.437   5.915  19.590  0.00  0.00    +0.000 C 
ATOM     28  O   UNL     1       1.990   5.849  17.759  0.00  0.00    +0.000 OA
ENDBRANCH  24  25
ENDBRANCH  23  24
ENDBRANCH  22  23
ENDBRANCH  20  22
ENDBRANCH   6  20
TORSDOF 7
ENDMDL
MODEL 2
REMARK VINA RESULT:      -6.1      0.793      1.081
REMARK  Name = 
REMARK  10 active torsions:
REMARK  status: ('A' for Active; 'I' for Inactive)
REMARK    1  A    between atoms: C_1  and  O_2
REMARK    2  A    between atoms: O_2  and  C_3
REMARK    3  A    between atoms: C_6  and  N_7
REMARK    4  A    between atoms: C_11  and  N_12
REMARK    5  A    between atoms: N_12  and  C_13
REMARK    6  A    between atoms: C_13  and  C_14
REMARK    7  A    between atoms: C_14  and  C_15
REMARK    8  A    between atoms: C_15  and  N_16
REMARK    9  A    between atoms: N_16  and  C_17
REMARK   10  A    between atoms: N_16  and  C_18
REMARK                            x       y       z     vdW  Elec       q    Type
REMARK                         _______ _______ _______ _____ _____    ______ ____
ROOT
ATOM      1  C   UNL     1      -2.892  12.999  21.283  0.00  0.00    +0.000 A 
ATOM      2  C   UNL     1      -2.126  13.116  22.439  0.00  0.00    +0.000 A 
ATOM      3  C   UNL     1      -0.903  12.490  22.489  0.00  0.00    +0.000 A 
ATOM      4  C   UNL     1      -0.475  11.733  21.385  0.00  0.00    +0.000 A 
ATOM      5  C   UNL     1      -1.273  11.476  20.199  0.00  0.00    +0.000 A 
ATOM      6  C   UNL     1      -1.069  10.619  19.025  0.00  0.00    +0.000 A 
ATOM      7  C   UNL     1      -2.021  10.622  17.938  0.00  0.00    +0.000 A 
ATOM      8  C   UNL     1      -1.931   9.846  16.745  0.00  0.00    +0.000 A 
ATOM      9  C   UNL     1      -2.923   9.881  15.758  0.00  0.00    +0.000 A 
ATOM     10  C   UNL     1      -4.024  10.702  15.928  0.00  0.00    +0.000 A 
ATOM     11  C   UNL     1      -4.120  11.471  17.085  0.00  0.00    +0.000 A 
ATOM     12  C   UNL     1      -3.150  11.429  18.081  0.00  0.00    +0.000 A 
ATOM     13  N   UNL     1      -3.361  12.167  19.164  0.00  0.00    +0.000 NA
ATOM     14  C   UNL     1      -2.501  12.195  20.189  0.00  0.00    +0.000 A 
ENDROOT
BRANCH   4  15
ATOM     15  N   UNL     1       0.892  11.285  21.534  0.00  0.00    +0.000 N 
ATOM     16  O   UNL     1       1.064  10.120  21.929  0.00  0.00    +0.000 OA
ATOM     17  O   UNL     1       1.788  12.114  21.329  0.00  0.00    +0.000 OA
ENDBRANCH   4  15
BRANCH   1  19
ATOM     18  C   UNL     1      -5.129  13.179  22.082  0.00  0.00    +0.000 C 
ATOM     19  O   UNL     1      -4.122  13.625  21.181  0.00  0.00    +0.000 OA
ENDBRANCH   1  19
BRANCH   6  20
ATOM     20  N   UNL     1       0.081   9.820  18.784  0.00  0.00    +0.000 N 
ATOM     21  H   UNL     1      -0.205   8.916  18.400  0.00  0.00    +0.000 HD
BRANCH  20  22
ATOM     22  C   UNL     1       1.277  10.353  18.147  0.00  0.00    +0.000 C 
BRANCH  22  23
ATOM     23  C   UNL     1       2.380   9.328  18.017  0.00  0.00    +0.000 C 
BRANCH  23  24
ATOM     24  C   UNL     1       1.854   7.942  17.692  0.00  0.00    +0.000 C 
BRANCH  24  25
ATOM     25  N   UNL     1       2.577   6.841  18.448  0.00  0.00    +0.000 N 
ATOM     26  C   UNL     1       2.334   6.960  19.929  0.00  0.00    +0.000 C 
ATOM     27  C   UNL     1       2.062   5.513  17.969  0.00  0.00    +0.000 C 
ATOM     28  O   UNL     1       3.925   6.902  18.200  0.00  0.00    +0.000 OA
ENDBRANCH  24  25
ENDBRANCH  23  24
ENDBRANCH  22  23
ENDBRANCH  20  22
ENDBRANCH   6  20
TORSDOF 7
ENDMDL
MODEL 3
REMARK VINA RESULT:      -6.1      3.604      9.435
REMARK  Name = 
REMARK  10 active torsions:
REMARK  status: ('A' for Active; 'I' for Inactive)
REMARK    1  A    between atoms: C_1  and  O_2
REMARK    2  A    between atoms: O_2  and  C_3
REMARK    3  A    between atoms: C_6  and  N_7
REMARK    4  A    between atoms: C_11  and  N_12
REMARK    5  A    between atoms: N_12  and  C_13
REMARK    6  A    between atoms: C_13  and  C_14
REMARK    7  A    between atoms: C_14  and  C_15
REMARK    8  A    between atoms: C_15  and  N_16
REMARK    9  A    between atoms: N_16  and  C_17
REMARK   10  A    between atoms: N_16  and  C_18
REMARK                            x       y       z     vdW  Elec       q    Type
REMARK                         _______ _______ _______ _____ _____    ______ ____
ROOT
ATOM      1  C   UNL     1       4.415   2.263  20.654  0.00  0.00    +0.000 A 
ATOM      2  C   UNL     1       3.328   1.964  21.470  0.00  0.00    +0.000 A 
ATOM      3  C   UNL     1       2.168   2.684  21.317  0.00  0.00    +0.000 A 
ATOM      4  C   UNL     1       2.121   3.713  20.362  0.00  0.00    +0.000 A 
ATOM      5  C   UNL     1       3.251   4.151  19.562  0.00  0.00    +0.000 A 
ATOM      6  C   UNL     1       3.441   5.271  18.631  0.00  0.00    +0.000 A 
ATOM      7  C   UNL     1       4.681   5.419  17.904  0.00  0.00    +0.000 A 
ATOM      8  C   UNL     1       4.983   6.453  16.969  0.00  0.00    +0.000 A 
ATOM      9  C   UNL     1       6.229   6.543  16.336  0.00  0.00    +0.000 A 
ATOM     10  C   UNL     1       7.201   5.596  16.609  0.00  0.00    +0.000 A 
ATOM     11  C   UNL     1       6.915   4.577  17.514  0.00  0.00    +0.000 A 
ATOM     12  C   UNL     1       5.688   4.489  18.162  0.00  0.00    +0.000 A 
ATOM     13  N   UNL     1       5.535   3.505  19.041  0.00  0.00    +0.000 NA
ATOM     14  C   UNL     1       4.402   3.331  19.730  0.00  0.00    +0.000 A 
ENDROOT
BRANCH   4  15
ATOM     15  N   UNL     1       0.787   4.254  20.213  0.00  0.00    +0.000 N 
ATOM     16  O   UNL     1      -0.039   3.555  19.604  0.00  0.00    +0.000 OA
ATOM     17  O   UNL     1       0.587   5.399  20.637  0.00  0.00    +0.000 OA
ENDBRANCH   4  15
BRANCH   1  19
ATOM     18  C   UNL     1       5.665   0.600  21.815  0.00  0.00    +0.000 C 
ATOM     19  O   UNL     1       5.599   1.554  20.761  0.00  0.00    +0.000 OA
ENDBRANCH   1  19
BRANCH   6  20
ATOM     20  N   UNL     1       2.444   6.217  18.275  0.00  0.00    +0.000 N 
ATOM     21  H   UNL     1       1.524   5.771  18.303  0.00  0.00    +0.000 HD
BRANCH  20  22
ATOM     22  C   UNL     1       2.434   7.572  18.809  0.00  0.00    +0.000 C 
BRANCH  22  23
ATOM     23  C   UNL     1       1.848   8.580  17.847  0.00  0.00    +0.000 C 
BRANCH  23  24
ATOM     24  C   UNL     1       1.762   9.974  18.442  0.00  0.00    +0.000 C 
BRANCH  24  25
ATOM     25  N   UNL     1       0.342  10.386  18.788  0.00  0.00    +0.000 N 
ATOM     26  C   UNL     1      -0.066   9.827  20.124  0.00  0.00    +0.000 C 
ATOM     27  C   UNL     1       0.277  11.886  18.840  0.00  0.00    +0.000 C 
ATOM     28  O   UNL     1      -0.527   9.944  17.822  0.00  0.00    +0.000 OA
ENDBRANCH  24  25
ENDBRANCH  23  24
ENDBRANCH  22  23
ENDBRANCH  20  22
ENDBRANCH   6  20
TORSDOF 7
ENDMDL
MODEL 4
REMARK VINA RESULT:      -6.1      3.048      8.635
REMARK  Name = 
REMARK  10 active torsions:
REMARK  status: ('A' for Active; 'I' for Inactive)
REMARK    1  A    between atoms: C_1  and  O_2
REMARK    2  A    between atoms: O_2  and  C_3
REMARK    3  A    between atoms: C_6  and  N_7
REMARK    4  A    between atoms: C_11  and  N_12
REMARK    5  A    between atoms: N_12  and  C_13
REMARK    6  A    between atoms: C_13  and  C_14
REMARK    7  A    between atoms: C_14  and  C_15
REMARK    8  A    between atoms: C_15  and  N_16
REMARK    9  A    between atoms: N_16  and  C_17
REMARK   10  A    between atoms: N_16  and  C_18
REMARK                            x       y       z     vdW  Elec       q    Type
REMARK                         _______ _______ _______ _____ _____    ______ ____
ROOT
ATOM      1  C   UNL     1       3.231   3.011  19.964  0.00  0.00    +0.000 A 
ATOM      2  C   UNL     1       2.503   3.261  21.124  0.00  0.00    +0.000 A 
ATOM      3  C   UNL     1       2.007   4.526  21.334  0.00  0.00    +0.000 A 
ATOM      4  C   UNL     1       2.268   5.530  20.387  0.00  0.00    +0.000 A 
ATOM      5  C   UNL     1       3.114   5.365  19.219  0.00  0.00    +0.000 A 
ATOM      6  C   UNL     1       3.613   6.305  18.207  0.00  0.00    +0.000 A 
ATOM      7  C   UNL     1       4.395   5.833  17.087  0.00  0.00    +0.000 A 
ATOM      8  C   UNL     1       4.927   6.640  16.039  0.00  0.00    +0.000 A 
ATOM      9  C   UNL     1       5.709   6.102  15.009  0.00  0.00    +0.000 A 
ATOM     10  C   UNL     1       5.970   4.742  14.991  0.00  0.00    +0.000 A 
ATOM     11  C   UNL     1       5.450   3.943  16.006  0.00  0.00    +0.000 A 
ATOM     12  C   UNL     1       4.687   4.469  17.043  0.00  0.00    +0.000 A 
ATOM     13  N   UNL     1       4.279   3.626  17.984  0.00  0.00    +0.000 NA
ATOM     14  C   UNL     1       3.550   4.023  19.033  0.00  0.00    +0.000 A 
ENDROOT
BRANCH   4  15
ATOM     15  N   UNL     1       1.539   6.746  20.673  0.00  0.00    +0.000 N 
ATOM     16  O   UNL     1       2.210   7.771  20.878  0.00  0.00    +0.000 OA
ATOM     17  O   UNL     1       0.308   6.663  20.766  0.00  0.00    +0.000 OA
ENDBRANCH   4  15
BRANCH   1  19
ATOM     18  C   UNL     1       4.879   1.363  20.457  0.00  0.00    +0.000 C 
ATOM     19  O   UNL     1       3.736   1.749  19.703  0.00  0.00    +0.000 OA
ENDBRANCH   1  19
BRANCH   6  20
ATOM     20  N   UNL     1       3.306   7.690  18.154  0.00  0.00    +0.000 N 
ATOM     21  H   UNL     1       4.123   8.209  17.819  0.00  0.00    +0.000 HD
BRANCH  20  22
ATOM     22  C   UNL     1       2.054   8.188  17.601  0.00  0.00    +0.000 C 
BRANCH  22  23
ATOM     23  C   UNL     1       1.820   9.651  17.898  0.00  0.00    +0.000 C 
BRANCH  23  24
ATOM     24  C   UNL     1       0.507   9.897  18.620  0.00  0.00    +0.000 C 
BRANCH  24  25
ATOM     25  N   UNL     1       0.457  11.245  19.318  0.00  0.00    +0.000 N 
ATOM     26  C   UNL     1      -0.897  11.882  19.156  0.00  0.00    +0.000 C 
ATOM     27  C   UNL     1       0.732  11.038  20.781  0.00  0.00    +0.000 C 
ATOM     28  O   UNL     1       1.419  12.079  18.806  0.00  0.00    +0.000 OA
ENDBRANCH  24  25
ENDBRANCH  23  24
ENDBRANCH  22  23
ENDBRANCH  20  22
ENDBRANCH   6  20
TORSDOF 7
ENDMDL
MODEL 5
REMARK VINA RESULT:      -6.0      3.241      9.425
REMARK  Name = 
REMARK  10 active torsions:
REMARK  status: ('A' for Active; 'I' for Inactive)
REMARK    1  A    between atoms: C_1  and  O_2
REMARK    2  A    between atoms: O_2  and  C_3
REMARK    3  A    between atoms: C_6  and  N_7
REMARK    4  A    between atoms: C_11  and  N_12
REMARK    5  A    between atoms: N_12  and  C_13
REMARK    6  A    between atoms: C_13  and  C_14
REMARK    7  A    between atoms: C_14  and  C_15
REMARK    8  A    between atoms: C_15  and  N_16
REMARK    9  A    between atoms: N_16  and  C_17
REMARK   10  A    between atoms: N_16  and  C_18
REMARK                            x       y       z     vdW  Elec       q    Type
REMARK                         _______ _______ _______ _____ _____    ______ ____
ROOT
ATOM      1  C   UNL     1       4.384   2.233  20.635  0.00  0.00    +0.000 A 
ATOM      2  C   UNL     1       3.288   1.936  21.441  0.00  0.00    +0.000 A 
ATOM      3  C   UNL     1       2.139   2.676  21.294  0.00  0.00    +0.000 A 
ATOM      4  C   UNL     1       2.112   3.721  20.356  0.00  0.00    +0.000 A 
ATOM      5  C   UNL     1       3.252   4.156  19.569  0.00  0.00    +0.000 A 
ATOM      6  C   UNL     1       3.463   5.288  18.658  0.00  0.00    +0.000 A 
ATOM      7  C   UNL     1       4.708   5.431  17.940  0.00  0.00    +0.000 A 
ATOM      8  C   UNL     1       5.030   6.476  17.024  0.00  0.00    +0.000 A 
ATOM      9  C   UNL     1       6.280   6.559  16.399  0.00  0.00    +0.000 A 
ATOM     10  C   UNL     1       7.238   5.593  16.660  0.00  0.00    +0.000 A 
ATOM     11  C   UNL     1       6.933   4.564  17.547  0.00  0.00    +0.000 A 
ATOM     12  C   UNL     1       5.701   4.482  18.188  0.00  0.00    +0.000 A 
ATOM     13  N   UNL     1       5.530   3.487  19.049  0.00  0.00    +0.000 NA
ATOM     14  C   UNL     1       4.390   3.317  19.730  0.00  0.00    +0.000 A 
ENDROOT
BRANCH   4  15
ATOM     15  N   UNL     1       0.786   4.283  20.210  0.00  0.00    +0.000 N 
ATOM     16  O   UNL     1       0.606   5.425  20.661  0.00  0.00    +0.000 OA
ATOM     17  O   UNL     1      -0.086   3.559  19.714  0.00  0.00    +0.000 OA
ENDBRANCH   4  15
BRANCH   1  19
ATOM     18  C   UNL     1       5.649   0.616  21.843  0.00  0.00    +0.000 C 
ATOM     19  O   UNL     1       5.556   1.506  20.737  0.00  0.00    +0.000 OA
ENDBRANCH   1  19
BRANCH   6  20
ATOM     20  N   UNL     1       2.482   6.255  18.313  0.00  0.00    +0.000 N 
ATOM     21  H   UNL     1       1.574   5.795  18.199  0.00  0.00    +0.000 HD
BRANCH  20  22
ATOM     22  C   UNL     1       2.384   7.539  18.992  0.00  0.00    +0.000 C 
BRANCH  22  23
ATOM     23  C   UNL     1       2.304   8.706  18.035  0.00  0.00    +0.000 C 
BRANCH  23  24
ATOM     24  C   UNL     1       0.935   9.362  18.027  0.00  0.00    +0.000 C 
BRANCH  24  25
ATOM     25  N   UNL     1       0.882  10.637  18.851  0.00  0.00    +0.000 N 
ATOM     26  C   UNL     1       1.970  11.590  18.433  0.00  0.00    +0.000 C 
ATOM     27  C   UNL     1      -0.454  11.291  18.638  0.00  0.00    +0.000 C 
ATOM     28  O   UNL     1       1.018  10.344  20.185  0.00  0.00    +0.000 OA
ENDBRANCH  24  25
ENDBRANCH  23  24
ENDBRANCH  22  23
ENDBRANCH  20  22
ENDBRANCH   6  20
TORSDOF 7
ENDMDL
MODEL 6
REMARK VINA RESULT:      -6.0      3.190      9.015
REMARK  Name = 
REMARK  10 active torsions:
REMARK  status: ('A' for Active; 'I' for Inactive)
REMARK    1  A    between atoms: C_1  and  O_2
REMARK    2  A    between atoms: O_2  and  C_3
REMARK    3  A    between atoms: C_6  and  N_7
REMARK    4  A    between atoms: C_11  and  N_12
REMARK    5  A    between atoms: N_12  and  C_13
REMARK    6  A    between atoms: C_13  and  C_14
REMARK    7  A    between atoms: C_14  and  C_15
REMARK    8  A    between atoms: C_15  and  N_16
REMARK    9  A    between atoms: N_16  and  C_17
REMARK   10  A    between atoms: N_16  and  C_18
REMARK                            x       y       z     vdW  Elec       q    Type
REMARK                         _______ _______ _______ _____ _____    ______ ____
ROOT
ATOM      1  C   UNL     1       5.175   5.351  16.961  0.00  0.00    +0.000 A 
ATOM      2  C   UNL     1       5.138   6.450  16.108  0.00  0.00    +0.000 A 
ATOM      3  C   UNL     1       4.241   7.459  16.367  0.00  0.00    +0.000 A 
ATOM      4  C   UNL     1       3.375   7.341  17.466  0.00  0.00    +0.000 A 
ATOM      5  C   UNL     1       3.283   6.173  18.324  0.00  0.00    +0.000 A 
ATOM      6  C   UNL     1       2.370   5.804  19.414  0.00  0.00    +0.000 A 
ATOM      7  C   UNL     1       2.568   4.581  20.156  0.00  0.00    +0.000 A 
ATOM      8  C   UNL     1       1.761   4.118  21.237  0.00  0.00    +0.000 A 
ATOM      9  C   UNL     1       2.004   2.897  21.878  0.00  0.00    +0.000 A 
ATOM     10  C   UNL     1       3.067   2.111  21.466  0.00  0.00    +0.000 A 
ATOM     11  C   UNL     1       3.868   2.556  20.417  0.00  0.00    +0.000 A 
ATOM     12  C   UNL     1       3.624   3.759  19.762  0.00  0.00    +0.000 A 
ATOM     13  N   UNL     1       4.420   4.066  18.745  0.00  0.00    +0.000 NA
ATOM     14  C   UNL     1       4.272   5.192  18.035  0.00  0.00    +0.000 A 
ENDROOT
BRANCH   4  15
ATOM     15  N   UNL     1       2.619   8.553  17.693  0.00  0.00    +0.000 N 
ATOM     16  O   UNL     1       3.248   9.538  18.115  0.00  0.00    +0.000 OA
ATOM     17  O   UNL     1       1.395   8.501  17.522  0.00  0.00    +0.000 OA
ENDBRANCH   4  15
BRANCH   1  19
ATOM     18  C   UNL     1       7.405   4.546  17.187  0.00  0.00    +0.000 C 
ATOM     19  O   UNL     1       6.071   4.319  16.749  0.00  0.00    +0.000 OA
ENDBRANCH   1  19
BRANCH   6  20
ATOM     20  N   UNL     1       1.315   6.616  19.908  0.00  0.00    +0.000 N 
ATOM     21  H   UNL     1       0.518   6.025  20.162  0.00  0.00    +0.000 HD
BRANCH  20  22
ATOM     22  C   UNL     1       1.546   7.694  20.860  0.00  0.00    +0.000 C 
BRANCH  22  23
ATOM     23  C   UNL     1       0.266   8.248  21.443  0.00  0.00    +0.000 C 
BRANCH  23  24
ATOM     24  C   UNL     1      -0.208   9.499  20.726  0.00  0.00    +0.000 C 
BRANCH  24  25
ATOM     25  N   UNL     1      -0.186  10.734  21.610  0.00  0.00    +0.000 N 
ATOM     26  C   UNL     1      -1.010  11.840  21.005  0.00  0.00    +0.000 C 
ATOM     27  C   UNL     1      -0.756  10.374  22.953  0.00  0.00    +0.000 C 
ATOM     28  O   UNL     1       1.104  11.168  21.785  0.00  0.00    +0.000 OA
ENDBRANCH  24  25
ENDBRANCH  23  24
ENDBRANCH  22  23
ENDBRANCH  20  22
ENDBRANCH   6  20
TORSDOF 7
ENDMDL
MODEL 7
REMARK VINA RESULT:      -6.0      3.720      9.335
REMARK  Name = 
REMARK  10 active torsions:
REMARK  status: ('A' for Active; 'I' for Inactive)
REMARK    1  A    between atoms: C_1  and  O_2
REMARK    2  A    between atoms: O_2  and  C_3
REMARK    3  A    between atoms: C_6  and  N_7
REMARK    4  A    between atoms: C_11  and  N_12
REMARK    5  A    between atoms: N_12  and  C_13
REMARK    6  A    between atoms: C_13  and  C_14
REMARK    7  A    between atoms: C_14  and  C_15
REMARK    8  A    between atoms: C_15  and  N_16
REMARK    9  A    between atoms: N_16  and  C_17
REMARK   10  A    between atoms: N_16  and  C_18
REMARK                            x       y       z     vdW  Elec       q    Type
REMARK                         _______ _______ _______ _____ _____    ______ ____
ROOT
ATOM      1  C   UNL     1       4.290   2.358  20.472  0.00  0.00    +0.000 A 
ATOM      2  C   UNL     1       3.211   2.187  21.334  0.00  0.00    +0.000 A 
ATOM      3  C   UNL     1       2.254   3.171  21.401  0.00  0.00    +0.000 A 
ATOM      4  C   UNL     1       2.405   4.328  20.619  0.00  0.00    +0.000 A 
ATOM      5  C   UNL     1       3.561   4.620  19.789  0.00  0.00    +0.000 A 
ATOM      6  C   UNL     1       3.965   5.805  19.021  0.00  0.00    +0.000 A 
ATOM      7  C   UNL     1       5.159   5.782  18.209  0.00  0.00    +0.000 A 
ATOM      8  C   UNL     1       5.651   6.859  17.414  0.00  0.00    +0.000 A 
ATOM      9  C   UNL     1       6.843   6.763  16.686  0.00  0.00    +0.000 A 
ATOM     10  C   UNL     1       7.569   5.585  16.720  0.00  0.00    +0.000 A 
ATOM     11  C   UNL     1       7.095   4.523  17.487  0.00  0.00    +0.000 A 
ATOM     12  C   UNL     1       5.922   4.614  18.229  0.00  0.00    +0.000 A 
ATOM     13  N   UNL     1       5.585   3.560  18.962  0.00  0.00    +0.000 NA
ATOM     14  C   UNL     1       4.484   3.540  19.723  0.00  0.00    +0.000 A 
ENDROOT
BRANCH   4  15
ATOM     15  N   UNL     1       1.237   5.179  20.680  0.00  0.00    +0.000 N 
ATOM     16  O   UNL     1       1.398   6.325  21.131  0.00  0.00    +0.000 OA
ATOM     17  O   UNL     1       0.153   4.682  20.349  0.00  0.00    +0.000 OA
ENDBRANCH   4  15
BRANCH   1  19
ATOM     18  C   UNL     1       5.602   0.690  21.554  0.00  0.00    +0.000 C 
ATOM     19  O   UNL     1       5.269   1.387  20.360  0.00  0.00    +0.000 OA
ENDBRANCH   1  19
BRANCH   6  20
ATOM     20  N   UNL     1       3.210   7.002  18.906  0.00  0.00    +0.000 N 
ATOM     21  H   UNL     1       3.812   7.806  19.100  0.00  0.00    +0.000 HD
BRANCH  20  22
ATOM     22  C   UNL     1       2.291   7.237  17.800  0.00  0.00    +0.000 C 
BRANCH  22  23
ATOM     23  C   UNL     1       1.765   8.654  17.764  0.00  0.00    +0.000 C 
BRANCH  23  24
ATOM     24  C   UNL     1       1.433   9.190  19.144  0.00  0.00    +0.000 C 
BRANCH  24  25
ATOM     25  N   UNL     1       0.891  10.608  19.116  0.00  0.00    +0.000 N 
ATOM     26  C   UNL     1       0.660  11.120  20.513  0.00  0.00    +0.000 C 
ATOM     27  C   UNL     1       1.891  11.491  18.427  0.00  0.00    +0.000 C 
ATOM     28  O   UNL     1      -0.287  10.650  18.413  0.00  0.00    +0.000 OA
ENDBRANCH  24  25
ENDBRANCH  23  24
ENDBRANCH  22  23
ENDBRANCH  20  22
ENDBRANCH   6  20
TORSDOF 7
ENDMDL
MODEL 8
REMARK VINA RESULT:      -6.0      0.891      1.049
REMARK  Name = 
REMARK  10 active torsions:
REMARK  status: ('A' for Active; 'I' for Inactive)
REMARK    1  A    between atoms: C_1  and  O_2
REMARK    2  A    between atoms: O_2  and  C_3
REMARK    3  A    between atoms: C_6  and  N_7
REMARK    4  A    between atoms: C_11  and  N_12
REMARK    5  A    between atoms: N_12  and  C_13
REMARK    6  A    between atoms: C_13  and  C_14
REMARK    7  A    between atoms: C_14  and  C_15
REMARK    8  A    between atoms: C_15  and  N_16
REMARK    9  A    between atoms: N_16  and  C_17
REMARK   10  A    between atoms: N_16  and  C_18
REMARK                            x       y       z     vdW  Elec       q    Type
REMARK                         _______ _______ _______ _____ _____    ______ ____
ROOT
ATOM      1  C   UNL     1      -3.075  12.795  21.474  0.00  0.00    +0.000 A 
ATOM      2  C   UNL     1      -2.259  12.906  22.597  0.00  0.00    +0.000 A 
ATOM      3  C   UNL     1      -0.958  12.471  22.515  0.00  0.00    +0.000 A 
ATOM      4  C   UNL     1      -0.498  11.907  21.313  0.00  0.00    +0.000 A 
ATOM      5  C   UNL     1      -1.327  11.657  20.147  0.00  0.00    +0.000 A 
ATOM      6  C   UNL     1      -1.078  10.969  18.874  0.00  0.00    +0.000 A 
ATOM      7  C   UNL     1      -2.090  10.940  17.843  0.00  0.00    +0.000 A 
ATOM      8  C   UNL     1      -1.966  10.315  16.567  0.00  0.00    +0.000 A 
ATOM      9  C   UNL     1      -3.016  10.302  15.640  0.00  0.00    +0.000 A 
ATOM     10  C   UNL     1      -4.212  10.925  15.957  0.00  0.00    +0.000 A 
ATOM     11  C   UNL     1      -4.342  11.545  17.197  0.00  0.00    +0.000 A 
ATOM     12  C   UNL     1      -3.312  11.547  18.132  0.00  0.00    +0.000 A 
ATOM     13  N   UNL     1      -3.557  12.127  19.301  0.00  0.00    +0.000 NA
ATOM     14  C   UNL     1      -2.644  12.179  20.279  0.00  0.00    +0.000 A 
ENDROOT
BRANCH   4  15
ATOM     15  N   UNL     1       0.927  11.659  21.341  0.00  0.00    +0.000 N 
ATOM     16  O   UNL     1       1.669  12.603  21.024  0.00  0.00    +0.000 OA
ATOM     17  O   UNL     1       1.299  10.509  21.607  0.00  0.00    +0.000 OA
ENDBRANCH   4  15
BRANCH   1  19
ATOM     18  C   UNL     1      -5.092  13.018  22.722  0.00  0.00    +0.000 C 
ATOM     19  O   UNL     1      -4.387  13.234  21.505  0.00  0.00    +0.000 OA
ENDBRANCH   1  19
BRANCH   6  20
ATOM     20  N   UNL     1       0.157  10.383  18.488  0.00  0.00    +0.000 N 
ATOM     21  H   UNL     1       0.928  10.999  18.760  0.00  0.00    +0.000 HD
BRANCH  20  22
ATOM     22  C   UNL     1       0.453   8.975  18.714  0.00  0.00    +0.000 C 
BRANCH  22  23
ATOM     23  C   UNL     1       1.931   8.666  18.650  0.00  0.00    +0.000 C 
BRANCH  23  24
ATOM     24  C   UNL     1       2.301   7.418  19.431  0.00  0.00    +0.000 C 
BRANCH  24  25
ATOM     25  N   UNL     1       3.122   6.431  18.619  0.00  0.00    +0.000 N 
ATOM     26  C   UNL     1       2.248   5.340  18.062  0.00  0.00    +0.000 C 
ATOM     27  C   UNL     1       3.774   7.169  17.484  0.00  0.00    +0.000 C 
ATOM     28  O   UNL     1       4.104   5.877  19.401  0.00  0.00    +0.000 OA
ENDBRANCH  24  25
ENDBRANCH  23  24
ENDBRANCH  22  23
ENDBRANCH  20  22
ENDBRANCH   6  20
TORSDOF 7
ENDMDL
MODEL 9
REMARK VINA RESULT:      -5.9      3.037      7.279
REMARK  Name = 
REMARK  10 active torsions:
REMARK  status: ('A' for Active; 'I' for Inactive)
REMARK    1  A    between atoms: C_1  and  O_2
REMARK    2  A    between atoms: O_2  and  C_3
REMARK    3  A    between atoms: C_6  and  N_7
REMARK    4  A    between atoms: C_11  and  N_12
REMARK    5  A    between atoms: N_12  and  C_13
REMARK    6  A    between atoms: C_13  and  C_14
REMARK    7  A    between atoms: C_14  and  C_15
REMARK    8  A    between atoms: C_15  and  N_16
REMARK    9  A    between atoms: N_16  and  C_17
REMARK   10  A    between atoms: N_16  and  C_18
REMARK                            x       y       z     vdW  Elec       q    Type
REMARK                         _______ _______ _______ _____ _____    ______ ____
ROOT
ATOM      1  C   UNL     1      -2.842  10.368  17.115  0.00  0.00    +0.000 A 
ATOM      2  C   UNL     1      -1.494  10.062  17.281  0.00  0.00    +0.000 A 
ATOM      3  C   UNL     1      -0.849  10.505  18.412  0.00  0.00    +0.000 A 
ATOM      4  C   UNL     1      -1.560  11.271  19.350  0.00  0.00    +0.000 A 
ATOM      5  C   UNL     1      -2.930  11.721  19.182  0.00  0.00    +0.000 A 
ATOM      6  C   UNL     1      -3.788  12.623  19.962  0.00  0.00    +0.000 A 
ATOM      7  C   UNL     1      -5.167  12.832  19.588  0.00  0.00    +0.000 A 
ATOM      8  C   UNL     1      -6.099  13.672  20.266  0.00  0.00    +0.000 A 
ATOM      9  C   UNL     1      -7.412  13.847  19.810  0.00  0.00    +0.000 A 
ATOM     10  C   UNL     1      -7.832  13.179  18.673  0.00  0.00    +0.000 A 
ATOM     11  C   UNL     1      -6.933  12.350  18.006  0.00  0.00    +0.000 A 
ATOM     12  C   UNL     1      -5.622  12.183  18.440  0.00  0.00    +0.000 A 
ATOM     13  N   UNL     1      -4.835  11.408  17.705  0.00  0.00    +0.000 NA
ATOM     14  C   UNL     1      -3.553  11.185  18.021  0.00  0.00    +0.000 A 
ENDROOT
BRANCH   4  15
ATOM     15  N   UNL     1      -0.788  11.510  20.550  0.00  0.00    +0.000 N 
ATOM     16  O   UNL     1      -0.687  10.568  21.353  0.00  0.00    +0.000 OA
ATOM     17  O   UNL     1      -0.348  12.653  20.724  0.00  0.00    +0.000 OA
ENDBRANCH   4  15
BRANCH   1  19
ATOM     18  C   UNL     1      -2.961  10.247  14.739  0.00  0.00    +0.000 C 
ATOM     19  O   UNL     1      -3.536   9.930  16.001  0.00  0.00    +0.000 OA
ENDBRANCH   1  19
BRANCH   6  20
ATOM     20  N   UNL     1      -3.412  13.268  21.171  0.00  0.00    +0.000 N 
ATOM     21  H   UNL     1      -3.871  14.180  21.229  0.00  0.00    +0.000 HD
BRANCH  20  22
ATOM     22  C   UNL     1      -3.383  12.567  22.448  0.00  0.00    +0.000 C 
BRANCH  22  23
ATOM     23  C   UNL     1      -4.425  13.071  23.419  0.00  0.00    +0.000 C 
BRANCH  23  24
ATOM     24  C   UNL     1      -4.004  14.351  24.116  0.00  0.00    +0.000 C 
BRANCH  24  25
ATOM     25  N   UNL     1      -4.863  15.545  23.737  0.00  0.00    +0.000 N 
ATOM     26  C   UNL     1      -6.323  15.176  23.740  0.00  0.00    +0.000 C 
ATOM     27  C   UNL     1      -4.630  16.641  24.737  0.00  0.00    +0.000 C 
ATOM     28  O   UNL     1      -4.510  16.005  22.493  0.00  0.00    +0.000 OA
ENDBRANCH  24  25
ENDBRANCH  23  24
ENDBRANCH  22  23
ENDBRANCH  20  22
ENDBRANCH   6  20
TORSDOF 7
ENDMDL
