MODEL 1
REMARK VINA RESULT:      -7.2      0.000      0.000
REMARK  Name = 
REMARK  3 active torsions:
REMARK  status: ('A' for Active; 'I' for Inactive)
REMARK    1  A    between atoms: C_2  and  C_3
REMARK    2  A    between atoms: C_3  and  C_4
REMARK    3  A    between atoms: C_16  and  N_17
REMARK                            x       y       z     vdW  Elec       q    Type
REMARK                         _______ _______ _______ _____ _____    ______ ____
ROOT
ATOM      1  O   UNL     1       2.921   3.500  17.305  0.00  0.00    +0.000 OA
ATOM      2  C   UNL     1       3.699   4.015  18.113  0.00  0.00    +0.000 C 
ATOM      3  N   UNL     1       5.008   4.313  17.745  0.00  0.00    +0.000 N 
ATOM      4  C   UNL     1       6.018   4.900  18.621  0.00  0.00    +0.000 C 
ATOM      5  C   UNL     1       6.626   6.146  17.982  0.00  0.00    +0.000 C 
ATOM      6  C   UNL     1       7.127   5.868  16.560  0.00  0.00    +0.000 C 
ATOM      7  C   UNL     1       6.058   5.175  15.696  0.00  0.00    +0.000 C 
ATOM      8  C   UNL     1       5.483   3.944  16.408  0.00  0.00    +0.000 C 
ENDROOT
BRANCH   7   9
ATOM      9  N   UNL     1       6.556   4.845  14.375  0.00  0.00    +0.000 N 
ATOM     10  C   UNL     1       6.109   3.881  13.527  0.00  0.00    +0.000 A 
ATOM     11  N   UNL     1       6.857   3.867  12.446  0.00  0.00    +0.000 NA
ATOM     12  C   UNL     1       7.761   4.860  12.686  0.00  0.00    +0.000 A 
ATOM     13  N   UNL     1       7.614   5.494  13.852  0.00  0.00    +0.000 NA
ENDBRANCH   7   9
BRANCH   2  14
ATOM     14  C   UNL     1       3.279   4.443  19.514  0.00  0.00    +0.000 C 
BRANCH  14  15
ATOM     15  C   UNL     1       2.688   5.808  19.563  0.00  0.00    +0.000 A 
ATOM     16  C   UNL     1       1.992   6.416  20.603  0.00  0.00    +0.000 A 
ATOM     17  N   UNL     1       1.690   7.657  20.135  0.00  0.00    +0.000 N 
ATOM     18  C   UNL     1       1.064   8.782  20.609  0.00  0.00    +0.000 A 
ATOM     19  C   UNL     1       1.039   9.759  19.678  0.00  0.00    +0.000 A 
ATOM     20  S   UNL     1       1.811   9.278  18.155  0.00  0.00    +0.000 S 
ATOM     21  C   UNL     1       2.158   7.726  18.857  0.00  0.00    +0.000 A 
ATOM     22  N   UNL     1       2.753   6.643  18.453  0.00  0.00    +0.000 NA
ENDBRANCH  14  15
ENDBRANCH   2  14
TORSDOF 3
ENDMDL
MODEL 2
REMARK VINA RESULT:      -7.2      0.920      1.147
REMARK  Name = 
REMARK  3 active torsions:
REMARK  status: ('A' for Active; 'I' for Inactive)
REMARK    1  A    between atoms: C_2  and  C_3
REMARK    2  A    between atoms: C_3  and  C_4
REMARK    3  A    between atoms: C_16  and  N_17
REMARK                            x       y       z     vdW  Elec       q    Type
REMARK                         _______ _______ _______ _____ _____    ______ ____
ROOT
ATOM      1  O   UNL     1       2.865   3.502  17.348  0.00  0.00    +0.000 OA
ATOM      2  C   UNL     1       3.639   4.025  18.154  0.00  0.00    +0.000 C 
ATOM      3  N   UNL     1       4.948   4.324  17.786  0.00  0.00    +0.000 N 
ATOM      4  C   UNL     1       5.955   4.921  18.661  0.00  0.00    +0.000 C 
ATOM      5  C   UNL     1       6.560   6.164  18.014  0.00  0.00    +0.000 C 
ATOM      6  C   UNL     1       7.065   5.878  16.596  0.00  0.00    +0.000 C 
ATOM      7  C   UNL     1       6.000   5.176  15.734  0.00  0.00    +0.000 C 
ATOM      8  C   UNL     1       5.427   3.948  16.454  0.00  0.00    +0.000 C 
ENDROOT
BRANCH   7   9
ATOM      9  N   UNL     1       6.502   4.839  14.417  0.00  0.00    +0.000 N 
ATOM     10  C   UNL     1       6.036   3.891  13.559  0.00  0.00    +0.000 A 
ATOM     11  N   UNL     1       6.795   3.861  12.485  0.00  0.00    +0.000 NA
ATOM     12  C   UNL     1       7.724   4.827  12.740  0.00  0.00    +0.000 A 
ATOM     13  N   UNL     1       7.583   5.459  13.908  0.00  0.00    +0.000 NA
ENDBRANCH   7   9
BRANCH   2  14
ATOM     14  C   UNL     1       3.215   4.461  19.551  0.00  0.00    +0.000 C 
BRANCH  14  15
ATOM     15  C   UNL     1       2.641   5.834  19.593  0.00  0.00    +0.000 A 
ATOM     16  C   UNL     1       2.677   6.820  18.611  0.00  0.00    +0.000 A 
ATOM     17  N   UNL     1       1.995   7.866  19.152  0.00  0.00    +0.000 N 
ATOM     18  C   UNL     1       1.614   9.124  18.758  0.00  0.00    +0.000 A 
ATOM     19  C   UNL     1       0.934   9.758  19.736  0.00  0.00    +0.000 A 
ATOM     20  S   UNL     1       0.757   8.775  21.202  0.00  0.00    +0.000 S 
ATOM     21  C   UNL     1       1.630   7.496  20.412  0.00  0.00    +0.000 A 
ATOM     22  N   UNL     1       2.002   6.294  20.738  0.00  0.00    +0.000 NA
ENDBRANCH  14  15
ENDBRANCH   2  14
TORSDOF 3
ENDMDL
MODEL 3
REMARK VINA RESULT:      -6.8      1.333      1.706
REMARK  Name = 
REMARK  3 active torsions:
REMARK  status: ('A' for Active; 'I' for Inactive)
REMARK    1  A    between atoms: C_2  and  C_3
REMARK    2  A    between atoms: C_3  and  C_4
REMARK    3  A    between atoms: C_16  and  N_17
REMARK                            x       y       z     vdW  Elec       q    Type
REMARK                         _______ _______ _______ _____ _____    ______ ____
ROOT
ATOM      1  O   UNL     1       2.113   5.128  17.648  0.00  0.00    +0.000 OA
ATOM      2  C   UNL     1       2.954   5.208  18.547  0.00  0.00    +0.000 C 
ATOM      3  N   UNL     1       4.294   4.927  18.291  0.00  0.00    +0.000 N 
ATOM      4  C   UNL     1       5.368   4.967  19.279  0.00  0.00    +0.000 C 
ATOM      5  C   UNL     1       6.509   5.858  18.797  0.00  0.00    +0.000 C 
ATOM      6  C   UNL     1       6.978   5.470  17.391  0.00  0.00    +0.000 C 
ATOM      7  C   UNL     1       5.804   5.360  16.400  0.00  0.00    +0.000 C 
ATOM      8  C   UNL     1       4.691   4.464  16.959  0.00  0.00    +0.000 C 
ENDROOT
BRANCH   7   9
ATOM      9  N   UNL     1       6.238   4.921  15.089  0.00  0.00    +0.000 N 
ATOM     10  C   UNL     1       5.675   3.972  14.293  0.00  0.00    +0.000 A 
ATOM     11  N   UNL     1       6.396   3.831  13.203  0.00  0.00    +0.000 NA
ATOM     12  C   UNL     1       7.403   4.733  13.382  0.00  0.00    +0.000 A 
ATOM     13  N   UNL     1       7.347   5.431  14.520  0.00  0.00    +0.000 NA
ENDBRANCH   7   9
BRANCH   2  14
ATOM     14  C   UNL     1       2.625   5.697  19.952  0.00  0.00    +0.000 C 
BRANCH  14  15
ATOM     15  C   UNL     1       2.052   7.070  19.981  0.00  0.00    +0.000 A 
ATOM     16  C   UNL     1       2.091   8.048  18.992  0.00  0.00    +0.000 A 
ATOM     17  N   UNL     1       1.410   9.099  19.522  0.00  0.00    +0.000 N 
ATOM     18  C   UNL     1       1.032  10.354  19.117  0.00  0.00    +0.000 A 
ATOM     19  C   UNL     1       0.349  10.998  20.088  0.00  0.00    +0.000 A 
ATOM     20  S   UNL     1       0.168  10.027  21.561  0.00  0.00    +0.000 S 
ATOM     21  C   UNL     1       1.041   8.741  20.784  0.00  0.00    +0.000 A 
ATOM     22  N   UNL     1       1.411   7.541  21.122  0.00  0.00    +0.000 NA
ENDBRANCH  14  15
ENDBRANCH   2  14
TORSDOF 3
ENDMDL
MODEL 4
REMARK VINA RESULT:      -6.8      1.093      1.557
REMARK  Name = 
REMARK  3 active torsions:
REMARK  status: ('A' for Active; 'I' for Inactive)
REMARK    1  A    between atoms: C_2  and  C_3
REMARK    2  A    between atoms: C_3  and  C_4
REMARK    3  A    between atoms: C_16  and  N_17
REMARK                            x       y       z     vdW  Elec       q    Type
REMARK                         _______ _______ _______ _____ _____    ______ ____
ROOT
ATOM      1  O   UNL     1       2.517   4.192  17.479  0.00  0.00    +0.000 OA
ATOM      2  C   UNL     1       3.394   4.685  18.192  0.00  0.00    +0.000 C 
ATOM      3  N   UNL     1       4.715   4.741  17.755  0.00  0.00    +0.000 N 
ATOM      4  C   UNL     1       5.835   5.279  18.521  0.00  0.00    +0.000 C 
ATOM      5  C   UNL     1       6.583   6.335  17.711  0.00  0.00    +0.000 C 
ATOM      6  C   UNL     1       6.977   5.813  16.325  0.00  0.00    +0.000 C 
ATOM      7  C   UNL     1       5.784   5.181  15.585  0.00  0.00    +0.000 C 
ATOM      8  C   UNL     1       5.073   4.144  16.465  0.00  0.00    +0.000 C 
ENDROOT
BRANCH   7   9
ATOM      9  N   UNL     1       6.171   4.621  14.306  0.00  0.00    +0.000 N 
ATOM     10  C   UNL     1       7.287   4.890  13.576  0.00  0.00    +0.000 A 
ATOM     11  N   UNL     1       7.247   4.215  12.448  0.00  0.00    +0.000 NA
ATOM     12  C   UNL     1       6.067   3.536  12.540  0.00  0.00    +0.000 A 
ATOM     13  N   UNL     1       5.375   3.746  13.663  0.00  0.00    +0.000 NA
ENDBRANCH   7   9
BRANCH   2  14
ATOM     14  C   UNL     1       3.102   5.339  19.537  0.00  0.00    +0.000 C 
BRANCH  14  15
ATOM     15  C   UNL     1       2.515   6.702  19.416  0.00  0.00    +0.000 A 
ATOM     16  C   UNL     1       2.572   7.578  18.336  0.00  0.00    +0.000 A 
ATOM     17  N   UNL     1       1.865   8.667  18.742  0.00  0.00    +0.000 N 
ATOM     18  C   UNL     1       1.486   9.872  18.206  0.00  0.00    +0.000 A 
ATOM     19  C   UNL     1       0.771  10.599  19.090  0.00  0.00    +0.000 A 
ATOM     20  S   UNL     1       0.558   9.775  20.647  0.00  0.00    +0.000 S 
ATOM     21  C   UNL     1       1.466   8.430  20.024  0.00  0.00    +0.000 A 
ATOM     22  N   UNL     1       1.838   7.274  20.487  0.00  0.00    +0.000 NA
ENDBRANCH  14  15
ENDBRANCH   2  14
TORSDOF 3
ENDMDL
MODEL 5
REMARK VINA RESULT:      -6.6      4.147      8.771
REMARK  Name = 
REMARK  3 active torsions:
REMARK  status: ('A' for Active; 'I' for Inactive)
REMARK    1  A    between atoms: C_2  and  C_3
REMARK    2  A    between atoms: C_3  and  C_4
REMARK    3  A    between atoms: C_16  and  N_17
REMARK                            x       y       z     vdW  Elec       q    Type
REMARK                         _______ _______ _______ _____ _____    ______ ____
ROOT
ATOM      1  O   UNL     1       1.612   7.437  20.682  0.00  0.00    +0.000 OA
ATOM      2  C   UNL     1       1.800   8.026  19.614  0.00  0.00    +0.000 C 
ATOM      3  N   UNL     1       1.230   9.274  19.383  0.00  0.00    +0.000 N 
ATOM      4  C   UNL     1       1.365  10.049  18.152  0.00  0.00    +0.000 C 
ATOM      5  C   UNL     1       1.868  11.458  18.457  0.00  0.00    +0.000 C 
ATOM      6  C   UNL     1       1.017  12.146  19.529  0.00  0.00    +0.000 C 
ATOM      7  C   UNL     1       0.832  11.261  20.776  0.00  0.00    +0.000 C 
ATOM      8  C   UNL     1       0.341   9.859  20.391  0.00  0.00    +0.000 C 
ENDROOT
BRANCH   7   9
ATOM      9  N   UNL     1      -0.034  11.880  21.759  0.00  0.00    +0.000 N 
ATOM     10  C   UNL     1      -1.003  11.292  22.512  0.00  0.00    +0.000 A 
ATOM     11  N   UNL     1      -1.599  12.204  23.249  0.00  0.00    +0.000 NA
ATOM     12  C   UNL     1      -0.945  13.351  22.905  0.00  0.00    +0.000 A 
ATOM     13  N   UNL     1       0.027  13.203  22.000  0.00  0.00    +0.000 NA
ENDBRANCH   7   9
BRANCH   2  14
ATOM     14  C   UNL     1       2.722   7.494  18.523  0.00  0.00    +0.000 C 
BRANCH  14  15
ATOM     15  C   UNL     1       3.011   6.040  18.651  0.00  0.00    +0.000 A 
ATOM     16  C   UNL     1       4.037   5.417  19.356  0.00  0.00    +0.000 A 
ATOM     17  N   UNL     1       3.833   4.088  19.154  0.00  0.00    +0.000 N 
ATOM     18  C   UNL     1       4.415   2.912  19.557  0.00  0.00    +0.000 A 
ATOM     19  C   UNL     1       3.781   1.844  19.029  0.00  0.00    +0.000 A 
ATOM     20  S   UNL     1       2.416   2.298  17.991  0.00  0.00    +0.000 S 
ATOM     21  C   UNL     1       2.758   3.969  18.325  0.00  0.00    +0.000 A 
ATOM     22  N   UNL     1       2.232   5.106  17.977  0.00  0.00    +0.000 NA
ENDBRANCH  14  15
ENDBRANCH   2  14
TORSDOF 3
ENDMDL
MODEL 6
REMARK VINA RESULT:      -6.6      4.259      8.755
REMARK  Name = 
REMARK  3 active torsions:
REMARK  status: ('A' for Active; 'I' for Inactive)
REMARK    1  A    between atoms: C_2  and  C_3
REMARK    2  A    between atoms: C_3  and  C_4
REMARK    3  A    between atoms: C_16  and  N_17
REMARK                            x       y       z     vdW  Elec       q    Type
REMARK                         _______ _______ _______ _____ _____    ______ ____
ROOT
ATOM      1  O   UNL     1       1.640   7.328  20.707  0.00  0.00    +0.000 OA
ATOM      2  C   UNL     1       1.813   7.900  19.628  0.00  0.00    +0.000 C 
ATOM      3  N   UNL     1       1.242   9.147  19.387  0.00  0.00    +0.000 N 
ATOM      4  C   UNL     1       1.362   9.903  18.144  0.00  0.00    +0.000 C 
ATOM      5  C   UNL     1       1.872  11.315  18.420  0.00  0.00    +0.000 C 
ATOM      6  C   UNL     1       1.038  12.021  19.495  0.00  0.00    +0.000 C 
ATOM      7  C   UNL     1       0.870  11.154  20.756  0.00  0.00    +0.000 C 
ATOM      8  C   UNL     1       0.370   9.748  20.400  0.00  0.00    +0.000 C 
ENDROOT
BRANCH   7   9
ATOM      9  N   UNL     1       0.020  11.790  21.743  0.00  0.00    +0.000 N 
ATOM     10  C   UNL     1      -0.771  11.196  22.678  0.00  0.00    +0.000 A 
ATOM     11  N   UNL     1      -1.423  12.118  23.350  0.00  0.00    +0.000 NA
ATOM     12  C   UNL     1      -0.988  13.278  22.781  0.00  0.00    +0.000 A 
ATOM     13  N   UNL     1      -0.098  13.131  21.796  0.00  0.00    +0.000 NA
ENDBRANCH   7   9
BRANCH   2  14
ATOM     14  C   UNL     1       2.717   7.350  18.532  0.00  0.00    +0.000 C 
BRANCH  14  15
ATOM     15  C   UNL     1       2.846   5.867  18.560  0.00  0.00    +0.000 A 
ATOM     16  C   UNL     1       2.122   4.920  17.843  0.00  0.00    +0.000 A 
ATOM     17  N   UNL     1       2.646   3.725  18.228  0.00  0.00    +0.000 N 
ATOM     18  C   UNL     1       2.455   2.402  17.921  0.00  0.00    +0.000 A 
ATOM     19  C   UNL     1       3.279   1.608  18.637  0.00  0.00    +0.000 A 
ATOM     20  S   UNL     1       4.329   2.521  19.737  0.00  0.00    +0.000 S 
ATOM     21  C   UNL     1       3.600   3.991  19.165  0.00  0.00    +0.000 A 
ATOM     22  N   UNL     1       3.754   5.257  19.417  0.00  0.00    +0.000 NA
ENDBRANCH  14  15
ENDBRANCH   2  14
TORSDOF 3
ENDMDL
MODEL 7
REMARK VINA RESULT:      -6.5      1.348      1.618
REMARK  Name = 
REMARK  3 active torsions:
REMARK  status: ('A' for Active; 'I' for Inactive)
REMARK    1  A    between atoms: C_2  and  C_3
REMARK    2  A    between atoms: C_3  and  C_4
REMARK    3  A    between atoms: C_16  and  N_17
REMARK                            x       y       z     vdW  Elec       q    Type
REMARK                         _______ _______ _______ _____ _____    ______ ____
ROOT
ATOM      1  O   UNL     1       2.174   5.929  17.662  0.00  0.00    +0.000 OA
ATOM      2  C   UNL     1       2.957   5.742  18.597  0.00  0.00    +0.000 C 
ATOM      3  N   UNL     1       4.213   5.187  18.370  0.00  0.00    +0.000 N 
ATOM      4  C   UNL     1       5.209   4.902  19.400  0.00  0.00    +0.000 C 
ATOM      5  C   UNL     1       6.546   5.548  19.049  0.00  0.00    +0.000 C 
ATOM      6  C   UNL     1       7.000   5.180  17.632  0.00  0.00    +0.000 C 
ATOM      7  C   UNL     1       5.893   5.420  16.590  0.00  0.00    +0.000 C 
ATOM      8  C   UNL     1       4.577   4.756  17.017  0.00  0.00    +0.000 C 
ENDROOT
BRANCH   7   9
ATOM      9  N   UNL     1       6.296   5.002  15.262  0.00  0.00    +0.000 N 
ATOM     10  C   UNL     1       5.688   4.099  14.445  0.00  0.00    +0.000 A 
ATOM     11  N   UNL     1       6.392   3.961  13.343  0.00  0.00    +0.000 NA
ATOM     12  C   UNL     1       7.436   4.818  13.537  0.00  0.00    +0.000 A 
ATOM     13  N   UNL     1       7.418   5.484  14.695  0.00  0.00    +0.000 NA
ENDBRANCH   7   9
BRANCH   2  14
ATOM     14  C   UNL     1       2.661   6.177  20.028  0.00  0.00    +0.000 C 
BRANCH  14  15
ATOM     15  C   UNL     1       1.944   7.478  20.114  0.00  0.00    +0.000 A 
ATOM     16  C   UNL     1       1.154   7.967  21.149  0.00  0.00    +0.000 A 
ATOM     17  N   UNL     1       0.757   9.197  20.726  0.00  0.00    +0.000 N 
ATOM     18  C   UNL     1       0.011  10.236  21.224  0.00  0.00    +0.000 A 
ATOM     19  C   UNL     1      -0.066  11.252  20.340  0.00  0.00    +0.000 A 
ATOM     20  S   UNL     1       0.808  10.922  18.833  0.00  0.00    +0.000 S 
ATOM     21  C   UNL     1       1.269   9.374  19.475  0.00  0.00    +0.000 A 
ATOM     22  N   UNL     1       1.977   8.371  19.048  0.00  0.00    +0.000 NA
ENDBRANCH  14  15
ENDBRANCH   2  14
TORSDOF 3
ENDMDL
MODEL 8
REMARK VINA RESULT:      -6.3      3.592      5.131
REMARK  Name = 
REMARK  3 active torsions:
REMARK  status: ('A' for Active; 'I' for Inactive)
REMARK    1  A    between atoms: C_2  and  C_3
REMARK    2  A    between atoms: C_3  and  C_4
REMARK    3  A    between atoms: C_16  and  N_17
REMARK                            x       y       z     vdW  Elec       q    Type
REMARK                         _______ _______ _______ _____ _____    ______ ____
ROOT
ATOM      1  O   UNL     1       5.221   6.762  15.294  0.00  0.00    +0.000 OA
ATOM      2  C   UNL     1       5.692   5.811  15.921  0.00  0.00    +0.000 C 
ATOM      3  N   UNL     1       6.820   5.978  16.721  0.00  0.00    +0.000 N 
ATOM      4  C   UNL     1       7.475   4.921  17.487  0.00  0.00    +0.000 C 
ATOM      5  C   UNL     1       7.620   5.329  18.950  0.00  0.00    +0.000 C 
ATOM      6  C   UNL     1       8.287   6.701  19.095  0.00  0.00    +0.000 C 
ATOM      7  C   UNL     1       7.616   7.766  18.208  0.00  0.00    +0.000 C 
ATOM      8  C   UNL     1       7.490   7.280  16.758  0.00  0.00    +0.000 C 
ENDROOT
BRANCH   7   9
ATOM      9  N   UNL     1       8.292   9.045  18.288  0.00  0.00    +0.000 N 
ATOM     10  C   UNL     1       9.202   9.457  19.212  0.00  0.00    +0.000 A 
ATOM     11  N   UNL     1       9.542  10.703  18.966  0.00  0.00    +0.000 NA
ATOM     12  C   UNL     1       8.802  11.011  17.862  0.00  0.00    +0.000 A 
ATOM     13  N   UNL     1       8.025  10.026  17.404  0.00  0.00    +0.000 NA
ENDBRANCH   7   9
BRANCH   2  14
ATOM     14  C   UNL     1       5.047   4.430  15.948  0.00  0.00    +0.000 C 
BRANCH  14  15
ATOM     15  C   UNL     1       4.062   4.260  17.051  0.00  0.00    +0.000 A 
ATOM     16  C   UNL     1       3.510   5.232  17.879  0.00  0.00    +0.000 A 
ATOM     17  N   UNL     1       2.665   4.547  18.695  0.00  0.00    +0.000 N 
ATOM     18  C   UNL     1       1.787   4.845  19.707  0.00  0.00    +0.000 A 
ATOM     19  C   UNL     1       1.193   3.732  20.186  0.00  0.00    +0.000 A 
ATOM     20  S   UNL     1       1.736   2.256  19.366  0.00  0.00    +0.000 S 
ATOM     21  C   UNL     1       2.774   3.228  18.367  0.00  0.00    +0.000 A 
ATOM     22  N   UNL     1       3.608   2.993  17.398  0.00  0.00    +0.000 NA
ENDBRANCH  14  15
ENDBRANCH   2  14
TORSDOF 3
ENDMDL
MODEL 9
REMARK VINA RESULT:      -6.3      2.705      7.367
REMARK  Name = 
REMARK  3 active torsions:
REMARK  status: ('A' for Active; 'I' for Inactive)
REMARK    1  A    between atoms: C_2  and  C_3
REMARK    2  A    between atoms: C_3  and  C_4
REMARK    3  A    between atoms: C_16  and  N_17
REMARK                            x       y       z     vdW  Elec       q    Type
REMARK                         _______ _______ _______ _____ _____    ______ ____
ROOT
ATOM      1  O   UNL     1       2.423   3.647  21.635  0.00  0.00    +0.000 OA
ATOM      2  C   UNL     1       2.504   3.883  20.427  0.00  0.00    +0.000 C 
ATOM      3  N   UNL     1       1.966   5.052  19.896  0.00  0.00    +0.000 N 
ATOM      4  C   UNL     1       1.983   5.423  18.483  0.00  0.00    +0.000 C 
ATOM      5  C   UNL     1       2.583   6.814  18.299  0.00  0.00    +0.000 C 
ATOM      6  C   UNL     1       1.903   7.850  19.201  0.00  0.00    +0.000 C 
ATOM      7  C   UNL     1       1.835   7.383  20.667  0.00  0.00    +0.000 C 
ATOM      8  C   UNL     1       1.237   5.974  20.772  0.00  0.00    +0.000 C 
ENDROOT
BRANCH   7   9
ATOM      9  N   UNL     1       1.127   8.328  21.507  0.00  0.00    +0.000 N 
ATOM     10  C   UNL     1       1.647   9.197  22.416  0.00  0.00    +0.000 A 
ATOM     11  N   UNL     1       0.670   9.848  23.008  0.00  0.00    +0.000 NA
ATOM     12  C   UNL     1      -0.445   9.334  22.415  0.00  0.00    +0.000 A 
ATOM     13  N   UNL     1      -0.218   8.405  21.483  0.00  0.00    +0.000 NA
ENDBRANCH   7   9
BRANCH   2  14
ATOM     14  C   UNL     1       3.258   2.985  19.453  0.00  0.00    +0.000 C 
BRANCH  14  15
ATOM     15  C   UNL     1       4.344   3.690  18.720  0.00  0.00    +0.000 A 
ATOM     16  C   UNL     1       4.572   3.744  17.348  0.00  0.00    +0.000 A 
ATOM     17  N   UNL     1       5.676   4.527  17.215  0.00  0.00    +0.000 N 
ATOM     18  C   UNL     1       6.433   5.025  16.184  0.00  0.00    +0.000 A 
ATOM     19  C   UNL     1       7.460   5.770  16.645  0.00  0.00    +0.000 A 
ATOM     20  S   UNL     1       7.504   5.861  18.416  0.00  0.00    +0.000 S 
ATOM     21  C   UNL     1       6.082   4.863  18.472  0.00  0.00    +0.000 A 
ATOM     22  N   UNL     1       5.331   4.378  19.416  0.00  0.00    +0.000 NA
ENDBRANCH  14  15
ENDBRANCH   2  14
TORSDOF 3
ENDMDL
