MODEL 1
REMARK VINA RESULT:      -6.2      0.000      0.000
REMARK  Name = 
REMARK  12 active torsions:
REMARK  status: ('A' for Active; 'I' for Inactive)
REMARK    1  A    between atoms: C_1  and  N_2
REMARK    2  A    between atoms: N_5  and  C_6
REMARK    3  A    between atoms: C_7  and  C_8
REMARK    4  A    between atoms: C_8  and  N_9
REMARK    5  A    between atoms: N_12  and  C_13
REMARK    6  A    between atoms: C_13  and  C_14
REMARK    7  A    between atoms: C_13  and  C_15
REMARK    8  A    between atoms: C_13  and  C_16
REMARK    9  A    between atoms: C_16  and  C_17
REMARK   10  A    between atoms: C_17  and  C_18
REMARK   11  A    between atoms: C_17  and  C_19
REMARK   12  A    between atoms: C_17  and  C_20
REMARK                            x       y       z     vdW  Elec       q    Type
REMARK                         _______ _______ _______ _____ _____    ______ ____
ROOT
ATOM      1  N   UNL     1       1.599   8.899  18.567  0.00  0.00    +0.000 N 
ATOM      2  C   UNL     1       2.008   7.745  19.181  0.00  0.00    +0.000 C 
ATOM      3  O   UNL     1       2.039   7.625  20.391  0.00  0.00    +0.000 OA
ATOM      4  N   UNL     1       2.339   6.766  18.286  0.00  0.00    +0.000 N 
ATOM      5  H   UNL     1       1.842   9.067  17.614  0.00  0.00    +0.000 HD
ATOM      6  H   UNL     1       2.288   6.979  17.305  0.00  0.00    +0.000 HD
ENDROOT
BRANCH   4   7
ATOM      7  C   UNL     1       2.883   5.456  18.713  0.00  0.00    +0.000 C 
ATOM      8  C   UNL     1       3.055   4.614  17.430  0.00  0.00    +0.000 C 
ATOM      9  C   UNL     1       4.253   5.729  19.366  0.00  0.00    +0.000 C 
BRANCH   7  10
ATOM     10  C   UNL     1       1.866   4.775  19.713  0.00  0.00    +0.000 C 
BRANCH  10  11
ATOM     11  C   UNL     1       1.857   3.225  19.941  0.00  0.00    +0.000 C 
ATOM     12  C   UNL     1       3.245   2.582  19.820  0.00  0.00    +0.000 C 
ATOM     13  C   UNL     1       1.331   2.903  21.364  0.00  0.00    +0.000 C 
ATOM     14  C   UNL     1       0.907   2.507  18.969  0.00  0.00    +0.000 C 
ENDBRANCH  10  11
ENDBRANCH   7  10
ENDBRANCH   4   7
BRANCH   1  15
ATOM     15  C   UNL     1       1.275  10.046  19.385  0.00  0.00    +0.000 C 
BRANCH  15  22
ATOM     16  C   UNL     1      -2.584   9.847  16.278  0.00  0.00    +0.000 C 
ATOM     17  N   UNL     1      -1.842  10.687  17.213  0.00  0.00    +0.000 NA
ATOM     18  C   UNL     1      -2.728  11.212  18.269  0.00  0.00    +0.000 C 
ATOM     19  C   UNL     1      -1.959  12.055  19.307  0.00  0.00    +0.000 C 
ATOM     20  N   UNL     1      -0.875  11.276  19.946  0.00  0.00    +0.000 NA
ATOM     21  C   UNL     1      -0.215  12.085  20.970  0.00  0.00    +0.000 C 
ATOM     22  C   UNL     1       0.048  10.816  18.862  0.00  0.00    +0.000 C 
ATOM     23  C   UNL     1      -0.736   9.930  17.840  0.00  0.00    +0.000 C 
ENDBRANCH  15  22
ENDBRANCH   1  15
TORSDOF 5
ENDMDL
MODEL 2
REMARK VINA RESULT:      -6.2      6.239      8.209
REMARK  Name = 
REMARK  12 active torsions:
REMARK  status: ('A' for Active; 'I' for Inactive)
REMARK    1  A    between atoms: C_1  and  N_2
REMARK    2  A    between atoms: N_5  and  C_6
REMARK    3  A    between atoms: C_7  and  C_8
REMARK    4  A    between atoms: C_8  and  N_9
REMARK    5  A    between atoms: N_12  and  C_13
REMARK    6  A    between atoms: C_13  and  C_14
REMARK    7  A    between atoms: C_13  and  C_15
REMARK    8  A    between atoms: C_13  and  C_16
REMARK    9  A    between atoms: C_16  and  C_17
REMARK   10  A    between atoms: C_17  and  C_18
REMARK   11  A    between atoms: C_17  and  C_19
REMARK   12  A    between atoms: C_17  and  C_20
REMARK                            x       y       z     vdW  Elec       q    Type
REMARK                         _______ _______ _______ _____ _____    ______ ____
ROOT
ATOM      1  N   UNL     1       8.177   9.184  18.037  0.00  0.00    +0.000 N 
ATOM      2  C   UNL     1       7.740   7.887  17.981  0.00  0.00    +0.000 C 
ATOM      3  O   UNL     1       8.209   7.009  18.679  0.00  0.00    +0.000 OA
ATOM      4  N   UNL     1       6.719   7.719  17.088  0.00  0.00    +0.000 N 
ATOM      5  H   UNL     1       7.982   9.807  17.282  0.00  0.00    +0.000 HD
ATOM      6  H   UNL     1       6.417   8.514  16.552  0.00  0.00    +0.000 HD
ENDROOT
BRANCH   4   7
ATOM      7  C   UNL     1       6.133   6.389  16.798  0.00  0.00    +0.000 C 
ATOM      8  C   UNL     1       5.088   6.604  15.681  0.00  0.00    +0.000 C 
ATOM      9  C   UNL     1       7.283   5.491  16.295  0.00  0.00    +0.000 C 
BRANCH   7  10
ATOM     10  C   UNL     1       5.460   5.823  18.111  0.00  0.00    +0.000 C 
BRANCH  10  11
ATOM     11  C   UNL     1       4.297   4.774  18.046  0.00  0.00    +0.000 C 
ATOM     12  C   UNL     1       4.425   3.793  16.874  0.00  0.00    +0.000 C 
ATOM     13  C   UNL     1       4.279   3.927  19.346  0.00  0.00    +0.000 C 
ATOM     14  C   UNL     1       2.920   5.449  17.964  0.00  0.00    +0.000 C 
ENDBRANCH  10  11
ENDBRANCH   7  10
ENDBRANCH   4   7
BRANCH   1  15
ATOM     15  C   UNL     1       9.296   9.504  18.893  0.00  0.00    +0.000 C 
BRANCH  15  22
ATOM     16  C   UNL     1       8.747  12.448  22.845  0.00  0.00    +0.000 C 
ATOM     17  N   UNL     1       8.910  12.408  21.395  0.00  0.00    +0.000 NA
ATOM     18  C   UNL     1      10.077  13.205  20.973  0.00  0.00    +0.000 C 
ATOM     19  C   UNL     1      10.310  13.133  19.449  0.00  0.00    +0.000 C 
ATOM     20  N   UNL     1      10.501  11.738  18.993  0.00  0.00    +0.000 NA
ATOM     21  C   UNL     1      10.786  11.716  17.559  0.00  0.00    +0.000 C 
ATOM     22  C   UNL     1       9.275  10.969  19.370  0.00  0.00    +0.000 C 
ATOM     23  C   UNL     1       9.074  11.017  20.919  0.00  0.00    +0.000 C 
ENDBRANCH  15  22
ENDBRANCH   1  15
TORSDOF 5
ENDMDL
MODEL 3
REMARK VINA RESULT:      -6.1      2.299      3.779
REMARK  Name = 
REMARK  12 active torsions:
REMARK  status: ('A' for Active; 'I' for Inactive)
REMARK    1  A    between atoms: C_1  and  N_2
REMARK    2  A    between atoms: N_5  and  C_6
REMARK    3  A    between atoms: C_7  and  C_8
REMARK    4  A    between atoms: C_8  and  N_9
REMARK    5  A    between atoms: N_12  and  C_13
REMARK    6  A    between atoms: C_13  and  C_14
REMARK    7  A    between atoms: C_13  and  C_15
REMARK    8  A    between atoms: C_13  and  C_16
REMARK    9  A    between atoms: C_16  and  C_17
REMARK   10  A    between atoms: C_17  and  C_18
REMARK   11  A    between atoms: C_17  and  C_19
REMARK   12  A    between atoms: C_17  and  C_20
REMARK                            x       y       z     vdW  Elec       q    Type
REMARK                         _______ _______ _______ _____ _____    ______ ____
ROOT
ATOM      1  N   UNL     1       1.994   8.169  19.227  0.00  0.00    +0.000 N 
ATOM      2  C   UNL     1       2.770   7.055  19.045  0.00  0.00    +0.000 C 
ATOM      3  O   UNL     1       2.816   6.153  19.860  0.00  0.00    +0.000 OA
ATOM      4  N   UNL     1       3.441   7.074  17.855  0.00  0.00    +0.000 N 
ATOM      5  H   UNL     1       2.182   8.996  18.701  0.00  0.00    +0.000 HD
ATOM      6  H   UNL     1       3.338   7.879  17.262  0.00  0.00    +0.000 HD
ENDROOT
BRANCH   4   7
ATOM      7  C   UNL     1       4.401   6.013  17.472  0.00  0.00    +0.000 C 
ATOM      8  C   UNL     1       3.590   4.701  17.379  0.00  0.00    +0.000 C 
ATOM      9  C   UNL     1       4.966   6.396  16.089  0.00  0.00    +0.000 C 
BRANCH   7  10
ATOM     10  C   UNL     1       5.528   5.913  18.574  0.00  0.00    +0.000 C 
BRANCH  10  11
ATOM     11  C   UNL     1       7.044   5.822  18.188  0.00  0.00    +0.000 C 
ATOM     12  C   UNL     1       7.360   4.671  17.224  0.00  0.00    +0.000 C 
ATOM     13  C   UNL     1       7.491   7.134  17.491  0.00  0.00    +0.000 C 
ATOM     14  C   UNL     1       7.944   5.675  19.425  0.00  0.00    +0.000 C 
ENDBRANCH  10  11
ENDBRANCH   7  10
ENDBRANCH   4   7
BRANCH   1  15
ATOM     15  C   UNL     1       1.272   8.320  20.470  0.00  0.00    +0.000 C 
BRANCH  15  22
ATOM     16  C   UNL     1      -1.073  12.065  18.221  0.00  0.00    +0.000 C 
ATOM     17  N   UNL     1      -0.404  11.634  19.444  0.00  0.00    +0.000 NA
ATOM     18  C   UNL     1      -1.289  11.792  20.613  0.00  0.00    +0.000 C 
ATOM     19  C   UNL     1      -0.629  11.287  21.914  0.00  0.00    +0.000 C 
ATOM     20  N   UNL     1      -0.235   9.864  21.808  0.00  0.00    +0.000 NA
ATOM     21  C   UNL     1       0.322   9.405  23.080  0.00  0.00    +0.000 C 
ATOM     22  C   UNL     1       0.716   9.743  20.660  0.00  0.00    +0.000 C 
ATOM     23  C   UNL     1       0.021  10.220  19.344  0.00  0.00    +0.000 C 
ENDBRANCH  15  22
ENDBRANCH   1  15
TORSDOF 5
ENDMDL
MODEL 4
REMARK VINA RESULT:      -6.1      2.170      7.116
REMARK  Name = 
REMARK  12 active torsions:
REMARK  status: ('A' for Active; 'I' for Inactive)
REMARK    1  A    between atoms: C_1  and  N_2
REMARK    2  A    between atoms: N_5  and  C_6
REMARK    3  A    between atoms: C_7  and  C_8
REMARK    4  A    between atoms: C_8  and  N_9
REMARK    5  A    between atoms: N_12  and  C_13
REMARK    6  A    between atoms: C_13  and  C_14
REMARK    7  A    between atoms: C_13  and  C_15
REMARK    8  A    between atoms: C_13  and  C_16
REMARK    9  A    between atoms: C_16  and  C_17
REMARK   10  A    between atoms: C_17  and  C_18
REMARK   11  A    between atoms: C_17  and  C_19
REMARK   12  A    between atoms: C_17  and  C_20
REMARK                            x       y       z     vdW  Elec       q    Type
REMARK                         _______ _______ _______ _____ _____    ______ ____
ROOT
ATOM      1  N   UNL     1       2.676   7.469  18.791  0.00  0.00    +0.000 N 
ATOM      2  C   UNL     1       1.992   8.601  18.435  0.00  0.00    +0.000 C 
ATOM      3  O   UNL     1       2.006   9.043  17.302  0.00  0.00    +0.000 OA
ATOM      4  N   UNL     1       1.289   9.136  19.478  0.00  0.00    +0.000 N 
ATOM      5  H   UNL     1       2.874   7.290  19.752  0.00  0.00    +0.000 HD
ATOM      6  H   UNL     1       1.360   8.693  20.378  0.00  0.00    +0.000 HD
ENDROOT
BRANCH   4   7
ATOM      7  C   UNL     1       0.534  10.404  19.355  0.00  0.00    +0.000 C 
ATOM      8  C   UNL     1       1.542  11.468  18.867  0.00  0.00    +0.000 C 
ATOM      9  C   UNL     1      -0.562  10.174  18.294  0.00  0.00    +0.000 C 
BRANCH   7  10
ATOM     10  C   UNL     1      -0.067  10.788  20.765  0.00  0.00    +0.000 C 
BRANCH  10  11
ATOM     11  C   UNL     1      -0.043   9.780  21.965  0.00  0.00    +0.000 C 
ATOM     12  C   UNL     1       1.367   9.503  22.502  0.00  0.00    +0.000 C 
ATOM     13  C   UNL     1      -0.874  10.347  23.146  0.00  0.00    +0.000 C 
ATOM     14  C   UNL     1      -0.693   8.437  21.600  0.00  0.00    +0.000 C 
ENDBRANCH  10  11
ENDBRANCH   7  10
ENDBRANCH   4   7
BRANCH   1  15
ATOM     15  C   UNL     1       3.515   6.824  17.806  0.00  0.00    +0.000 C 
BRANCH  15  22
ATOM     16  C   UNL     1       0.954   2.742  18.971  0.00  0.00    +0.000 C 
ATOM     17  N   UNL     1       2.280   3.285  18.693  0.00  0.00    +0.000 NA
ATOM     18  C   UNL     1       2.928   2.554  17.588  0.00  0.00    +0.000 C 
ATOM     19  C   UNL     1       4.308   3.144  17.231  0.00  0.00    +0.000 C 
ATOM     20  N   UNL     1       4.209   4.573  16.858  0.00  0.00    +0.000 NA
ATOM     21  C   UNL     1       5.523   5.078  16.461  0.00  0.00    +0.000 C 
ATOM     22  C   UNL     1       3.615   5.303  18.021  0.00  0.00    +0.000 C 
ATOM     23  C   UNL     1       2.202   4.720  18.345  0.00  0.00    +0.000 C 
ENDBRANCH  15  22
ENDBRANCH   1  15
TORSDOF 5
ENDMDL
MODEL 5
REMARK VINA RESULT:      -6.0      1.952      7.900
REMARK  Name = 
REMARK  12 active torsions:
REMARK  status: ('A' for Active; 'I' for Inactive)
REMARK    1  A    between atoms: C_1  and  N_2
REMARK    2  A    between atoms: N_5  and  C_6
REMARK    3  A    between atoms: C_7  and  C_8
REMARK    4  A    between atoms: C_8  and  N_9
REMARK    5  A    between atoms: N_12  and  C_13
REMARK    6  A    between atoms: C_13  and  C_14
REMARK    7  A    between atoms: C_13  and  C_15
REMARK    8  A    between atoms: C_13  and  C_16
REMARK    9  A    between atoms: C_16  and  C_17
REMARK   10  A    between atoms: C_17  and  C_18
REMARK   11  A    between atoms: C_17  and  C_19
REMARK   12  A    between atoms: C_17  and  C_20
REMARK                            x       y       z     vdW  Elec       q    Type
REMARK                         _______ _______ _______ _____ _____    ______ ____
ROOT
ATOM      1  N   UNL     1       1.991   7.642  20.289  0.00  0.00    +0.000 N 
ATOM      2  C   UNL     1       1.327   8.789  19.943  0.00  0.00    +0.000 C 
ATOM      3  O   UNL     1       1.254   9.179  18.793  0.00  0.00    +0.000 OA
ATOM      4  N   UNL     1       0.749   9.403  21.019  0.00  0.00    +0.000 N 
ATOM      5  H   UNL     1       2.271   7.497  21.236  0.00  0.00    +0.000 HD
ATOM      6  H   UNL     1       0.885   8.998  21.928  0.00  0.00    +0.000 HD
ENDROOT
BRANCH   4   7
ATOM      7  C   UNL     1       0.042  10.699  20.903  0.00  0.00    +0.000 C 
ATOM      8  C   UNL     1      -0.661  10.937  22.258  0.00  0.00    +0.000 C 
ATOM      9  C   UNL     1       1.117  11.778  20.657  0.00  0.00    +0.000 C 
BRANCH   7  10
ATOM     10  C   UNL     1      -1.004  10.614  19.722  0.00  0.00    +0.000 C 
BRANCH  10  11
ATOM     11  C   UNL     1      -1.679  11.900  19.132  0.00  0.00    +0.000 C 
ATOM     12  C   UNL     1      -0.714  12.780  18.326  0.00  0.00    +0.000 C 
ATOM     13  C   UNL     1      -2.833  11.500  18.176  0.00  0.00    +0.000 C 
ATOM     14  C   UNL     1      -2.320  12.765  20.228  0.00  0.00    +0.000 C 
ENDBRANCH  10  11
ENDBRANCH   7  10
ENDBRANCH   4   7
BRANCH   1  15
ATOM     15  C   UNL     1       2.706   6.915  19.264  0.00  0.00    +0.000 C 
BRANCH  15  22
ATOM     16  C   UNL     1       1.452   2.701  21.555  0.00  0.00    +0.000 C 
ATOM     17  N   UNL     1       2.554   3.479  20.998  0.00  0.00    +0.000 NA
ATOM     18  C   UNL     1       3.290   2.700  19.984  0.00  0.00    +0.000 C 
ATOM     19  C   UNL     1       4.425   3.518  19.334  0.00  0.00    +0.000 C 
ATOM     20  N   UNL     1       3.912   4.753  18.700  0.00  0.00    +0.000 NA
ATOM     21  C   UNL     1       5.004   5.464  18.037  0.00  0.00    +0.000 C 
ATOM     22  C   UNL     1       3.233   5.557  19.762  0.00  0.00    +0.000 C 
ATOM     23  C   UNL     1       2.061   4.731  20.384  0.00  0.00    +0.000 C 
ENDBRANCH  15  22
ENDBRANCH   1  15
TORSDOF 5
ENDMDL
MODEL 6
REMARK VINA RESULT:      -6.0      1.815      3.403
REMARK  Name = 
REMARK  12 active torsions:
REMARK  status: ('A' for Active; 'I' for Inactive)
REMARK    1  A    between atoms: C_1  and  N_2
REMARK    2  A    between atoms: N_5  and  C_6
REMARK    3  A    between atoms: C_7  and  C_8
REMARK    4  A    between atoms: C_8  and  N_9
REMARK    5  A    between atoms: N_12  and  C_13
REMARK    6  A    between atoms: C_13  and  C_14
REMARK    7  A    between atoms: C_13  and  C_15
REMARK    8  A    between atoms: C_13  and  C_16
REMARK    9  A    between atoms: C_16  and  C_17
REMARK   10  A    between atoms: C_17  and  C_18
REMARK   11  A    between atoms: C_17  and  C_19
REMARK   12  A    between atoms: C_17  and  C_20
REMARK                            x       y       z     vdW  Elec       q    Type
REMARK                         _______ _______ _______ _____ _____    ______ ____
ROOT
ATOM      1  N   UNL     1       1.562   7.394  21.074  0.00  0.00    +0.000 N 
ATOM      2  C   UNL     1       2.003   6.303  20.373  0.00  0.00    +0.000 C 
ATOM      3  O   UNL     1       2.569   6.402  19.300  0.00  0.00    +0.000 OA
ATOM      4  N   UNL     1       1.761   5.128  21.027  0.00  0.00    +0.000 N 
ATOM      5  H   UNL     1       0.875   7.280  21.788  0.00  0.00    +0.000 HD
ATOM      6  H   UNL     1       1.274   5.163  21.905  0.00  0.00    +0.000 HD
ENDROOT
BRANCH   4   7
ATOM      7  C   UNL     1       2.080   3.810  20.430  0.00  0.00    +0.000 C 
ATOM      8  C   UNL     1       2.363   2.852  21.608  0.00  0.00    +0.000 C 
ATOM      9  C   UNL     1       0.828   3.353  19.653  0.00  0.00    +0.000 C 
BRANCH   7  10
ATOM     10  C   UNL     1       3.345   3.958  19.495  0.00  0.00    +0.000 C 
BRANCH  10  11
ATOM     11  C   UNL     1       3.444   3.202  18.126  0.00  0.00    +0.000 C 
ATOM     12  C   UNL     1       3.460   1.674  18.273  0.00  0.00    +0.000 C 
ATOM     13  C   UNL     1       2.224   3.559  17.237  0.00  0.00    +0.000 C 
ATOM     14  C   UNL     1       4.686   3.622  17.326  0.00  0.00    +0.000 C 
ENDBRANCH  10  11
ENDBRANCH   7  10
ENDBRANCH   4   7
BRANCH   1  15
ATOM     15  C   UNL     1       1.694   8.704  20.479  0.00  0.00    +0.000 C 
BRANCH  15  22
ATOM     16  C   UNL     1      -1.242  11.776  23.032  0.00  0.00    +0.000 C 
ATOM     17  N   UNL     1      -1.118  10.968  21.823  0.00  0.00    +0.000 NA
ATOM     18  C   UNL     1      -1.320  11.791  20.616  0.00  0.00    +0.000 C 
ATOM     19  C   UNL     1      -1.134  10.976  19.319  0.00  0.00    +0.000 C 
ATOM     20  N   UNL     1       0.210  10.359  19.251  0.00  0.00    +0.000 NA
ATOM     21  C   UNL     1       0.371   9.654  17.981  0.00  0.00    +0.000 C 
ATOM     22  C   UNL     1       0.361   9.476  20.448  0.00  0.00    +0.000 C 
ATOM     23  C   UNL     1       0.211  10.322  21.754  0.00  0.00    +0.000 C 
ENDBRANCH  15  22
ENDBRANCH   1  15
TORSDOF 5
ENDMDL
MODEL 7
REMARK VINA RESULT:      -6.0      2.086      2.804
REMARK  Name = 
REMARK  12 active torsions:
REMARK  status: ('A' for Active; 'I' for Inactive)
REMARK    1  A    between atoms: C_1  and  N_2
REMARK    2  A    between atoms: N_5  and  C_6
REMARK    3  A    between atoms: C_7  and  C_8
REMARK    4  A    between atoms: C_8  and  N_9
REMARK    5  A    between atoms: N_12  and  C_13
REMARK    6  A    between atoms: C_13  and  C_14
REMARK    7  A    between atoms: C_13  and  C_15
REMARK    8  A    between atoms: C_13  and  C_16
REMARK    9  A    between atoms: C_16  and  C_17
REMARK   10  A    between atoms: C_17  and  C_18
REMARK   11  A    between atoms: C_17  and  C_19
REMARK   12  A    between atoms: C_17  and  C_20
REMARK                            x       y       z     vdW  Elec       q    Type
REMARK                         _______ _______ _______ _____ _____    ______ ____
ROOT
ATOM      1  N   UNL     1       1.968   8.168  19.064  0.00  0.00    +0.000 N 
ATOM      2  C   UNL     1       2.827   7.217  18.580  0.00  0.00    +0.000 C 
ATOM      3  O   UNL     1       3.494   7.389  17.577  0.00  0.00    +0.000 OA
ATOM      4  N   UNL     1       2.859   6.096  19.361  0.00  0.00    +0.000 N 
ATOM      5  H   UNL     1       1.246   7.906  19.702  0.00  0.00    +0.000 HD
ATOM      6  H   UNL     1       2.254   6.055  20.163  0.00  0.00    +0.000 HD
ENDROOT
BRANCH   4   7
ATOM      7  C   UNL     1       3.656   4.901  18.997  0.00  0.00    +0.000 C 
ATOM      8  C   UNL     1       3.266   4.538  17.548  0.00  0.00    +0.000 C 
ATOM      9  C   UNL     1       5.141   5.313  19.068  0.00  0.00    +0.000 C 
BRANCH   7  10
ATOM     10  C   UNL     1       3.311   3.726  19.995  0.00  0.00    +0.000 C 
BRANCH  10  11
ATOM     11  C   UNL     1       1.828   3.327  20.307  0.00  0.00    +0.000 C 
ATOM     12  C   UNL     1       0.873   4.526  20.363  0.00  0.00    +0.000 C 
ATOM     13  C   UNL     1       1.295   2.373  19.205  0.00  0.00    +0.000 C 
ATOM     14  C   UNL     1       1.708   2.553  21.628  0.00  0.00    +0.000 C 
ENDBRANCH  10  11
ENDBRANCH   7  10
ENDBRANCH   4   7
BRANCH   1  15
ATOM     15  C   UNL     1       1.781   9.386  18.309  0.00  0.00    +0.000 C 
BRANCH  15  22
ATOM     16  C   UNL     1      -0.684  10.289  22.515  0.00  0.00    +0.000 C 
ATOM     17  N   UNL     1      -0.315  10.819  21.206  0.00  0.00    +0.000 NA
ATOM     18  C   UNL     1       0.370  12.119  21.338  0.00  0.00    +0.000 C 
ATOM     19  C   UNL     1       0.827  12.676  19.973  0.00  0.00    +0.000 C 
ATOM     20  N   UNL     1       1.730  11.734  19.275  0.00  0.00    +0.000 NA
ATOM     21  C   UNL     1       2.195  12.325  18.020  0.00  0.00    +0.000 C 
ATOM     22  C   UNL     1       0.987  10.449  19.091  0.00  0.00    +0.000 C 
ATOM     23  C   UNL     1       0.566   9.877  20.483  0.00  0.00    +0.000 C 
ENDBRANCH  15  22
ENDBRANCH   1  15
TORSDOF 5
ENDMDL
MODEL 8
REMARK VINA RESULT:      -5.9      2.050      2.754
REMARK  Name = 
REMARK  12 active torsions:
REMARK  status: ('A' for Active; 'I' for Inactive)
REMARK    1  A    between atoms: C_1  and  N_2
REMARK    2  A    between atoms: N_5  and  C_6
REMARK    3  A    between atoms: C_7  and  C_8
REMARK    4  A    between atoms: C_8  and  N_9
REMARK    5  A    between atoms: N_12  and  C_13
REMARK    6  A    between atoms: C_13  and  C_14
REMARK    7  A    between atoms: C_13  and  C_15
REMARK    8  A    between atoms: C_13  and  C_16
REMARK    9  A    between atoms: C_16  and  C_17
REMARK   10  A    between atoms: C_17  and  C_18
REMARK   11  A    between atoms: C_17  and  C_19
REMARK   12  A    between atoms: C_17  and  C_20
REMARK                            x       y       z     vdW  Elec       q    Type
REMARK                         _______ _______ _______ _____ _____    ______ ____
ROOT
ATOM      1  N   UNL     1       1.602   9.160  19.397  0.00  0.00    +0.000 N 
ATOM      2  C   UNL     1       2.137   7.998  18.909  0.00  0.00    +0.000 C 
ATOM      3  O   UNL     1       2.507   7.884  17.755  0.00  0.00    +0.000 OA
ATOM      4  N   UNL     1       2.227   7.023  19.862  0.00  0.00    +0.000 N 
ATOM      5  H   UNL     1       1.064   9.144  20.237  0.00  0.00    +0.000 HD
ATOM      6  H   UNL     1       1.879   7.223  20.783  0.00  0.00    +0.000 HD
ENDROOT
BRANCH   4   7
ATOM      7  C   UNL     1       2.703   5.655  19.551  0.00  0.00    +0.000 C 
ATOM      8  C   UNL     1       2.061   5.263  18.202  0.00  0.00    +0.000 C 
ATOM      9  C   UNL     1       4.238   5.733  19.414  0.00  0.00    +0.000 C 
BRANCH   7  10
ATOM     10  C   UNL     1       2.253   4.675  20.706  0.00  0.00    +0.000 C 
BRANCH  10  11
ATOM     11  C   UNL     1       2.043   3.144  20.445  0.00  0.00    +0.000 C 
ATOM     12  C   UNL     1       3.269   2.457  19.829  0.00  0.00    +0.000 C 
ATOM     13  C   UNL     1       1.740   2.417  21.782  0.00  0.00    +0.000 C 
ATOM     14  C   UNL     1       0.833   2.877  19.537  0.00  0.00    +0.000 C 
ENDBRANCH  10  11
ENDBRANCH   7  10
ENDBRANCH   4   7
BRANCH   1  15
ATOM     15  C   UNL     1       1.387  10.264  18.489  0.00  0.00    +0.000 C 
BRANCH  15  22
ATOM     16  C   UNL     1      -0.948  11.902  22.544  0.00  0.00    +0.000 C 
ATOM     17  N   UNL     1      -0.410  12.275  21.240  0.00  0.00    +0.000 NA
ATOM     18  C   UNL     1       0.565  13.375  21.366  0.00  0.00    +0.000 C 
ATOM     19  C   UNL     1       1.196  13.750  20.010  0.00  0.00    +0.000 C 
ATOM     20  N   UNL     1       1.870  12.591  19.383  0.00  0.00    +0.000 NA
ATOM     21  C   UNL     1       2.514  13.002  18.136  0.00  0.00    +0.000 C 
ATOM     22  C   UNL     1       0.846  11.517  19.201  0.00  0.00    +0.000 C 
ATOM     23  C   UNL     1       0.244  11.119  20.588  0.00  0.00    +0.000 C 
ENDBRANCH  15  22
ENDBRANCH   1  15
TORSDOF 5
ENDMDL
MODEL 9
REMARK VINA RESULT:      -5.9      2.102      7.932
REMARK  Name = 
REMARK  12 active torsions:
REMARK  status: ('A' for Active; 'I' for Inactive)
REMARK    1  A    between atoms: C_1  and  N_2
REMARK    2  A    between atoms: N_5  and  C_6
REMARK    3  A    between atoms: C_7  and  C_8
REMARK    4  A    between atoms: C_8  and  N_9
REMARK    5  A    between atoms: N_12  and  C_13
REMARK    6  A    between atoms: C_13  and  C_14
REMARK    7  A    between atoms: C_13  and  C_15
REMARK    8  A    between atoms: C_13  and  C_16
REMARK    9  A    between atoms: C_16  and  C_17
REMARK   10  A    between atoms: C_17  and  C_18
REMARK   11  A    between atoms: C_17  and  C_19
REMARK   12  A    between atoms: C_17  and  C_20
REMARK                            x       y       z     vdW  Elec       q    Type
REMARK                         _______ _______ _______ _____ _____    ______ ____
ROOT
ATOM      1  N   UNL     1       2.413   7.499  18.796  0.00  0.00    +0.000 N 
ATOM      2  C   UNL     1       1.862   8.704  18.449  0.00  0.00    +0.000 C 
ATOM      3  O   UNL     1       2.086   9.241  17.380  0.00  0.00    +0.000 OA
ATOM      4  N   UNL     1       1.030   9.196  19.415  0.00  0.00    +0.000 N 
ATOM      5  H   UNL     1       2.441   7.224  19.755  0.00  0.00    +0.000 HD
ATOM      6  H   UNL     1       0.928   8.674  20.268  0.00  0.00    +0.000 HD
ENDROOT
BRANCH   4   7
ATOM      7  C   UNL     1       0.379  10.522  19.298  0.00  0.00    +0.000 C 
ATOM      8  C   UNL     1      -0.703  10.384  18.205  0.00  0.00    +0.000 C 
ATOM      9  C   UNL     1      -0.270  10.826  20.664  0.00  0.00    +0.000 C 
BRANCH   7  10
ATOM     10  C   UNL     1       1.465  11.597  18.897  0.00  0.00    +0.000 C 
BRANCH  10  11
ATOM     11  C   UNL     1       1.173  13.134  19.004  0.00  0.00    +0.000 C 
ATOM     12  C   UNL     1      -0.216  13.528  18.487  0.00  0.00    +0.000 C 
ATOM     13  C   UNL     1       1.249  13.583  20.487  0.00  0.00    +0.000 C 
ATOM     14  C   UNL     1       2.222  13.970  18.256  0.00  0.00    +0.000 C 
ENDBRANCH  10  11
ENDBRANCH   7  10
ENDBRANCH   4   7
BRANCH   1  15
ATOM     15  C   UNL     1       3.364   6.884  17.898  0.00  0.00    +0.000 C 
BRANCH  15  22
ATOM     16  C   UNL     1       0.881   2.766  19.108  0.00  0.00    +0.000 C 
ATOM     17  N   UNL     1       2.196   3.330  18.819  0.00  0.00    +0.000 NA
ATOM     18  C   UNL     1       2.851   2.602  17.716  0.00  0.00    +0.000 C 
ATOM     19  C   UNL     1       4.219   3.214  17.348  0.00  0.00    +0.000 C 
ATOM     20  N   UNL     1       4.093   4.638  16.964  0.00  0.00    +0.000 NA
ATOM     21  C   UNL     1       5.395   5.163  16.556  0.00  0.00    +0.000 C 
ATOM     22  C   UNL     1       3.492   5.366  18.124  0.00  0.00    +0.000 C 
ATOM     23  C   UNL     1       2.090   4.761  18.460  0.00  0.00    +0.000 C 
ENDBRANCH  15  22
ENDBRANCH   1  15
TORSDOF 5
ENDMDL
