MODEL 1
REMARK VINA RESULT:      -6.8      0.000      0.000
REMARK  Name = 
REMARK  13 active torsions:
REMARK  status: ('A' for Active; 'I' for Inactive)
REMARK    1  A    between atoms: C_1  and  C_2
REMARK    2  A    between atoms: C_2  and  C_3
REMARK    3  A    between atoms: C_3  and  C_4
REMARK    4  A    between atoms: C_4  and  C_5
REMARK    5  A    between atoms: C_5  and  C_6
REMARK    6  A    between atoms: C_6  and  O_7
REMARK    7  A    between atoms: O_7  and  C_8
REMARK    8  A    between atoms: C_12  and  N_13
REMARK    9  A    between atoms: N_13  and  C_14
REMARK   10  A    between atoms: C_14  and  C_15
REMARK   11  A    between atoms: C_15  and  N_16
REMARK   12  A    between atoms: N_16  and  C_17
REMARK   13  A    between atoms: N_16  and  C_18
REMARK                            x       y       z     vdW  Elec       q    Type
REMARK                         _______ _______ _______ _____ _____    ______ ____
ROOT
ATOM      1  C   UNL     1       3.775   2.932  18.855  0.00  0.00    +0.000 A 
ATOM      2  C   UNL     1       3.468   3.166  17.518  0.00  0.00    +0.000 A 
ATOM      3  C   UNL     1       4.260   4.039  16.765  0.00  0.00    +0.000 A 
ATOM      4  C   UNL     1       5.372   4.704  17.329  0.00  0.00    +0.000 A 
ATOM      5  C   UNL     1       6.237   5.574  16.605  0.00  0.00    +0.000 A 
ATOM      6  C   UNL     1       7.260   6.202  17.320  0.00  0.00    +0.000 A 
ATOM      7  C   UNL     1       7.433   5.922  18.658  0.00  0.00    +0.000 A 
ATOM      8  N   UNL     1       6.663   5.068  19.352  0.00  0.00    +0.000 NA
ATOM      9  C   UNL     1       5.650   4.477  18.702  0.00  0.00    +0.000 A 
ATOM     10  C   UNL     1       4.859   3.594  19.425  0.00  0.00    +0.000 A 
ENDROOT
BRANCH   5  11
ATOM     11  N   UNL     1       6.108   5.801  15.231  0.00  0.00    +0.000 N 
ATOM     12  H   UNL     1       5.284   6.258  14.858  0.00  0.00    +0.000 HD
BRANCH  11  13
ATOM     13  C   UNL     1       6.896   5.023  14.278  0.00  0.00    +0.000 C 
BRANCH  13  14
ATOM     14  C   UNL     1       6.253   3.665  13.920  0.00  0.00    +0.000 C 
BRANCH  14  15
ATOM     15  N   UNL     1       6.290   3.264  12.499  0.00  0.00    +0.000 NA
ATOM     16  C   UNL     1       4.963   3.346  11.880  0.00  0.00    +0.000 C 
ATOM     17  C   UNL     1       7.216   4.140  11.773  0.00  0.00    +0.000 C 
ENDBRANCH  14  15
ENDBRANCH  13  14
ENDBRANCH  11  13
ENDBRANCH   5  11
BRANCH   1  18
ATOM     18  O   UNL     1       3.092   2.084  19.693  0.00  0.00    +0.000 OA
BRANCH  18  19
ATOM     19  C   UNL     1       3.181   2.390  21.084  0.00  0.00    +0.000 C 
BRANCH  19  20
ATOM     20  C   UNL     1       1.860   2.975  21.570  0.00  0.00    +0.000 C 
BRANCH  20  21
ATOM     21  C   UNL     1       1.072   3.543  20.388  0.00  0.00    +0.000 C 
BRANCH  21  22
ATOM     22  C   UNL     1       0.903   5.055  20.502  0.00  0.00    +0.000 C 
BRANCH  22  24
ATOM     23  C   UNL     1       2.340   6.440  18.976  0.00  0.00    +0.000 C 
ATOM     24  C   UNL     1       2.240   5.777  20.340  0.00  0.00    +0.000 C 
ENDBRANCH  22  24
ENDBRANCH  21  22
ENDBRANCH  20  21
ENDBRANCH  19  20
ENDBRANCH  18  19
ENDBRANCH   1  18
TORSDOF 10
ENDMDL
MODEL 2
REMARK VINA RESULT:      -6.6      0.712      1.165
REMARK  Name = 
REMARK  13 active torsions:
REMARK  status: ('A' for Active; 'I' for Inactive)
REMARK    1  A    between atoms: C_1  and  C_2
REMARK    2  A    between atoms: C_2  and  C_3
REMARK    3  A    between atoms: C_3  and  C_4
REMARK    4  A    between atoms: C_4  and  C_5
REMARK    5  A    between atoms: C_5  and  C_6
REMARK    6  A    between atoms: C_6  and  O_7
REMARK    7  A    between atoms: O_7  and  C_8
REMARK    8  A    between atoms: C_12  and  N_13
REMARK    9  A    between atoms: N_13  and  C_14
REMARK   10  A    between atoms: C_14  and  C_15
REMARK   11  A    between atoms: C_15  and  N_16
REMARK   12  A    between atoms: N_16  and  C_17
REMARK   13  A    between atoms: N_16  and  C_18
REMARK                            x       y       z     vdW  Elec       q    Type
REMARK                         _______ _______ _______ _____ _____    ______ ____
ROOT
ATOM      1  C   UNL     1       3.726   3.031  18.884  0.00  0.00    +0.000 A 
ATOM      2  C   UNL     1       3.514   3.227  17.523  0.00  0.00    +0.000 A 
ATOM      3  C   UNL     1       4.369   4.063  16.798  0.00  0.00    +0.000 A 
ATOM      4  C   UNL     1       5.452   4.728  17.414  0.00  0.00    +0.000 A 
ATOM      5  C   UNL     1       6.379   5.560  16.723  0.00  0.00    +0.000 A 
ATOM      6  C   UNL     1       7.363   6.196  17.485  0.00  0.00    +0.000 A 
ATOM      7  C   UNL     1       7.442   5.956  18.840  0.00  0.00    +0.000 A 
ATOM      8  N   UNL     1       6.613   5.137  19.506  0.00  0.00    +0.000 NA
ATOM      9  C   UNL     1       5.635   4.541  18.809  0.00  0.00    +0.000 A 
ATOM     10  C   UNL     1       4.782   3.694  19.505  0.00  0.00    +0.000 A 
ENDROOT
BRANCH   5  11
ATOM     11  N   UNL     1       6.346   5.745  15.337  0.00  0.00    +0.000 N 
ATOM     12  H   UNL     1       5.642   6.337  14.911  0.00  0.00    +0.000 HD
BRANCH  11  13
ATOM     13  C   UNL     1       6.998   4.785  14.449  0.00  0.00    +0.000 C 
BRANCH  13  14
ATOM     14  C   UNL     1       6.006   3.834  13.746  0.00  0.00    +0.000 C 
BRANCH  14  15
ATOM     15  N   UNL     1       6.070   3.776  12.271  0.00  0.00    +0.000 NA
ATOM     16  C   UNL     1       7.350   4.281  11.766  0.00  0.00    +0.000 C 
ATOM     17  C   UNL     1       5.893   2.387  11.833  0.00  0.00    +0.000 C 
ENDBRANCH  14  15
ENDBRANCH  13  14
ENDBRANCH  11  13
ENDBRANCH   5  11
BRANCH   1  18
ATOM     18  O   UNL     1       2.974   2.222  19.701  0.00  0.00    +0.000 OA
BRANCH  18  19
ATOM     19  C   UNL     1       2.407   2.859  20.845  0.00  0.00    +0.000 C 
BRANCH  19  20
ATOM     20  C   UNL     1       1.200   3.690  20.426  0.00  0.00    +0.000 C 
BRANCH  20  21
ATOM     21  C   UNL     1       1.445   5.167  20.739  0.00  0.00    +0.000 C 
BRANCH  21  22
ATOM     22  C   UNL     1       2.073   5.895  19.555  0.00  0.00    +0.000 C 
BRANCH  22  24
ATOM     23  C   UNL     1       1.326   7.806  21.005  0.00  0.00    +0.000 C 
ATOM     24  C   UNL     1       2.187   7.395  19.822  0.00  0.00    +0.000 C 
ENDBRANCH  22  24
ENDBRANCH  21  22
ENDBRANCH  20  21
ENDBRANCH  19  20
ENDBRANCH  18  19
ENDBRANCH   1  18
TORSDOF 10
ENDMDL
MODEL 3
REMARK VINA RESULT:      -6.6      1.436      2.367
REMARK  Name = 
REMARK  13 active torsions:
REMARK  status: ('A' for Active; 'I' for Inactive)
REMARK    1  A    between atoms: C_1  and  C_2
REMARK    2  A    between atoms: C_2  and  C_3
REMARK    3  A    between atoms: C_3  and  C_4
REMARK    4  A    between atoms: C_4  and  C_5
REMARK    5  A    between atoms: C_5  and  C_6
REMARK    6  A    between atoms: C_6  and  O_7
REMARK    7  A    between atoms: O_7  and  C_8
REMARK    8  A    between atoms: C_12  and  N_13
REMARK    9  A    between atoms: N_13  and  C_14
REMARK   10  A    between atoms: C_14  and  C_15
REMARK   11  A    between atoms: C_15  and  N_16
REMARK   12  A    between atoms: N_16  and  C_17
REMARK   13  A    between atoms: N_16  and  C_18
REMARK                            x       y       z     vdW  Elec       q    Type
REMARK                         _______ _______ _______ _____ _____    ______ ____
ROOT
ATOM      1  C   UNL     1       3.371   5.628  19.462  0.00  0.00    +0.000 A 
ATOM      2  C   UNL     1       2.969   5.978  18.177  0.00  0.00    +0.000 A 
ATOM      3  C   UNL     1       3.869   5.869  17.111  0.00  0.00    +0.000 A 
ATOM      4  C   UNL     1       5.193   5.416  17.304  0.00  0.00    +0.000 A 
ATOM      5  C   UNL     1       6.143   5.248  16.256  0.00  0.00    +0.000 A 
ATOM      6  C   UNL     1       7.432   4.845  16.616  0.00  0.00    +0.000 A 
ATOM      7  C   UNL     1       7.721   4.572  17.936  0.00  0.00    +0.000 A 
ATOM      8  N   UNL     1       6.830   4.673  18.935  0.00  0.00    +0.000 NA
ATOM      9  C   UNL     1       5.595   5.092  18.626  0.00  0.00    +0.000 A 
ATOM     10  C   UNL     1       4.678   5.193  19.666  0.00  0.00    +0.000 A 
ENDROOT
BRANCH   5  11
ATOM     11  N   UNL     1       5.830   5.452  14.908  0.00  0.00    +0.000 N 
ATOM     12  H   UNL     1       5.662   6.386  14.553  0.00  0.00    +0.000 HD
BRANCH  11  13
ATOM     13  C   UNL     1       5.307   4.355  14.097  0.00  0.00    +0.000 C 
BRANCH  13  14
ATOM     14  C   UNL     1       6.376   3.699  13.197  0.00  0.00    +0.000 C 
BRANCH  14  15
ATOM     15  N   UNL     1       5.946   3.285  11.845  0.00  0.00    +0.000 NA
ATOM     16  C   UNL     1       6.416   1.935  11.519  0.00  0.00    +0.000 C 
ATOM     17  C   UNL     1       4.481   3.317  11.773  0.00  0.00    +0.000 C 
ENDBRANCH  14  15
ENDBRANCH  13  14
ENDBRANCH  11  13
ENDBRANCH   5  11
BRANCH   1  18
ATOM     18  O   UNL     1       2.580   5.668  20.584  0.00  0.00    +0.000 OA
BRANCH  18  19
ATOM     19  C   UNL     1       1.253   5.168  20.421  0.00  0.00    +0.000 C 
BRANCH  19  20
ATOM     20  C   UNL     1       1.223   3.677  20.736  0.00  0.00    +0.000 C 
BRANCH  20  21
ATOM     21  C   UNL     1       0.630   2.904  19.557  0.00  0.00    +0.000 C 
BRANCH  21  22
ATOM     22  C   UNL     1       1.617   1.882  19.002  0.00  0.00    +0.000 C 
BRANCH  22  24
ATOM     23  C   UNL     1       3.795   1.950  17.752  0.00  0.00    +0.000 C 
ATOM     24  C   UNL     1       2.352   2.427  17.779  0.00  0.00    +0.000 C 
ENDBRANCH  22  24
ENDBRANCH  21  22
ENDBRANCH  20  21
ENDBRANCH  19  20
ENDBRANCH  18  19
ENDBRANCH   1  18
TORSDOF 10
ENDMDL
MODEL 4
REMARK VINA RESULT:      -6.6      3.393      7.609
REMARK  Name = 
REMARK  13 active torsions:
REMARK  status: ('A' for Active; 'I' for Inactive)
REMARK    1  A    between atoms: C_1  and  C_2
REMARK    2  A    between atoms: C_2  and  C_3
REMARK    3  A    between atoms: C_3  and  C_4
REMARK    4  A    between atoms: C_4  and  C_5
REMARK    5  A    between atoms: C_5  and  C_6
REMARK    6  A    between atoms: C_6  and  O_7
REMARK    7  A    between atoms: O_7  and  C_8
REMARK    8  A    between atoms: C_12  and  N_13
REMARK    9  A    between atoms: N_13  and  C_14
REMARK   10  A    between atoms: C_14  and  C_15
REMARK   11  A    between atoms: C_15  and  N_16
REMARK   12  A    between atoms: N_16  and  C_17
REMARK   13  A    between atoms: N_16  and  C_18
REMARK                            x       y       z     vdW  Elec       q    Type
REMARK                         _______ _______ _______ _____ _____    ______ ____
ROOT
ATOM      1  C   UNL     1       4.168   4.967  16.764  0.00  0.00    +0.000 A 
ATOM      2  C   UNL     1       4.115   6.213  17.378  0.00  0.00    +0.000 A 
ATOM      3  C   UNL     1       3.354   6.386  18.539  0.00  0.00    +0.000 A 
ATOM      4  C   UNL     1       2.623   5.321  19.110  0.00  0.00    +0.000 A 
ATOM      5  C   UNL     1       1.861   5.424  20.309  0.00  0.00    +0.000 A 
ATOM      6  C   UNL     1       1.145   4.294  20.715  0.00  0.00    +0.000 A 
ATOM      7  C   UNL     1       1.244   3.125  19.991  0.00  0.00    +0.000 A 
ATOM      8  N   UNL     1       1.994   2.987  18.886  0.00  0.00    +0.000 NA
ATOM      9  C   UNL     1       2.664   4.064  18.452  0.00  0.00    +0.000 A 
ATOM     10  C   UNL     1       3.439   3.913  17.309  0.00  0.00    +0.000 A 
ENDROOT
BRANCH   5  11
ATOM     11  N   UNL     1       1.821   6.588  21.085  0.00  0.00    +0.000 N 
ATOM     12  H   UNL     1       2.219   6.601  22.017  0.00  0.00    +0.000 HD
BRANCH  11  13
ATOM     13  C   UNL     1       0.851   7.639  20.787  0.00  0.00    +0.000 C 
BRANCH  13  14
ATOM     14  C   UNL     1       1.108   8.945  21.569  0.00  0.00    +0.000 C 
BRANCH  14  15
ATOM     15  N   UNL     1      -0.061   9.813  21.820  0.00  0.00    +0.000 NA
ATOM     16  C   UNL     1      -0.456   9.793  23.232  0.00  0.00    +0.000 C 
ATOM     17  C   UNL     1       0.266  11.189  21.430  0.00  0.00    +0.000 C 
ENDBRANCH  14  15
ENDBRANCH  13  14
ENDBRANCH  11  13
ENDBRANCH   5  11
BRANCH   1  18
ATOM     18  O   UNL     1       4.893   4.663  15.637  0.00  0.00    +0.000 OA
BRANCH  18  19
ATOM     19  C   UNL     1       6.055   3.862  15.849  0.00  0.00    +0.000 C 
BRANCH  19  20
ATOM     20  C   UNL     1       7.248   4.757  16.164  0.00  0.00    +0.000 C 
BRANCH  20  21
ATOM     21  C   UNL     1       7.687   4.555  17.615  0.00  0.00    +0.000 C 
BRANCH  21  22
ATOM     22  C   UNL     1       7.623   5.857  18.408  0.00  0.00    +0.000 C 
BRANCH  22  24
ATOM     23  C   UNL     1       8.198   8.278  18.060  0.00  0.00    +0.000 C 
ATOM     24  C   UNL     1       7.489   7.065  17.482  0.00  0.00    +0.000 C 
ENDBRANCH  22  24
ENDBRANCH  21  22
ENDBRANCH  20  21
ENDBRANCH  19  20
ENDBRANCH  18  19
ENDBRANCH   1  18
TORSDOF 10
ENDMDL
MODEL 5
REMARK VINA RESULT:      -6.6      3.102      7.694
REMARK  Name = 
REMARK  13 active torsions:
REMARK  status: ('A' for Active; 'I' for Inactive)
REMARK    1  A    between atoms: C_1  and  C_2
REMARK    2  A    between atoms: C_2  and  C_3
REMARK    3  A    between atoms: C_3  and  C_4
REMARK    4  A    between atoms: C_4  and  C_5
REMARK    5  A    between atoms: C_5  and  C_6
REMARK    6  A    between atoms: C_6  and  O_7
REMARK    7  A    between atoms: O_7  and  C_8
REMARK    8  A    between atoms: C_12  and  N_13
REMARK    9  A    between atoms: N_13  and  C_14
REMARK   10  A    between atoms: C_14  and  C_15
REMARK   11  A    between atoms: C_15  and  N_16
REMARK   12  A    between atoms: N_16  and  C_17
REMARK   13  A    between atoms: N_16  and  C_18
REMARK                            x       y       z     vdW  Elec       q    Type
REMARK                         _______ _______ _______ _____ _____    ______ ____
ROOT
ATOM      1  C   UNL     1       4.871   4.343  17.060  0.00  0.00    +0.000 A 
ATOM      2  C   UNL     1       4.923   5.657  17.512  0.00  0.00    +0.000 A 
ATOM      3  C   UNL     1       4.035   6.088  18.504  0.00  0.00    +0.000 A 
ATOM      4  C   UNL     1       3.071   5.219  19.062  0.00  0.00    +0.000 A 
ATOM      5  C   UNL     1       2.166   5.587  20.099  0.00  0.00    +0.000 A 
ATOM      6  C   UNL     1       1.231   4.630  20.505  0.00  0.00    +0.000 A 
ATOM      7  C   UNL     1       1.252   3.371  19.944  0.00  0.00    +0.000 A 
ATOM      8  N   UNL     1       2.127   2.984  19.002  0.00  0.00    +0.000 NA
ATOM      9  C   UNL     1       3.012   3.891  18.566  0.00  0.00    +0.000 A 
ATOM     10  C   UNL     1       3.915   3.482  17.592  0.00  0.00    +0.000 A 
ENDROOT
BRANCH   5  11
ATOM     11  N   UNL     1       2.193   6.840  20.721  0.00  0.00    +0.000 N 
ATOM     12  H   UNL     1       2.338   6.916  21.721  0.00  0.00    +0.000 HD
BRANCH  11  13
ATOM     13  C   UNL     1       1.589   8.000  20.069  0.00  0.00    +0.000 C 
BRANCH  13  14
ATOM     14  C   UNL     1       1.036   9.040  21.067  0.00  0.00    +0.000 C 
BRANCH  14  15
ATOM     15  N   UNL     1       0.275  10.171  20.497  0.00  0.00    +0.000 NA
ATOM     16  C   UNL     1       0.894  11.459  20.827  0.00  0.00    +0.000 C 
ATOM     17  C   UNL     1       0.213  10.026  19.038  0.00  0.00    +0.000 C 
ENDBRANCH  14  15
ENDBRANCH  13  14
ENDBRANCH  11  13
ENDBRANCH   5  11
BRANCH   1  18
ATOM     18  O   UNL     1       5.698   3.793  16.110  0.00  0.00    +0.000 OA
BRANCH  18  19
ATOM     19  C   UNL     1       6.834   4.579  15.753  0.00  0.00    +0.000 C 
BRANCH  19  20
ATOM     20  C   UNL     1       6.897   4.736  14.238  0.00  0.00    +0.000 C 
BRANCH  20  21
ATOM     21  C   UNL     1       5.936   3.752  13.568  0.00  0.00    +0.000 C 
BRANCH  21  22
ATOM     22  C   UNL     1       6.368   3.428  12.142  0.00  0.00    +0.000 C 
BRANCH  22  24
ATOM     23  C   UNL     1       4.089   3.074  11.146  0.00  0.00    +0.000 C 
ATOM     24  C   UNL     1       5.419   2.425  11.488  0.00  0.00    +0.000 C 
ENDBRANCH  22  24
ENDBRANCH  21  22
ENDBRANCH  20  21
ENDBRANCH  19  20
ENDBRANCH  18  19
ENDBRANCH   1  18
TORSDOF 10
ENDMDL
MODEL 6
REMARK VINA RESULT:      -6.5      0.843      1.056
REMARK  Name = 
REMARK  13 active torsions:
REMARK  status: ('A' for Active; 'I' for Inactive)
REMARK    1  A    between atoms: C_1  and  C_2
REMARK    2  A    between atoms: C_2  and  C_3
REMARK    3  A    between atoms: C_3  and  C_4
REMARK    4  A    between atoms: C_4  and  C_5
REMARK    5  A    between atoms: C_5  and  C_6
REMARK    6  A    between atoms: C_6  and  O_7
REMARK    7  A    between atoms: O_7  and  C_8
REMARK    8  A    between atoms: C_12  and  N_13
REMARK    9  A    between atoms: N_13  and  C_14
REMARK   10  A    between atoms: C_14  and  C_15
REMARK   11  A    between atoms: C_15  and  N_16
REMARK   12  A    between atoms: N_16  and  C_17
REMARK   13  A    between atoms: N_16  and  C_18
REMARK                            x       y       z     vdW  Elec       q    Type
REMARK                         _______ _______ _______ _____ _____    ______ ____
ROOT
ATOM      1  C   UNL     1       3.484   2.742  18.853  0.00  0.00    +0.000 A 
ATOM      2  C   UNL     1       3.165   2.752  17.499  0.00  0.00    +0.000 A 
ATOM      3  C   UNL     1       3.979   3.444  16.597  0.00  0.00    +0.000 A 
ATOM      4  C   UNL     1       5.127   4.147  17.024  0.00  0.00    +0.000 A 
ATOM      5  C   UNL     1       6.015   4.838  16.151  0.00  0.00    +0.000 A 
ATOM      6  C   UNL     1       7.076   5.536  16.735  0.00  0.00    +0.000 A 
ATOM      7  C   UNL     1       7.260   5.487  18.100  0.00  0.00    +0.000 A 
ATOM      8  N   UNL     1       6.467   4.802  18.939  0.00  0.00    +0.000 NA
ATOM      9  C   UNL     1       5.419   4.152  18.413  0.00  0.00    +0.000 A 
ATOM     10  C   UNL     1       4.604   3.445  19.288  0.00  0.00    +0.000 A 
ENDROOT
BRANCH   5  11
ATOM     11  N   UNL     1       5.872   4.826  14.759  0.00  0.00    +0.000 N 
ATOM     12  H   UNL     1       5.048   5.219  14.322  0.00  0.00    +0.000 HD
BRANCH  11  13
ATOM     13  C   UNL     1       6.645   3.889  13.946  0.00  0.00    +0.000 C 
BRANCH  13  14
ATOM     14  C   UNL     1       6.195   3.848  12.470  0.00  0.00    +0.000 C 
BRANCH  14  15
ATOM     15  N   UNL     1       5.271   2.762  12.085  0.00  0.00    +0.000 NA
ATOM     16  C   UNL     1       4.139   3.267  11.303  0.00  0.00    +0.000 C 
ATOM     17  C   UNL     1       5.999   1.766  11.290  0.00  0.00    +0.000 C 
ENDBRANCH  14  15
ENDBRANCH  13  14
ENDBRANCH  11  13
ENDBRANCH   5  11
BRANCH   1  18
ATOM     18  O   UNL     1       2.780   2.085  19.834  0.00  0.00    +0.000 OA
BRANCH  18  19
ATOM     19  C   UNL     1       2.645   2.787  21.069  0.00  0.00    +0.000 C 
BRANCH  19  20
ATOM     20  C   UNL     1       1.278   3.457  21.134  0.00  0.00    +0.000 C 
BRANCH  20  21
ATOM     21  C   UNL     1       1.240   4.665  20.196  0.00  0.00    +0.000 C 
BRANCH  21  22
ATOM     22  C   UNL     1       2.088   5.816  20.728  0.00  0.00    +0.000 C 
BRANCH  22  24
ATOM     23  C   UNL     1       2.316   6.287  18.271  0.00  0.00    +0.000 C 
ATOM     24  C   UNL     1       2.293   6.893  19.664  0.00  0.00    +0.000 C 
ENDBRANCH  22  24
ENDBRANCH  21  22
ENDBRANCH  20  21
ENDBRANCH  19  20
ENDBRANCH  18  19
ENDBRANCH   1  18
TORSDOF 10
ENDMDL
MODEL 7
REMARK VINA RESULT:      -6.4      5.347      7.995
REMARK  Name = 
REMARK  13 active torsions:
REMARK  status: ('A' for Active; 'I' for Inactive)
REMARK    1  A    between atoms: C_1  and  C_2
REMARK    2  A    between atoms: C_2  and  C_3
REMARK    3  A    between atoms: C_3  and  C_4
REMARK    4  A    between atoms: C_4  and  C_5
REMARK    5  A    between atoms: C_5  and  C_6
REMARK    6  A    between atoms: C_6  and  O_7
REMARK    7  A    between atoms: O_7  and  C_8
REMARK    8  A    between atoms: C_12  and  N_13
REMARK    9  A    between atoms: N_13  and  C_14
REMARK   10  A    between atoms: C_14  and  C_15
REMARK   11  A    between atoms: C_15  and  N_16
REMARK   12  A    between atoms: N_16  and  C_17
REMARK   13  A    between atoms: N_16  and  C_18
REMARK                            x       y       z     vdW  Elec       q    Type
REMARK                         _______ _______ _______ _____ _____    ______ ____
ROOT
ATOM      1  C   UNL     1       2.419   7.431  19.009  0.00  0.00    +0.000 A 
ATOM      2  C   UNL     1       2.101   8.156  17.866  0.00  0.00    +0.000 A 
ATOM      3  C   UNL     1       1.269   9.277  17.960  0.00  0.00    +0.000 A 
ATOM      4  C   UNL     1       0.731   9.697  19.197  0.00  0.00    +0.000 A 
ATOM      5  C   UNL     1      -0.089  10.849  19.364  0.00  0.00    +0.000 A 
ATOM      6  C   UNL     1      -0.593  11.099  20.643  0.00  0.00    +0.000 A 
ATOM      7  C   UNL     1      -0.240  10.276  21.691  0.00  0.00    +0.000 A 
ATOM      8  N   UNL     1       0.572   9.214  21.571  0.00  0.00    +0.000 NA
ATOM      9  C   UNL     1       1.042   8.927  20.348  0.00  0.00    +0.000 A 
ATOM     10  C   UNL     1       1.882   7.827  20.232  0.00  0.00    +0.000 A 
ENDROOT
BRANCH   5  11
ATOM     11  N   UNL     1      -0.387  11.727  18.316  0.00  0.00    +0.000 N 
ATOM     12  H   UNL     1       0.245  12.483  18.081  0.00  0.00    +0.000 HD
BRANCH  11  13
ATOM     13  C   UNL     1      -1.761  11.868  17.840  0.00  0.00    +0.000 C 
BRANCH  13  14
ATOM     14  C   UNL     1      -2.113  10.894  16.694  0.00  0.00    +0.000 C 
BRANCH  14  15
ATOM     15  N   UNL     1      -3.275  11.248  15.852  0.00  0.00    +0.000 NA
ATOM     16  C   UNL     1      -3.504  10.250  14.803  0.00  0.00    +0.000 C 
ATOM     17  C   UNL     1      -4.471  11.344  16.696  0.00  0.00    +0.000 C 
ENDBRANCH  14  15
ENDBRANCH  13  14
ENDBRANCH  11  13
ENDBRANCH   5  11
BRANCH   1  18
ATOM     18  O   UNL     1       3.239   6.329  19.054  0.00  0.00    +0.000 OA
BRANCH  18  19
ATOM     19  C   UNL     1       3.243   5.517  17.880  0.00  0.00    +0.000 C 
BRANCH  19  20
ATOM     20  C   UNL     1       1.943   4.728  17.794  0.00  0.00    +0.000 C 
BRANCH  20  21
ATOM     21  C   UNL     1       2.122   3.350  18.435  0.00  0.00    +0.000 C 
BRANCH  21  22
ATOM     22  C   UNL     1       1.015   3.052  19.441  0.00  0.00    +0.000 C 
BRANCH  22  24
ATOM     23  C   UNL     1       2.175   3.620  21.596  0.00  0.00    +0.000 C 
ATOM     24  C   UNL     1       1.070   4.011  20.629  0.00  0.00    +0.000 C 
ENDBRANCH  22  24
ENDBRANCH  21  22
ENDBRANCH  20  21
ENDBRANCH  19  20
ENDBRANCH  18  19
ENDBRANCH   1  18
TORSDOF 10
ENDMDL
MODEL 8
REMARK VINA RESULT:      -6.4      3.098      7.763
REMARK  Name = 
REMARK  13 active torsions:
REMARK  status: ('A' for Active; 'I' for Inactive)
REMARK    1  A    between atoms: C_1  and  C_2
REMARK    2  A    between atoms: C_2  and  C_3
REMARK    3  A    between atoms: C_3  and  C_4
REMARK    4  A    between atoms: C_4  and  C_5
REMARK    5  A    between atoms: C_5  and  C_6
REMARK    6  A    between atoms: C_6  and  O_7
REMARK    7  A    between atoms: O_7  and  C_8
REMARK    8  A    between atoms: C_12  and  N_13
REMARK    9  A    between atoms: N_13  and  C_14
REMARK   10  A    between atoms: C_14  and  C_15
REMARK   11  A    between atoms: C_15  and  N_16
REMARK   12  A    between atoms: N_16  and  C_17
REMARK   13  A    between atoms: N_16  and  C_18
REMARK                            x       y       z     vdW  Elec       q    Type
REMARK                         _______ _______ _______ _____ _____    ______ ____
ROOT
ATOM      1  C   UNL     1       5.023   5.296  15.693  0.00  0.00    +0.000 A 
ATOM      2  C   UNL     1       4.914   6.481  16.413  0.00  0.00    +0.000 A 
ATOM      3  C   UNL     1       4.233   6.493  17.636  0.00  0.00    +0.000 A 
ATOM      4  C   UNL     1       3.640   5.325  18.165  0.00  0.00    +0.000 A 
ATOM      5  C   UNL     1       2.969   5.265  19.419  0.00  0.00    +0.000 A 
ATOM      6  C   UNL     1       2.383   4.047  19.776  0.00  0.00    +0.000 A 
ATOM      7  C   UNL     1       2.523   2.952  18.951  0.00  0.00    +0.000 A 
ATOM      8  N   UNL     1       3.194   2.969  17.788  0.00  0.00    +0.000 NA
ATOM      9  C   UNL     1       3.735   4.133  17.401  0.00  0.00    +0.000 A 
ATOM     10  C   UNL     1       4.430   4.142  16.198  0.00  0.00    +0.000 A 
ENDROOT
BRANCH   5  11
ATOM     11  N   UNL     1       2.891   6.356  20.291  0.00  0.00    +0.000 N 
ATOM     12  H   UNL     1       3.624   6.527  20.969  0.00  0.00    +0.000 HD
BRANCH  11  13
ATOM     13  C   UNL     1       1.605   6.994  20.562  0.00  0.00    +0.000 C 
BRANCH  13  14
ATOM     14  C   UNL     1       1.539   8.460  20.083  0.00  0.00    +0.000 C 
BRANCH  14  15
ATOM     15  N   UNL     1       0.407   9.272  20.577  0.00  0.00    +0.000 NA
ATOM     16  C   UNL     1      -0.185   8.694  21.787  0.00  0.00    +0.000 C 
ATOM     17  C   UNL     1       0.878  10.630  20.871  0.00  0.00    +0.000 C 
ENDBRANCH  14  15
ENDBRANCH  13  14
ENDBRANCH  11  13
ENDBRANCH   5  11
BRANCH   1  18
ATOM     18  O   UNL     1       5.681   5.148  14.496  0.00  0.00    +0.000 OA
BRANCH  18  19
ATOM     19  C   UNL     1       6.374   3.912  14.323  0.00  0.00    +0.000 C 
BRANCH  19  20
ATOM     20  C   UNL     1       6.300   3.481  12.863  0.00  0.00    +0.000 C 
BRANCH  20  21
ATOM     21  C   UNL     1       4.899   3.740  12.308  0.00  0.00    +0.000 C 
BRANCH  21  22
ATOM     22  C   UNL     1       4.566   2.794  11.159  0.00  0.00    +0.000 C 
BRANCH  22  24
ATOM     23  C   UNL     1       3.133   4.254   9.701  0.00  0.00    +0.000 C 
ATOM     24  C   UNL     1       3.158   3.046  10.622  0.00  0.00    +0.000 C 
ENDBRANCH  22  24
ENDBRANCH  21  22
ENDBRANCH  20  21
ENDBRANCH  19  20
ENDBRANCH  18  19
ENDBRANCH   1  18
TORSDOF 10
ENDMDL
MODEL 9
REMARK VINA RESULT:      -6.3      2.754      6.837
REMARK  Name = 
REMARK  13 active torsions:
REMARK  status: ('A' for Active; 'I' for Inactive)
REMARK    1  A    between atoms: C_1  and  C_2
REMARK    2  A    between atoms: C_2  and  C_3
REMARK    3  A    between atoms: C_3  and  C_4
REMARK    4  A    between atoms: C_4  and  C_5
REMARK    5  A    between atoms: C_5  and  C_6
REMARK    6  A    between atoms: C_6  and  O_7
REMARK    7  A    between atoms: O_7  and  C_8
REMARK    8  A    between atoms: C_12  and  N_13
REMARK    9  A    between atoms: N_13  and  C_14
REMARK   10  A    between atoms: C_14  and  C_15
REMARK   11  A    between atoms: C_15  and  N_16
REMARK   12  A    between atoms: N_16  and  C_17
REMARK   13  A    between atoms: N_16  and  C_18
REMARK                            x       y       z     vdW  Elec       q    Type
REMARK                         _______ _______ _______ _____ _____    ______ ____
ROOT
ATOM      1  C   UNL     1       5.774   5.880  16.623  0.00  0.00    +0.000 A 
ATOM      2  C   UNL     1       5.780   4.924  17.633  0.00  0.00    +0.000 A 
ATOM      3  C   UNL     1       4.843   4.998  18.669  0.00  0.00    +0.000 A 
ATOM      4  C   UNL     1       3.882   6.032  18.724  0.00  0.00    +0.000 A 
ATOM      5  C   UNL     1       2.879   6.141  19.730  0.00  0.00    +0.000 A 
ATOM      6  C   UNL     1       2.037   7.255  19.679  0.00  0.00    +0.000 A 
ATOM      7  C   UNL     1       2.161   8.161  18.648  0.00  0.00    +0.000 A 
ATOM      8  N   UNL     1       3.064   8.055  17.660  0.00  0.00    +0.000 NA
ATOM      9  C   UNL     1       3.910   7.016  17.701  0.00  0.00    +0.000 A 
ATOM     10  C   UNL     1       4.840   6.912  16.675  0.00  0.00    +0.000 A 
ENDROOT
BRANCH   5  11
ATOM     11  N   UNL     1       2.704   5.182  20.734  0.00  0.00    +0.000 N 
ATOM     12  H   UNL     1       3.499   4.829  21.254  0.00  0.00    +0.000 HD
BRANCH  11  13
ATOM     13  C   UNL     1       1.500   4.355  20.762  0.00  0.00    +0.000 C 
BRANCH  13  14
ATOM     14  C   UNL     1       1.143   3.753  19.386  0.00  0.00    +0.000 C 
BRANCH  14  15
ATOM     15  N   UNL     1       1.806   2.484  19.021  0.00  0.00    +0.000 NA
ATOM     16  C   UNL     1       2.414   2.556  17.689  0.00  0.00    +0.000 C 
ATOM     17  C   UNL     1       2.847   2.181  20.010  0.00  0.00    +0.000 C 
ENDBRANCH  14  15
ENDBRANCH  13  14
ENDBRANCH  11  13
ENDBRANCH   5  11
BRANCH   1  18
ATOM     18  O   UNL     1       6.624   5.906  15.543  0.00  0.00    +0.000 OA
BRANCH  18  19
ATOM     19  C   UNL     1       6.874   4.644  14.926  0.00  0.00    +0.000 C 
BRANCH  19  20
ATOM     20  C   UNL     1       5.767   4.330  13.926  0.00  0.00    +0.000 C 
BRANCH  20  21
ATOM     21  C   UNL     1       6.236   3.256  12.943  0.00  0.00    +0.000 C 
BRANCH  21  22
ATOM     22  C   UNL     1       5.563   3.409  11.583  0.00  0.00    +0.000 C 
BRANCH  22  24
ATOM     23  C   UNL     1       3.380   3.326  10.342  0.00  0.00    +0.000 C 
ATOM     24  C   UNL     1       4.041   3.375  11.709  0.00  0.00    +0.000 C 
ENDBRANCH  22  24
ENDBRANCH  21  22
ENDBRANCH  20  21
ENDBRANCH  19  20
ENDBRANCH  18  19
ENDBRANCH   1  18
TORSDOF 10
ENDMDL
