MODEL 1
REMARK VINA RESULT:      -8.4      0.000      0.000
REMARK  Name = 
REMARK  7 active torsions:
REMARK  status: ('A' for Active; 'I' for Inactive)
REMARK    1  A    between atoms: C_2  and  C_3
REMARK    2  A    between atoms: C_6  and  C_7
REMARK    3  A    between atoms: C_12  and  C_13
REMARK    4  A    between atoms: N_19  and  C_20
REMARK    5  A    between atoms: N_19  and  C_24
REMARK    6  A    between atoms: C_20  and  C_21
REMARK    7  A    between atoms: C_24  and  C_25
REMARK                            x       y       z     vdW  Elec       q    Type
REMARK                         _______ _______ _______ _____ _____    ______ ____
ROOT
ATOM      1  C   UNL     1       1.292   9.603  19.323  0.00  0.00    +0.000 A 
ATOM      2  C   UNL     1       1.539   8.522  20.184  0.00  0.00    +0.000 A 
ATOM      3  C   UNL     1       2.181   7.352  19.731  0.00  0.00    +0.000 A 
ATOM      4  C   UNL     1       2.708   7.267  18.438  0.00  0.00    +0.000 A 
ATOM      5  C   UNL     1       2.381   8.327  17.574  0.00  0.00    +0.000 A 
ATOM      6  C   UNL     1       1.622   9.426  17.986  0.00  0.00    +0.000 A 
ENDROOT
BRANCH   4   7
ATOM      7  C   UNL     1       3.514   6.137  17.907  0.00  0.00    +0.000 A 
ATOM      8  N   UNL     1       4.824   6.499  17.722  0.00  0.00    +0.000 NA
ATOM      9  C   UNL     1       5.728   5.596  17.306  0.00  0.00    +0.000 A 
ATOM     10  C   UNL     1       5.404   4.294  17.017  0.00  0.00    +0.000 A 
ATOM     11  C   UNL     1       4.089   3.910  17.197  0.00  0.00    +0.000 A 
ATOM     12  C   UNL     1       3.110   4.820  17.671  0.00  0.00    +0.000 A 
BRANCH  12  13
ATOM     13  C   UNL     1       1.729   4.265  17.876  0.00  0.00    +0.000 C 
ATOM     14  F   UNL     1       0.730   4.816  17.141  0.00  0.00    +0.000 F 
ATOM     15  F   UNL     1       1.684   2.924  17.630  0.00  0.00    +0.000 F 
ATOM     16  F   UNL     1       1.313   4.405  19.171  0.00  0.00    +0.000 F 
ENDBRANCH  12  13
ENDBRANCH   4   7
BRANCH   1  18
ATOM     17  O   UNL     1       1.372  11.584  20.541  0.00  0.00    +0.000 OA
ATOM     18  C   UNL     1       0.639  10.836  19.891  0.00  0.00    +0.000 C 
ATOM     19  N   UNL     1      -0.731  11.142  19.700  0.00  0.00    +0.000 N 
BRANCH  19  20
ATOM     20  C   UNL     1      -1.259  12.264  20.482  0.00  0.00    +0.000 C 
BRANCH  20  21
ATOM     21  C   UNL     1      -1.901  11.848  21.780  0.00  0.00    +0.000 C 
ATOM     22  C   UNL     1      -1.146  11.145  22.882  0.00  0.00    +0.000 C 
ATOM     23  C   UNL     1      -1.538  12.584  23.049  0.00  0.00    +0.000 C 
ENDBRANCH  20  21
ENDBRANCH  19  20
BRANCH  19  24
ATOM     24  C   UNL     1      -1.588  10.508  18.691  0.00  0.00    +0.000 C 
BRANCH  24  25
ATOM     25  C   UNL     1      -2.366  11.356  17.677  0.00  0.00    +0.000 C 
ATOM     26  C   UNL     1      -3.855  11.358  18.037  0.00  0.00    +0.000 C 
ATOM     27  C   UNL     1      -4.518  11.428  16.686  0.00  0.00    +0.000 C 
ATOM     28  C   UNL     1      -3.581  10.612  15.826  0.00  0.00    +0.000 C 
ATOM     29  O   UNL     1      -2.264  10.792  16.359  0.00  0.00    +0.000 OA
ENDBRANCH  24  25
ENDBRANCH  19  24
ENDBRANCH   1  18
TORSDOF 7
ENDMDL
MODEL 2
REMARK VINA RESULT:      -8.3      3.418      8.322
REMARK  Name = 
REMARK  7 active torsions:
REMARK  status: ('A' for Active; 'I' for Inactive)
REMARK    1  A    between atoms: C_2  and  C_3
REMARK    2  A    between atoms: C_6  and  C_7
REMARK    3  A    between atoms: C_12  and  C_13
REMARK    4  A    between atoms: N_19  and  C_20
REMARK    5  A    between atoms: N_19  and  C_24
REMARK    6  A    between atoms: C_20  and  C_21
REMARK    7  A    between atoms: C_24  and  C_25
REMARK                            x       y       z     vdW  Elec       q    Type
REMARK                         _______ _______ _______ _____ _____    ______ ____
ROOT
ATOM      1  C   UNL     1       3.136   6.840  18.606  0.00  0.00    +0.000 A 
ATOM      2  C   UNL     1       2.745   7.808  17.668  0.00  0.00    +0.000 A 
ATOM      3  C   UNL     1       1.837   8.832  18.003  0.00  0.00    +0.000 A 
ATOM      4  C   UNL     1       1.383   9.000  19.314  0.00  0.00    +0.000 A 
ATOM      5  C   UNL     1       1.726   7.977  20.215  0.00  0.00    +0.000 A 
ATOM      6  C   UNL     1       2.514   6.883  19.846  0.00  0.00    +0.000 A 
ENDROOT
BRANCH   4   7
ATOM      7  C   UNL     1       0.535  10.121  19.798  0.00  0.00    +0.000 A 
ATOM      8  N   UNL     1       0.473  11.137  18.878  0.00  0.00    +0.000 NA
ATOM      9  C   UNL     1      -0.297  12.215  19.104  0.00  0.00    +0.000 A 
ATOM     10  C   UNL     1      -1.029  12.381  20.253  0.00  0.00    +0.000 A 
ATOM     11  C   UNL     1      -0.980  11.369  21.192  0.00  0.00    +0.000 A 
ATOM     12  C   UNL     1      -0.211  10.196  20.977  0.00  0.00    +0.000 A 
BRANCH  12  13
ATOM     13  C   UNL     1      -0.284   9.148  22.050  0.00  0.00    +0.000 C 
ATOM     14  F   UNL     1      -0.791   7.940  21.696  0.00  0.00    +0.000 F 
ATOM     15  F   UNL     1       0.941   8.899  22.596  0.00  0.00    +0.000 F 
ATOM     16  F   UNL     1      -1.067   9.548  23.098  0.00  0.00    +0.000 F 
ENDBRANCH  12  13
ENDBRANCH   4   7
BRANCH   1  18
ATOM     17  O   UNL     1       5.326   6.085  18.381  0.00  0.00    +0.000 OA
ATOM     18  C   UNL     1       4.143   5.800  18.185  0.00  0.00    +0.000 C 
ATOM     19  N   UNL     1       3.776   4.562  17.603  0.00  0.00    +0.000 N 
BRANCH  19  20
ATOM     20  C   UNL     1       4.872   3.751  17.064  0.00  0.00    +0.000 C 
BRANCH  20  21
ATOM     21  C   UNL     1       5.144   3.995  15.603  0.00  0.00    +0.000 C 
ATOM     22  C   UNL     1       5.525   5.348  15.053  0.00  0.00    +0.000 C 
ATOM     23  C   UNL     1       6.562   4.267  15.154  0.00  0.00    +0.000 C 
ENDBRANCH  20  21
ENDBRANCH  19  20
BRANCH  19  24
ATOM     24  C   UNL     1       2.420   4.001  17.633  0.00  0.00    +0.000 C 
BRANCH  24  25
ATOM     25  C   UNL     1       2.010   2.997  18.717  0.00  0.00    +0.000 C 
ATOM     26  C   UNL     1       0.926   3.611  19.609  0.00  0.00    +0.000 C 
ATOM     27  C   UNL     1       1.228   3.005  20.956  0.00  0.00    +0.000 C 
ATOM     28  C   UNL     1       2.736   2.916  20.936  0.00  0.00    +0.000 C 
ATOM     29  O   UNL     1       3.123   2.694  19.574  0.00  0.00    +0.000 OA
ENDBRANCH  24  25
ENDBRANCH  19  24
ENDBRANCH   1  18
TORSDOF 7
ENDMDL
MODEL 3
REMARK VINA RESULT:      -8.3      3.125      8.357
REMARK  Name = 
REMARK  7 active torsions:
REMARK  status: ('A' for Active; 'I' for Inactive)
REMARK    1  A    between atoms: C_2  and  C_3
REMARK    2  A    between atoms: C_6  and  C_7
REMARK    3  A    between atoms: C_12  and  C_13
REMARK    4  A    between atoms: N_19  and  C_20
REMARK    5  A    between atoms: N_19  and  C_24
REMARK    6  A    between atoms: C_20  and  C_21
REMARK    7  A    between atoms: C_24  and  C_25
REMARK                            x       y       z     vdW  Elec       q    Type
REMARK                         _______ _______ _______ _____ _____    ______ ____
ROOT
ATOM      1  C   UNL     1       3.085   7.210  18.346  0.00  0.00    +0.000 A 
ATOM      2  C   UNL     1       2.757   8.282  17.500  0.00  0.00    +0.000 A 
ATOM      3  C   UNL     1       1.800   9.247  17.873  0.00  0.00    +0.000 A 
ATOM      4  C   UNL     1       1.226   9.247  19.148  0.00  0.00    +0.000 A 
ATOM      5  C   UNL     1       1.510   8.124  19.945  0.00  0.00    +0.000 A 
ATOM      6  C   UNL     1       2.353   7.094  19.520  0.00  0.00    +0.000 A 
ENDROOT
BRANCH   4   7
ATOM      7  C   UNL     1       0.313  10.289  19.684  0.00  0.00    +0.000 A 
ATOM      8  N   UNL     1       0.839  10.893  20.798  0.00  0.00    +0.000 NA
ATOM      9  C   UNL     1       0.190  11.908  21.394  0.00  0.00    +0.000 A 
ATOM     10  C   UNL     1      -1.025  12.375  20.958  0.00  0.00    +0.000 A 
ATOM     11  C   UNL     1      -1.571  11.780  19.837  0.00  0.00    +0.000 A 
ATOM     12  C   UNL     1      -0.902  10.731  19.154  0.00  0.00    +0.000 A 
BRANCH  12  13
ATOM     13  C   UNL     1      -1.576  10.206  17.919  0.00  0.00    +0.000 C 
ATOM     14  F   UNL     1      -0.856   9.363  17.137  0.00  0.00    +0.000 F 
ATOM     15  F   UNL     1      -2.733   9.549  18.218  0.00  0.00    +0.000 F 
ATOM     16  F   UNL     1      -1.947  11.217  17.075  0.00  0.00    +0.000 F 
ENDBRANCH  12  13
ENDBRANCH   4   7
BRANCH   1  18
ATOM     17  O   UNL     1       5.307   6.663  17.923  0.00  0.00    +0.000 OA
ATOM     18  C   UNL     1       4.148   6.242  17.896  0.00  0.00    +0.000 C 
ATOM     19  N   UNL     1       3.860   4.923  17.468  0.00  0.00    +0.000 N 
BRANCH  19  20
ATOM     20  C   UNL     1       4.973   4.178  16.871  0.00  0.00    +0.000 C 
BRANCH  20  21
ATOM     21  C   UNL     1       5.361   4.665  15.500  0.00  0.00    +0.000 C 
ATOM     22  C   UNL     1       6.788   4.956  15.104  0.00  0.00    +0.000 C 
ATOM     23  C   UNL     1       6.103   3.732  14.571  0.00  0.00    +0.000 C 
ENDBRANCH  20  21
ENDBRANCH  19  20
BRANCH  19  24
ATOM     24  C   UNL     1       2.586   4.233  17.709  0.00  0.00    +0.000 C 
BRANCH  24  25
ATOM     25  C   UNL     1       2.434   3.251  18.877  0.00  0.00    +0.000 C 
ATOM     26  C   UNL     1       0.980   3.243  19.360  0.00  0.00    +0.000 C 
ATOM     27  C   UNL     1       1.129   2.999  20.840  0.00  0.00    +0.000 C 
ATOM     28  C   UNL     1       2.405   3.742  21.160  0.00  0.00    +0.000 C 
ATOM     29  O   UNL     1       3.236   3.666  19.995  0.00  0.00    +0.000 OA
ENDBRANCH  24  25
ENDBRANCH  19  24
ENDBRANCH   1  18
TORSDOF 7
ENDMDL
MODEL 4
REMARK VINA RESULT:      -8.3      3.319      8.207
REMARK  Name = 
REMARK  7 active torsions:
REMARK  status: ('A' for Active; 'I' for Inactive)
REMARK    1  A    between atoms: C_2  and  C_3
REMARK    2  A    between atoms: C_6  and  C_7
REMARK    3  A    between atoms: C_12  and  C_13
REMARK    4  A    between atoms: N_19  and  C_20
REMARK    5  A    between atoms: N_19  and  C_24
REMARK    6  A    between atoms: C_20  and  C_21
REMARK    7  A    between atoms: C_24  and  C_25
REMARK                            x       y       z     vdW  Elec       q    Type
REMARK                         _______ _______ _______ _____ _____    ______ ____
ROOT
ATOM      1  C   UNL     1       2.689   7.296  18.780  0.00  0.00    +0.000 A 
ATOM      2  C   UNL     1       2.486   8.168  17.698  0.00  0.00    +0.000 A 
ATOM      3  C   UNL     1       1.670   9.311  17.817  0.00  0.00    +0.000 A 
ATOM      4  C   UNL     1       1.128   9.691  19.049  0.00  0.00    +0.000 A 
ATOM      5  C   UNL     1       1.280   8.765  20.096  0.00  0.00    +0.000 A 
ATOM      6  C   UNL     1       1.973   7.561  19.939  0.00  0.00    +0.000 A 
ENDROOT
BRANCH   4   7
ATOM      7  C   UNL     1       0.369  10.942  19.309  0.00  0.00    +0.000 A 
ATOM      8  N   UNL     1       1.114  11.840  20.031  0.00  0.00    +0.000 NA
ATOM      9  C   UNL     1       0.624  13.060  20.315  0.00  0.00    +0.000 A 
ATOM     10  C   UNL     1      -0.631  13.465  19.937  0.00  0.00    +0.000 A 
ATOM     11  C   UNL     1      -1.397  12.575  19.209  0.00  0.00    +0.000 A 
ATOM     12  C   UNL     1      -0.905  11.292  18.854  0.00  0.00    +0.000 A 
BRANCH  12  13
ATOM     13  C   UNL     1      -1.814  10.440  18.016  0.00  0.00    +0.000 C 
ATOM     14  F   UNL     1      -1.335  10.027  16.816  0.00  0.00    +0.000 F 
ATOM     15  F   UNL     1      -2.200   9.313  18.678  0.00  0.00    +0.000 F 
ATOM     16  F   UNL     1      -2.978  11.091  17.709  0.00  0.00    +0.000 F 
ENDBRANCH  12  13
ENDBRANCH   4   7
BRANCH   1  18
ATOM     17  O   UNL     1       4.759   6.258  19.006  0.00  0.00    +0.000 OA
ATOM     18  C   UNL     1       3.608   6.118  18.587  0.00  0.00    +0.000 C 
ATOM     19  N   UNL     1       3.197   4.911  17.970  0.00  0.00    +0.000 N 
BRANCH  19  20
ATOM     20  C   UNL     1       4.256   3.942  17.674  0.00  0.00    +0.000 C 
BRANCH  20  21
ATOM     21  C   UNL     1       4.766   4.015  16.259  0.00  0.00    +0.000 C 
ATOM     22  C   UNL     1       5.351   5.271  15.660  0.00  0.00    +0.000 C 
ATOM     23  C   UNL     1       6.255   4.127  16.018  0.00  0.00    +0.000 C 
ENDBRANCH  20  21
ENDBRANCH  19  20
BRANCH  19  24
ATOM     24  C   UNL     1       1.797   4.531  17.744  0.00  0.00    +0.000 C 
BRANCH  24  25
ATOM     25  C   UNL     1       1.080   3.573  18.703  0.00  0.00    +0.000 C 
ATOM     26  C   UNL     1       1.109   4.144  20.124  0.00  0.00    +0.000 C 
ATOM     27  C   UNL     1       1.193   2.902  20.974  0.00  0.00    +0.000 C 
ATOM     28  C   UNL     1       2.043   1.988  20.123  0.00  0.00    +0.000 C 
ATOM     29  O   UNL     1       1.758   2.306  18.756  0.00  0.00    +0.000 OA
ENDBRANCH  24  25
ENDBRANCH  19  24
ENDBRANCH   1  18
TORSDOF 7
ENDMDL
MODEL 5
REMARK VINA RESULT:      -8.2      3.606      8.442
REMARK  Name = 
REMARK  7 active torsions:
REMARK  status: ('A' for Active; 'I' for Inactive)
REMARK    1  A    between atoms: C_2  and  C_3
REMARK    2  A    between atoms: C_6  and  C_7
REMARK    3  A    between atoms: C_12  and  C_13
REMARK    4  A    between atoms: N_19  and  C_20
REMARK    5  A    between atoms: N_19  and  C_24
REMARK    6  A    between atoms: C_20  and  C_21
REMARK    7  A    between atoms: C_24  and  C_25
REMARK                            x       y       z     vdW  Elec       q    Type
REMARK                         _______ _______ _______ _____ _____    ______ ____
ROOT
ATOM      1  C   UNL     1       3.198   6.420  18.952  0.00  0.00    +0.000 A 
ATOM      2  C   UNL     1       2.792   7.550  18.224  0.00  0.00    +0.000 A 
ATOM      3  C   UNL     1       1.868   8.473  18.753  0.00  0.00    +0.000 A 
ATOM      4  C   UNL     1       1.410   8.370  20.070  0.00  0.00    +0.000 A 
ATOM      5  C   UNL     1       1.767   7.192  20.750  0.00  0.00    +0.000 A 
ATOM      6  C   UNL     1       2.573   6.206  20.174  0.00  0.00    +0.000 A 
ENDROOT
BRANCH   4   7
ATOM      7  C   UNL     1       0.544   9.358  20.763  0.00  0.00    +0.000 A 
ATOM      8  N   UNL     1       0.430   9.075  22.101  0.00  0.00    +0.000 NA
ATOM      9  C   UNL     1      -0.263   9.892  22.914  0.00  0.00    +0.000 A 
ATOM     10  C   UNL     1      -0.911  11.015  22.466  0.00  0.00    +0.000 A 
ATOM     11  C   UNL     1      -0.809  11.317  21.122  0.00  0.00    +0.000 A 
ATOM     12  C   UNL     1      -0.056  10.505  20.235  0.00  0.00    +0.000 A 
BRANCH  12  13
ATOM     13  C   UNL     1       0.021  10.971  18.810  0.00  0.00    +0.000 C 
ATOM     14  F   UNL     1       1.255  11.253  18.321  0.00  0.00    +0.000 F 
ATOM     15  F   UNL     1      -0.527  10.063  17.953  0.00  0.00    +0.000 F 
ATOM     16  F   UNL     1      -0.692  12.122  18.614  0.00  0.00    +0.000 F 
ENDBRANCH  12  13
ENDBRANCH   4   7
BRANCH   1  18
ATOM     17  O   UNL     1       5.400   5.780  18.561  0.00  0.00    +0.000 OA
ATOM     18  C   UNL     1       4.220   5.501  18.337  0.00  0.00    +0.000 C 
ATOM     19  N   UNL     1       3.873   4.376  17.550  0.00  0.00    +0.000 N 
BRANCH  19  20
ATOM     20  C   UNL     1       4.977   3.704  16.857  0.00  0.00    +0.000 C 
BRANCH  20  21
ATOM     21  C   UNL     1       5.183   4.180  15.443  0.00  0.00    +0.000 C 
ATOM     22  C   UNL     1       5.537   5.607  15.100  0.00  0.00    +0.000 C 
ATOM     23  C   UNL     1       6.579   4.534  14.983  0.00  0.00    +0.000 C 
ENDBRANCH  20  21
ENDBRANCH  19  20
BRANCH  19  24
ATOM     24  C   UNL     1       2.531   3.780  17.502  0.00  0.00    +0.000 C 
BRANCH  24  25
ATOM     25  C   UNL     1       2.084   2.770  18.565  0.00  0.00    +0.000 C 
ATOM     26  C   UNL     1       0.966   3.377  19.419  0.00  0.00    +0.000 C 
ATOM     27  C   UNL     1       1.219   2.764  20.773  0.00  0.00    +0.000 C 
ATOM     28  C   UNL     1       2.727   2.677  20.809  0.00  0.00    +0.000 C 
ATOM     29  O   UNL     1       3.165   2.463  19.461  0.00  0.00    +0.000 OA
ENDBRANCH  24  25
ENDBRANCH  19  24
ENDBRANCH   1  18
TORSDOF 7
ENDMDL
MODEL 6
REMARK VINA RESULT:      -8.1      0.724      1.166
REMARK  Name = 
REMARK  7 active torsions:
REMARK  status: ('A' for Active; 'I' for Inactive)
REMARK    1  A    between atoms: C_2  and  C_3
REMARK    2  A    between atoms: C_6  and  C_7
REMARK    3  A    between atoms: C_12  and  C_13
REMARK    4  A    between atoms: N_19  and  C_20
REMARK    5  A    between atoms: N_19  and  C_24
REMARK    6  A    between atoms: C_20  and  C_21
REMARK    7  A    between atoms: C_24  and  C_25
REMARK                            x       y       z     vdW  Elec       q    Type
REMARK                         _______ _______ _______ _____ _____    ______ ____
ROOT
ATOM      1  C   UNL     1       1.324   9.430  19.668  0.00  0.00    +0.000 A 
ATOM      2  C   UNL     1       1.585   8.277  20.425  0.00  0.00    +0.000 A 
ATOM      3  C   UNL     1       2.198   7.144  19.852  0.00  0.00    +0.000 A 
ATOM      4  C   UNL     1       2.683   7.165  18.541  0.00  0.00    +0.000 A 
ATOM      5  C   UNL     1       2.341   8.298  17.782  0.00  0.00    +0.000 A 
ATOM      6  C   UNL     1       1.609   9.365  18.311  0.00  0.00    +0.000 A 
ENDROOT
BRANCH   4   7
ATOM      7  C   UNL     1       3.458   6.078  17.889  0.00  0.00    +0.000 A 
ATOM      8  N   UNL     1       4.742   6.475  17.609  0.00  0.00    +0.000 NA
ATOM      9  C   UNL     1       5.621   5.611  17.074  0.00  0.00    +0.000 A 
ATOM     10  C   UNL     1       5.294   4.317  16.752  0.00  0.00    +0.000 A 
ATOM     11  C   UNL     1       4.007   3.898  17.026  0.00  0.00    +0.000 A 
ATOM     12  C   UNL     1       3.057   4.766  17.627  0.00  0.00    +0.000 A 
BRANCH  12  13
ATOM     13  C   UNL     1       1.709   4.173  17.922  0.00  0.00    +0.000 C 
ATOM     14  F   UNL     1       1.264   4.266  19.201  0.00  0.00    +0.000 F 
ATOM     15  F   UNL     1       0.735   4.722  17.142  0.00  0.00    +0.000 F 
ATOM     16  F   UNL     1       1.674   2.833  17.649  0.00  0.00    +0.000 F 
ENDBRANCH  12  13
ENDBRANCH   4   7
BRANCH   1  18
ATOM     17  O   UNL     1       1.213  10.939  21.436  0.00  0.00    +0.000 OA
ATOM     18  C   UNL     1       0.703  10.615  20.361  0.00  0.00    +0.000 C 
ATOM     19  N   UNL     1      -0.394  11.334  19.828  0.00  0.00    +0.000 N 
BRANCH  19  20
ATOM     20  C   UNL     1      -1.010  12.327  20.713  0.00  0.00    +0.000 C 
BRANCH  20  21
ATOM     21  C   UNL     1      -1.891  11.727  21.776  0.00  0.00    +0.000 C 
ATOM     22  C   UNL     1      -1.820  12.132  23.229  0.00  0.00    +0.000 C 
ATOM     23  C   UNL     1      -2.984  12.573  22.390  0.00  0.00    +0.000 C 
ENDBRANCH  20  21
ENDBRANCH  19  20
BRANCH  19  24
ATOM     24  C   UNL     1      -0.848  11.240  18.434  0.00  0.00    +0.000 C 
BRANCH  24  25
ATOM     25  C   UNL     1      -2.137  10.490  18.077  0.00  0.00    +0.000 C 
ATOM     26  C   UNL     1      -2.030   9.923  16.658  0.00  0.00    +0.000 C 
ATOM     27  C   UNL     1      -3.451  10.007  16.164  0.00  0.00    +0.000 C 
ATOM     28  C   UNL     1      -3.945  11.274  16.823  0.00  0.00    +0.000 C 
ATOM     29  O   UNL     1      -3.261  11.385  18.078  0.00  0.00    +0.000 OA
ENDBRANCH  24  25
ENDBRANCH  19  24
ENDBRANCH   1  18
TORSDOF 7
ENDMDL
MODEL 7
REMARK VINA RESULT:      -8.1      3.105      8.159
REMARK  Name = 
REMARK  7 active torsions:
REMARK  status: ('A' for Active; 'I' for Inactive)
REMARK    1  A    between atoms: C_2  and  C_3
REMARK    2  A    between atoms: C_6  and  C_7
REMARK    3  A    between atoms: C_12  and  C_13
REMARK    4  A    between atoms: N_19  and  C_20
REMARK    5  A    between atoms: N_19  and  C_24
REMARK    6  A    between atoms: C_20  and  C_21
REMARK    7  A    between atoms: C_24  and  C_25
REMARK                            x       y       z     vdW  Elec       q    Type
REMARK                         _______ _______ _______ _____ _____    ______ ____
ROOT
ATOM      1  C   UNL     1       2.731   7.415  18.638  0.00  0.00    +0.000 A 
ATOM      2  C   UNL     1       2.076   7.511  19.876  0.00  0.00    +0.000 A 
ATOM      3  C   UNL     1       1.214   8.587  20.170  0.00  0.00    +0.000 A 
ATOM      4  C   UNL     1       0.879   9.536  19.200  0.00  0.00    +0.000 A 
ATOM      5  C   UNL     1       1.606   9.463  17.998  0.00  0.00    +0.000 A 
ATOM      6  C   UNL     1       2.565   8.476  17.759  0.00  0.00    +0.000 A 
ENDROOT
BRANCH   4   7
ATOM      7  C   UNL     1      -0.117  10.626  19.365  0.00  0.00    +0.000 A 
ATOM      8  N   UNL     1       0.260  11.506  20.349  0.00  0.00    +0.000 NA
ATOM      9  C   UNL     1      -0.481  12.597  20.607  0.00  0.00    +0.000 A 
ATOM     10  C   UNL     1      -1.648  12.881  19.943  0.00  0.00    +0.000 A 
ATOM     11  C   UNL     1      -2.045  12.007  18.949  0.00  0.00    +0.000 A 
ATOM     12  C   UNL     1      -1.273  10.864  18.617  0.00  0.00    +0.000 A 
BRANCH  12  13
ATOM     13  C   UNL     1      -1.785  10.023  17.482  0.00  0.00    +0.000 C 
ATOM     14  F   UNL     1      -0.918   9.133  16.937  0.00  0.00    +0.000 F 
ATOM     15  F   UNL     1      -2.886   9.306  17.844  0.00  0.00    +0.000 F 
ATOM     16  F   UNL     1      -2.190  10.792  16.426  0.00  0.00    +0.000 F 
ENDBRANCH  12  13
ENDBRANCH   4   7
BRANCH   1  18
ATOM     17  O   UNL     1       4.791   6.334  18.698  0.00  0.00    +0.000 OA
ATOM     18  C   UNL     1       3.605   6.214  18.383  0.00  0.00    +0.000 C 
ATOM     19  N   UNL     1       3.117   5.009  17.820  0.00  0.00    +0.000 N 
BRANCH  19  20
ATOM     20  C   UNL     1       4.126   4.013  17.448  0.00  0.00    +0.000 C 
BRANCH  20  21
ATOM     21  C   UNL     1       4.565   4.106  16.010  0.00  0.00    +0.000 C 
ATOM     22  C   UNL     1       5.484   5.189  15.499  0.00  0.00    +0.000 C 
ATOM     23  C   UNL     1       6.001   3.789  15.657  0.00  0.00    +0.000 C 
ENDBRANCH  20  21
ENDBRANCH  19  20
BRANCH  19  24
ATOM     24  C   UNL     1       1.695   4.657  17.723  0.00  0.00    +0.000 C 
BRANCH  24  25
ATOM     25  C   UNL     1       1.076   3.620  18.668  0.00  0.00    +0.000 C 
ATOM     26  C   UNL     1       1.093   4.154  20.104  0.00  0.00    +0.000 C 
ATOM     27  C   UNL     1       1.293   2.900  20.916  0.00  0.00    +0.000 C 
ATOM     28  C   UNL     1       2.192   2.079  20.023  0.00  0.00    +0.000 C 
ATOM     29  O   UNL     1       1.852   2.410  18.671  0.00  0.00    +0.000 OA
ENDBRANCH  24  25
ENDBRANCH  19  24
ENDBRANCH   1  18
TORSDOF 7
ENDMDL
MODEL 8
REMARK VINA RESULT:      -8.1      3.360      8.329
REMARK  Name = 
REMARK  7 active torsions:
REMARK  status: ('A' for Active; 'I' for Inactive)
REMARK    1  A    between atoms: C_2  and  C_3
REMARK    2  A    between atoms: C_6  and  C_7
REMARK    3  A    between atoms: C_12  and  C_13
REMARK    4  A    between atoms: N_19  and  C_20
REMARK    5  A    between atoms: N_19  and  C_24
REMARK    6  A    between atoms: C_20  and  C_21
REMARK    7  A    between atoms: C_24  and  C_25
REMARK                            x       y       z     vdW  Elec       q    Type
REMARK                         _______ _______ _______ _____ _____    ______ ____
ROOT
ATOM      1  C   UNL     1       3.023   7.117  18.576  0.00  0.00    +0.000 A 
ATOM      2  C   UNL     1       2.424   7.085  19.845  0.00  0.00    +0.000 A 
ATOM      3  C   UNL     1       1.541   8.100  20.268  0.00  0.00    +0.000 A 
ATOM      4  C   UNL     1       1.130   9.114  19.398  0.00  0.00    +0.000 A 
ATOM      5  C   UNL     1       1.801   9.169  18.163  0.00  0.00    +0.000 A 
ATOM      6  C   UNL     1       2.781   8.242  17.798  0.00  0.00    +0.000 A 
ENDROOT
BRANCH   4   7
ATOM      7  C   UNL     1       0.107  10.148  19.699  0.00  0.00    +0.000 A 
ATOM      8  N   UNL     1      -0.313  10.787  18.560  0.00  0.00    +0.000 NA
ATOM      9  C   UNL     1      -1.284  11.714  18.617  0.00  0.00    +0.000 A 
ATOM     10  C   UNL     1      -1.882  12.097  19.792  0.00  0.00    +0.000 A 
ATOM     11  C   UNL     1      -1.473  11.466  20.950  0.00  0.00    +0.000 A 
ATOM     12  C   UNL     1      -0.479  10.453  20.931  0.00  0.00    +0.000 A 
BRANCH  12  13
ATOM     13  C   UNL     1      -0.162   9.808  22.250  0.00  0.00    +0.000 C 
ATOM     14  F   UNL     1       1.151   9.654  22.558  0.00  0.00    +0.000 F 
ATOM     15  F   UNL     1      -0.717  10.491  23.291  0.00  0.00    +0.000 F 
ATOM     16  F   UNL     1      -0.680   8.545  22.334  0.00  0.00    +0.000 F 
ENDBRANCH  12  13
ENDBRANCH   4   7
BRANCH   1  18
ATOM     17  O   UNL     1       5.133   6.167  18.329  0.00  0.00    +0.000 OA
ATOM     18  C   UNL     1       3.924   5.976  18.180  0.00  0.00    +0.000 C 
ATOM     19  N   UNL     1       3.436   4.748  17.672  0.00  0.00    +0.000 N 
BRANCH  19  20
ATOM     20  C   UNL     1       4.441   3.820  17.144  0.00  0.00    +0.000 C 
BRANCH  20  21
ATOM     21  C   UNL     1       4.753   4.031  15.686  0.00  0.00    +0.000 C 
ATOM     22  C   UNL     1       5.604   5.172  15.184  0.00  0.00    +0.000 C 
ATOM     23  C   UNL     1       6.159   3.777  15.191  0.00  0.00    +0.000 C 
ENDBRANCH  20  21
ENDBRANCH  19  20
BRANCH  19  24
ATOM     24  C   UNL     1       2.038   4.308  17.768  0.00  0.00    +0.000 C 
BRANCH  24  25
ATOM     25  C   UNL     1       1.610   3.280  18.822  0.00  0.00    +0.000 C 
ATOM     26  C   UNL     1       0.914   3.992  19.987  0.00  0.00    +0.000 C 
ATOM     27  C   UNL     1       1.313   3.147  21.170  0.00  0.00    +0.000 C 
ATOM     28  C   UNL     1       2.715   2.721  20.803  0.00  0.00    +0.000 C 
ATOM     29  O   UNL     1       2.757   2.613  19.375  0.00  0.00    +0.000 OA
ENDBRANCH  24  25
ENDBRANCH  19  24
ENDBRANCH   1  18
TORSDOF 7
ENDMDL
MODEL 9
REMARK VINA RESULT:      -8.0      1.854      2.408
REMARK  Name = 
REMARK  7 active torsions:
REMARK  status: ('A' for Active; 'I' for Inactive)
REMARK    1  A    between atoms: C_2  and  C_3
REMARK    2  A    between atoms: C_6  and  C_7
REMARK    3  A    between atoms: C_12  and  C_13
REMARK    4  A    between atoms: N_19  and  C_20
REMARK    5  A    between atoms: N_19  and  C_24
REMARK    6  A    between atoms: C_20  and  C_21
REMARK    7  A    between atoms: C_24  and  C_25
REMARK                            x       y       z     vdW  Elec       q    Type
REMARK                         _______ _______ _______ _____ _____    ______ ____
ROOT
ATOM      1  C   UNL     1       1.343   9.551  19.476  0.00  0.00    +0.000 A 
ATOM      2  C   UNL     1       1.730   9.427  18.132  0.00  0.00    +0.000 A 
ATOM      3  C   UNL     1       2.303   8.238  17.637  0.00  0.00    +0.000 A 
ATOM      4  C   UNL     1       2.396   7.091  18.432  0.00  0.00    +0.000 A 
ATOM      5  C   UNL     1       2.075   7.262  19.791  0.00  0.00    +0.000 A 
ATOM      6  C   UNL     1       1.640   8.483  20.312  0.00  0.00    +0.000 A 
ENDROOT
BRANCH   4   7
ATOM      7  C   UNL     1       2.857   5.756  17.971  0.00  0.00    +0.000 A 
ATOM      8  N   UNL     1       1.945   4.777  18.276  0.00  0.00    +0.000 NA
ATOM      9  C   UNL     1       2.152   3.508  17.885  0.00  0.00    +0.000 A 
ATOM     10  C   UNL     1       3.274   3.111  17.201  0.00  0.00    +0.000 A 
ATOM     11  C   UNL     1       4.204   4.082  16.885  0.00  0.00    +0.000 A 
ATOM     12  C   UNL     1       4.008   5.441  17.243  0.00  0.00    +0.000 A 
BRANCH  12  13
ATOM     13  C   UNL     1       5.067   6.407  16.794  0.00  0.00    +0.000 C 
ATOM     14  F   UNL     1       5.452   7.355  17.685  0.00  0.00    +0.000 F 
ATOM     15  F   UNL     1       6.206   5.762  16.411  0.00  0.00    +0.000 F 
ATOM     16  F   UNL     1       4.671   7.117  15.694  0.00  0.00    +0.000 F 
ENDBRANCH  12  13
ENDBRANCH   4   7
BRANCH   1  18
ATOM     17  O   UNL     1       1.445  11.647  20.479  0.00  0.00    +0.000 OA
ATOM     18  C   UNL     1       0.701  10.839  19.920  0.00  0.00    +0.000 C 
ATOM     19  N   UNL     1      -0.670  11.129  19.715  0.00  0.00    +0.000 N 
BRANCH  19  20
ATOM     20  C   UNL     1      -1.185  12.329  20.382  0.00  0.00    +0.000 C 
BRANCH  20  21
ATOM     21  C   UNL     1      -1.907  12.041  21.672  0.00  0.00    +0.000 C 
ATOM     22  C   UNL     1      -1.221  11.463  22.887  0.00  0.00    +0.000 C 
ATOM     23  C   UNL     1      -1.629  12.907  22.880  0.00  0.00    +0.000 C 
ENDBRANCH  20  21
ENDBRANCH  19  20
BRANCH  19  24
ATOM     24  C   UNL     1      -1.542  10.397  18.788  0.00  0.00    +0.000 C 
BRANCH  24  25
ATOM     25  C   UNL     1      -2.134  11.090  17.555  0.00  0.00    +0.000 C 
ATOM     26  C   UNL     1      -3.627  11.354  17.776  0.00  0.00    +0.000 C 
ATOM     27  C   UNL     1      -4.194  11.206  16.387  0.00  0.00    +0.000 C 
ATOM     28  C   UNL     1      -3.331  10.112  15.804  0.00  0.00    +0.000 C 
ATOM     29  O   UNL     1      -2.034  10.241  16.399  0.00  0.00    +0.000 OA
ENDBRANCH  24  25
ENDBRANCH  19  24
ENDBRANCH   1  18
TORSDOF 7
ENDMDL
