MODEL 1
REMARK VINA RESULT:      -7.9      0.000      0.000
REMARK  Name = 
REMARK  5 active torsions:
REMARK  status: ('A' for Active; 'I' for Inactive)
REMARK    1  A    between atoms: C_1  and  C_2
REMARK    2  A    between atoms: C_4  and  C_5
REMARK    3  A    between atoms: N_6  and  C_7
REMARK    4  A    between atoms: C_10  and  C_11
REMARK    5  A    between atoms: N_13  and  C_14
REMARK                            x       y       z     vdW  Elec       q    Type
REMARK                         _______ _______ _______ _____ _____    ______ ____
ROOT
ATOM      1  C   UNL     1       0.826   9.592  19.688  0.00  0.00    +0.000 A 
ATOM      2  C   UNL     1       1.346   9.647  18.394  0.00  0.00    +0.000 A 
ATOM      3  C   UNL     1       2.165   8.627  17.927  0.00  0.00    +0.000 A 
ATOM      4  C   UNL     1       2.488   7.543  18.752  0.00  0.00    +0.000 A 
ATOM      5  C   UNL     1       2.021   7.502  20.069  0.00  0.00    +0.000 A 
ATOM      6  C   UNL     1       1.204   8.544  20.544  0.00  0.00    +0.000 A 
ENDROOT
BRANCH   1  12
ATOM      7  C   UNL     1      -0.874  13.115  22.521  0.00  0.00    +0.000 C 
ATOM      8  C   UNL     1      -0.818  12.168  21.384  0.00  0.00    +0.000 A 
ATOM      9  C   UNL     1      -1.685  12.111  20.279  0.00  0.00    +0.000 A 
ATOM     10  C   UNL     1      -1.228  11.065  19.507  0.00  0.00    +0.000 A 
ATOM     11  C   UNL     1      -1.868  10.457  18.312  0.00  0.00    +0.000 C 
ATOM     12  N   UNL     1      -0.078  10.597  20.135  0.00  0.00    +0.000 N 
ATOM     13  N   UNL     1       0.110  11.207  21.335  0.00  0.00    +0.000 NA
ENDBRANCH   1  12
BRANCH   4  14
ATOM     14  C   UNL     1       3.424   6.553  18.184  0.00  0.00    +0.000 C 
ATOM     15  O   UNL     1       3.519   5.482  18.776  0.00  0.00    +0.000 OA
ATOM     16  N   UNL     1       4.183   6.942  17.096  0.00  0.00    +0.000 N 
ATOM     17  H   UNL     1       4.177   7.921  16.824  0.00  0.00    +0.000 HD
BRANCH  16  18
ATOM     18  C   UNL     1       5.164   6.116  16.471  0.00  0.00    +0.000 A 
ATOM     19  C   UNL     1       4.830   4.992  15.713  0.00  0.00    +0.000 A 
ATOM     20  C   UNL     1       5.822   4.192  15.151  0.00  0.00    +0.000 A 
ATOM     21  C   UNL     1       7.143   4.547  15.347  0.00  0.00    +0.000 A 
ATOM     22  N   UNL     1       7.527   5.634  16.049  0.00  0.00    +0.000 NA
ATOM     23  C   UNL     1       6.533   6.385  16.587  0.00  0.00    +0.000 A 
ATOM     24 CL   UNL     1       7.118   7.725  17.500  0.00  0.00    +0.000 Cl
ENDBRANCH  16  18
ENDBRANCH   4  14
TORSDOF 3
ENDMDL
MODEL 2
REMARK VINA RESULT:      -7.8      2.469      8.782
REMARK  Name = 
REMARK  5 active torsions:
REMARK  status: ('A' for Active; 'I' for Inactive)
REMARK    1  A    between atoms: C_1  and  C_2
REMARK    2  A    between atoms: C_4  and  C_5
REMARK    3  A    between atoms: N_6  and  C_7
REMARK    4  A    between atoms: C_10  and  C_11
REMARK    5  A    between atoms: N_13  and  C_14
REMARK                            x       y       z     vdW  Elec       q    Type
REMARK                         _______ _______ _______ _____ _____    ______ ____
ROOT
ATOM      1  C   UNL     1       4.479   5.325  17.165  0.00  0.00    +0.000 A 
ATOM      2  C   UNL     1       4.159   6.683  17.184  0.00  0.00    +0.000 A 
ATOM      3  C   UNL     1       3.342   7.194  18.185  0.00  0.00    +0.000 A 
ATOM      4  C   UNL     1       2.820   6.353  19.173  0.00  0.00    +0.000 A 
ATOM      5  C   UNL     1       3.084   4.980  19.135  0.00  0.00    +0.000 A 
ATOM      6  C   UNL     1       3.900   4.463  18.113  0.00  0.00    +0.000 A 
ENDROOT
BRANCH   1  12
ATOM      7  C   UNL     1       5.920   3.686  12.857  0.00  0.00    +0.000 C 
ATOM      8  C   UNL     1       6.018   4.109  14.273  0.00  0.00    +0.000 A 
ATOM      9  C   UNL     1       7.186   4.243  15.044  0.00  0.00    +0.000 A 
ATOM     10  C   UNL     1       6.760   4.654  16.288  0.00  0.00    +0.000 A 
ATOM     11  C   UNL     1       7.556   4.789  17.535  0.00  0.00    +0.000 C 
ATOM     12  N   UNL     1       5.381   4.819  16.187  0.00  0.00    +0.000 N 
ATOM     13  N   UNL     1       4.920   4.386  14.985  0.00  0.00    +0.000 NA
ENDBRANCH   1  12
BRANCH   4  14
ATOM     14  C   UNL     1       1.905   6.984  20.144  0.00  0.00    +0.000 C 
ATOM     15  O   UNL     1       1.235   6.227  20.841  0.00  0.00    +0.000 OA
ATOM     16  N   UNL     1       1.805   8.362  20.126  0.00  0.00    +0.000 N 
ATOM     17  H   UNL     1       2.243   8.871  19.364  0.00  0.00    +0.000 HD
BRANCH  16  18
ATOM     18  C   UNL     1       0.928   9.110  20.966  0.00  0.00    +0.000 A 
ATOM     19  C   UNL     1       0.951   9.009  22.359  0.00  0.00    +0.000 A 
ATOM     20  C   UNL     1       0.052   9.730  23.141  0.00  0.00    +0.000 A 
ATOM     21  C   UNL     1      -0.852  10.561  22.505  0.00  0.00    +0.000 A 
ATOM     22  N   UNL     1      -0.907  10.718  21.166  0.00  0.00    +0.000 NA
ATOM     23  C   UNL     1      -0.020   9.995  20.438  0.00  0.00    +0.000 A 
ATOM     24 CL   UNL     1      -0.193  10.226  18.738  0.00  0.00    +0.000 Cl
ENDBRANCH  16  18
ENDBRANCH   4  14
TORSDOF 3
ENDMDL
MODEL 3
REMARK VINA RESULT:      -7.8      0.914      1.560
REMARK  Name = 
REMARK  5 active torsions:
REMARK  status: ('A' for Active; 'I' for Inactive)
REMARK    1  A    between atoms: C_1  and  C_2
REMARK    2  A    between atoms: C_4  and  C_5
REMARK    3  A    between atoms: N_6  and  C_7
REMARK    4  A    between atoms: C_10  and  C_11
REMARK    5  A    between atoms: N_13  and  C_14
REMARK                            x       y       z     vdW  Elec       q    Type
REMARK                         _______ _______ _______ _____ _____    ______ ____
ROOT
ATOM      1  C   UNL     1       0.801   9.906  19.330  0.00  0.00    +0.000 A 
ATOM      2  C   UNL     1       1.389   9.800  18.068  0.00  0.00    +0.000 A 
ATOM      3  C   UNL     1       2.189   8.707  17.761  0.00  0.00    +0.000 A 
ATOM      4  C   UNL     1       2.428   7.711  18.714  0.00  0.00    +0.000 A 
ATOM      5  C   UNL     1       1.893   7.832  20.001  0.00  0.00    +0.000 A 
ATOM      6  C   UNL     1       1.094   8.946  20.314  0.00  0.00    +0.000 A 
ENDROOT
BRANCH   1  12
ATOM      7  C   UNL     1      -3.409  12.255  19.616  0.00  0.00    +0.000 C 
ATOM      8  C   UNL     1      -1.954  12.013  19.755  0.00  0.00    +0.000 A 
ATOM      9  C   UNL     1      -1.009  12.840  20.386  0.00  0.00    +0.000 A 
ATOM     10  C   UNL     1       0.198  12.190  20.248  0.00  0.00    +0.000 A 
ATOM     11  C   UNL     1       1.557  12.691  20.582  0.00  0.00    +0.000 C 
ATOM     12  N   UNL     1      -0.085  10.983  19.615  0.00  0.00    +0.000 N 
ATOM     13  N   UNL     1      -1.385  10.925  19.225  0.00  0.00    +0.000 NA
ENDBRANCH   1  12
BRANCH   4  14
ATOM     14  C   UNL     1       3.351   6.634  18.309  0.00  0.00    +0.000 C 
ATOM     15  O   UNL     1       3.395   5.644  19.035  0.00  0.00    +0.000 OA
ATOM     16  N   UNL     1       4.156   6.863  17.210  0.00  0.00    +0.000 N 
ATOM     17  H   UNL     1       4.189   7.799  16.817  0.00  0.00    +0.000 HD
BRANCH  16  18
ATOM     18  C   UNL     1       5.133   5.940  16.729  0.00  0.00    +0.000 A 
ATOM     19  C   UNL     1       4.792   4.708  16.165  0.00  0.00    +0.000 A 
ATOM     20  C   UNL     1       5.779   3.821  15.742  0.00  0.00    +0.000 A 
ATOM     21  C   UNL     1       7.102   4.196  15.879  0.00  0.00    +0.000 A 
ATOM     22  N   UNL     1       7.493   5.381  16.393  0.00  0.00    +0.000 NA
ATOM     23  C   UNL     1       6.504   6.216  16.800  0.00  0.00    +0.000 A 
ATOM     24 CL   UNL     1       7.097   7.684  17.483  0.00  0.00    +0.000 Cl
ENDBRANCH  16  18
ENDBRANCH   4  14
TORSDOF 3
ENDMDL
MODEL 4
REMARK VINA RESULT:      -7.7      0.287      1.050
REMARK  Name = 
REMARK  5 active torsions:
REMARK  status: ('A' for Active; 'I' for Inactive)
REMARK    1  A    between atoms: C_1  and  C_2
REMARK    2  A    between atoms: C_4  and  C_5
REMARK    3  A    between atoms: N_6  and  C_7
REMARK    4  A    between atoms: C_10  and  C_11
REMARK    5  A    between atoms: N_13  and  C_14
REMARK                            x       y       z     vdW  Elec       q    Type
REMARK                         _______ _______ _______ _____ _____    ______ ____
ROOT
ATOM      1  C   UNL     1       0.781   9.695  19.513  0.00  0.00    +0.000 A 
ATOM      2  C   UNL     1       1.140   8.622  20.331  0.00  0.00    +0.000 A 
ATOM      3  C   UNL     1       2.051   7.676  19.880  0.00  0.00    +0.000 A 
ATOM      4  C   UNL     1       2.605   7.778  18.599  0.00  0.00    +0.000 A 
ATOM      5  C   UNL     1       2.212   8.815  17.747  0.00  0.00    +0.000 A 
ATOM      6  C   UNL     1       1.279   9.765  18.201  0.00  0.00    +0.000 A 
ENDROOT
BRANCH   1  12
ATOM      7  C   UNL     1      -0.680  13.309  22.366  0.00  0.00    +0.000 C 
ATOM      8  C   UNL     1      -0.723  12.319  21.264  0.00  0.00    +0.000 A 
ATOM      9  C   UNL     1      -1.693  12.212  20.253  0.00  0.00    +0.000 A 
ATOM     10  C   UNL     1      -1.300  11.142  19.479  0.00  0.00    +0.000 A 
ATOM     11  C   UNL     1      -2.045  10.482  18.375  0.00  0.00    +0.000 C 
ATOM     12  N   UNL     1      -0.088  10.708  20.009  0.00  0.00    +0.000 N 
ATOM     13  N   UNL     1       0.208  11.365  21.161  0.00  0.00    +0.000 NA
ENDBRANCH   1  12
BRANCH   4  14
ATOM     14  C   UNL     1       3.503   6.680  18.192  0.00  0.00    +0.000 C 
ATOM     15  O   UNL     1       3.570   5.714  18.949  0.00  0.00    +0.000 OA
ATOM     16  N   UNL     1       4.262   6.864  17.053  0.00  0.00    +0.000 N 
ATOM     17  H   UNL     1       4.285   7.786  16.627  0.00  0.00    +0.000 HD
BRANCH  16  18
ATOM     18  C   UNL     1       5.210   5.917  16.563  0.00  0.00    +0.000 A 
ATOM     19  C   UNL     1       4.833   4.751  15.892  0.00  0.00    +0.000 A 
ATOM     20  C   UNL     1       5.791   3.835  15.464  0.00  0.00    +0.000 A 
ATOM     21  C   UNL     1       7.123   4.116  15.703  0.00  0.00    +0.000 A 
ATOM     22  N   UNL     1       7.550   5.236  16.323  0.00  0.00    +0.000 NA
ATOM     23  C   UNL     1       6.588   6.101  16.733  0.00  0.00    +0.000 A 
ATOM     24 CL   UNL     1       7.223   7.479  17.553  0.00  0.00    +0.000 Cl
ENDBRANCH  16  18
ENDBRANCH   4  14
TORSDOF 3
ENDMDL
MODEL 5
REMARK VINA RESULT:      -7.7      1.201      1.648
REMARK  Name = 
REMARK  5 active torsions:
REMARK  status: ('A' for Active; 'I' for Inactive)
REMARK    1  A    between atoms: C_1  and  C_2
REMARK    2  A    between atoms: C_4  and  C_5
REMARK    3  A    between atoms: N_6  and  C_7
REMARK    4  A    between atoms: C_10  and  C_11
REMARK    5  A    between atoms: N_13  and  C_14
REMARK                            x       y       z     vdW  Elec       q    Type
REMARK                         _______ _______ _______ _____ _____    ______ ____
ROOT
ATOM      1  C   UNL     1       0.927   9.401  20.038  0.00  0.00    +0.000 A 
ATOM      2  C   UNL     1       1.275   9.570  18.696  0.00  0.00    +0.000 A 
ATOM      3  C   UNL     1       1.993   8.583  18.032  0.00  0.00    +0.000 A 
ATOM      4  C   UNL     1       2.387   7.419  18.702  0.00  0.00    +0.000 A 
ATOM      5  C   UNL     1       2.095   7.261  20.060  0.00  0.00    +0.000 A 
ATOM      6  C   UNL     1       1.380   8.268  20.735  0.00  0.00    +0.000 A 
ENDROOT
BRANCH   1  12
ATOM      7  C   UNL     1      -1.850  13.329  20.462  0.00  0.00    +0.000 C 
ATOM      8  C   UNL     1      -1.121  12.107  20.872  0.00  0.00    +0.000 A 
ATOM      9  C   UNL     1      -1.153  11.475  22.127  0.00  0.00    +0.000 A 
ATOM     10  C   UNL     1      -0.312  10.390  22.015  0.00  0.00    +0.000 A 
ATOM     11  C   UNL     1       0.154   9.472  23.087  0.00  0.00    +0.000 C 
ATOM     12  N   UNL     1       0.122  10.375  20.693  0.00  0.00    +0.000 N 
ATOM     13  N   UNL     1      -0.293  11.484  20.026  0.00  0.00    +0.000 NA
ENDBRANCH   1  12
BRANCH   4  14
ATOM     14  C   UNL     1       3.208   6.471  17.925  0.00  0.00    +0.000 C 
ATOM     15  O   UNL     1       2.761   5.334  17.795  0.00  0.00    +0.000 OA
ATOM     16  N   UNL     1       4.446   6.904  17.491  0.00  0.00    +0.000 N 
ATOM     17  H   UNL     1       4.801   7.790  17.840  0.00  0.00    +0.000 HD
BRANCH  16  18
ATOM     18  C   UNL     1       5.372   6.088  16.775  0.00  0.00    +0.000 A 
ATOM     19  C   UNL     1       5.270   5.861  15.400  0.00  0.00    +0.000 A 
ATOM     20  C   UNL     1       6.174   5.027  14.747  0.00  0.00    +0.000 A 
ATOM     21  C   UNL     1       7.184   4.444  15.489  0.00  0.00    +0.000 A 
ATOM     22  N   UNL     1       7.349   4.645  16.813  0.00  0.00    +0.000 NA
ATOM     23  C   UNL     1       6.445   5.457  17.416  0.00  0.00    +0.000 A 
ATOM     24 CL   UNL     1       6.708   5.620  19.112  0.00  0.00    +0.000 Cl
ENDBRANCH  16  18
ENDBRANCH   4  14
TORSDOF 3
ENDMDL
MODEL 6
REMARK VINA RESULT:      -7.7      2.475      8.847
REMARK  Name = 
REMARK  5 active torsions:
REMARK  status: ('A' for Active; 'I' for Inactive)
REMARK    1  A    between atoms: C_1  and  C_2
REMARK    2  A    between atoms: C_4  and  C_5
REMARK    3  A    between atoms: N_6  and  C_7
REMARK    4  A    between atoms: C_10  and  C_11
REMARK    5  A    between atoms: N_13  and  C_14
REMARK                            x       y       z     vdW  Elec       q    Type
REMARK                         _______ _______ _______ _____ _____    ______ ____
ROOT
ATOM      1  C   UNL     1       4.559   5.595  17.227  0.00  0.00    +0.000 A 
ATOM      2  C   UNL     1       4.049   4.852  18.294  0.00  0.00    +0.000 A 
ATOM      3  C   UNL     1       3.162   5.436  19.190  0.00  0.00    +0.000 A 
ATOM      4  C   UNL     1       2.783   6.775  19.043  0.00  0.00    +0.000 A 
ATOM      5  C   UNL     1       3.328   7.548  18.013  0.00  0.00    +0.000 A 
ATOM      6  C   UNL     1       4.237   6.959  17.115  0.00  0.00    +0.000 A 
ENDROOT
BRANCH   1  12
ATOM      7  C   UNL     1       5.804   3.675  12.974  0.00  0.00    +0.000 C 
ATOM      8  C   UNL     1       5.953   4.138  14.374  0.00  0.00    +0.000 A 
ATOM      9  C   UNL     1       7.134   4.189  15.133  0.00  0.00    +0.000 A 
ATOM     10  C   UNL     1       6.759   4.682  16.364  0.00  0.00    +0.000 A 
ATOM     11  C   UNL     1       7.575   4.785  17.601  0.00  0.00    +0.000 C 
ATOM     12  N   UNL     1       5.402   4.972  16.264  0.00  0.00    +0.000 N 
ATOM     13  N   UNL     1       4.892   4.542  15.080  0.00  0.00    +0.000 NA
ENDBRANCH   1  12
BRANCH   4  14
ATOM     14  C   UNL     1       1.896   7.315  20.091  0.00  0.00    +0.000 C 
ATOM     15  O   UNL     1       1.357   6.498  20.832  0.00  0.00    +0.000 OA
ATOM     16  N   UNL     1       1.668   8.678  20.095  0.00  0.00    +0.000 N 
ATOM     17  H   UNL     1       1.994   9.228  19.305  0.00  0.00    +0.000 HD
BRANCH  16  18
ATOM     18  C   UNL     1       0.797   9.340  21.011  0.00  0.00    +0.000 A 
ATOM     19  C   UNL     1       0.782   9.052  22.378  0.00  0.00    +0.000 A 
ATOM     20  C   UNL     1      -0.111   9.696  23.231  0.00  0.00    +0.000 A 
ATOM     21  C   UNL     1      -0.969  10.638  22.695  0.00  0.00    +0.000 A 
ATOM     22  N   UNL     1      -0.985  10.975  21.389  0.00  0.00    +0.000 NA
ATOM     23  C   UNL     1      -0.107  10.323  20.588  0.00  0.00    +0.000 A 
ATOM     24 CL   UNL     1      -0.228  10.787  18.931  0.00  0.00    +0.000 Cl
ENDBRANCH  16  18
ENDBRANCH   4  14
TORSDOF 3
ENDMDL
MODEL 7
REMARK VINA RESULT:      -7.6      1.284      1.985
REMARK  Name = 
REMARK  5 active torsions:
REMARK  status: ('A' for Active; 'I' for Inactive)
REMARK    1  A    between atoms: C_1  and  C_2
REMARK    2  A    between atoms: C_4  and  C_5
REMARK    3  A    between atoms: N_6  and  C_7
REMARK    4  A    between atoms: C_10  and  C_11
REMARK    5  A    between atoms: N_13  and  C_14
REMARK                            x       y       z     vdW  Elec       q    Type
REMARK                         _______ _______ _______ _____ _____    ______ ____
ROOT
ATOM      1  C   UNL     1       0.748   9.545  20.119  0.00  0.00    +0.000 A 
ATOM      2  C   UNL     1       1.257   8.403  20.741  0.00  0.00    +0.000 A 
ATOM      3  C   UNL     1       2.049   7.514  20.026  0.00  0.00    +0.000 A 
ATOM      4  C   UNL     1       2.332   7.743  18.675  0.00  0.00    +0.000 A 
ATOM      5  C   UNL     1       1.783   8.852  18.024  0.00  0.00    +0.000 A 
ATOM      6  C   UNL     1       0.970   9.745  18.746  0.00  0.00    +0.000 A 
ENDROOT
BRANCH   1  12
ATOM      7  C   UNL     1      -1.875  13.517  20.936  0.00  0.00    +0.000 C 
ATOM      8  C   UNL     1      -1.169  12.248  21.229  0.00  0.00    +0.000 A 
ATOM      9  C   UNL     1      -1.164  11.534  22.439  0.00  0.00    +0.000 A 
ATOM     10  C   UNL     1      -0.366  10.434  22.215  0.00  0.00    +0.000 A 
ATOM     11  C   UNL     1       0.118   9.432  23.200  0.00  0.00    +0.000 C 
ATOM     12  N   UNL     1       0.006  10.496  20.875  0.00  0.00    +0.000 N 
ATOM     13  N   UNL     1      -0.402  11.660  20.305  0.00  0.00    +0.000 NA
ENDBRANCH   1  12
BRANCH   4  14
ATOM     14  C   UNL     1       3.119   6.699  17.991  0.00  0.00    +0.000 C 
ATOM     15  O   UNL     1       2.652   5.564  17.999  0.00  0.00    +0.000 OA
ATOM     16  N   UNL     1       4.354   7.059  17.485  0.00  0.00    +0.000 N 
ATOM     17  H   UNL     1       4.731   7.971  17.725  0.00  0.00    +0.000 HD
BRANCH  16  18
ATOM     18  C   UNL     1       5.249   6.151  16.845  0.00  0.00    +0.000 A 
ATOM     19  C   UNL     1       5.288   5.981  15.459  0.00  0.00    +0.000 A 
ATOM     20  C   UNL     1       6.152   5.057  14.878  0.00  0.00    +0.000 A 
ATOM     21  C   UNL     1       6.983   4.324  15.705  0.00  0.00    +0.000 A 
ATOM     22  N   UNL     1       7.009   4.460  17.047  0.00  0.00    +0.000 NA
ATOM     23  C   UNL     1       6.148   5.365  17.577  0.00  0.00    +0.000 A 
ATOM     24 CL   UNL     1       6.220   5.439  19.299  0.00  0.00    +0.000 Cl
ENDBRANCH  16  18
ENDBRANCH   4  14
TORSDOF 3
ENDMDL
MODEL 8
REMARK VINA RESULT:      -7.6      2.970      8.767
REMARK  Name = 
REMARK  5 active torsions:
REMARK  status: ('A' for Active; 'I' for Inactive)
REMARK    1  A    between atoms: C_1  and  C_2
REMARK    2  A    between atoms: C_4  and  C_5
REMARK    3  A    between atoms: N_6  and  C_7
REMARK    4  A    between atoms: C_10  and  C_11
REMARK    5  A    between atoms: N_13  and  C_14
REMARK                            x       y       z     vdW  Elec       q    Type
REMARK                         _______ _______ _______ _____ _____    ______ ____
ROOT
ATOM      1  C   UNL     1       2.847   7.098  18.428  0.00  0.00    +0.000 A 
ATOM      2  C   UNL     1       2.341   7.117  19.729  0.00  0.00    +0.000 A 
ATOM      3  C   UNL     1       1.510   8.151  20.140  0.00  0.00    +0.000 A 
ATOM      4  C   UNL     1       1.185   9.192  19.263  0.00  0.00    +0.000 A 
ATOM      5  C   UNL     1       1.729   9.217  17.975  0.00  0.00    +0.000 A 
ATOM      6  C   UNL     1       2.581   8.175  17.565  0.00  0.00    +0.000 A 
ENDROOT
BRANCH   1  12
ATOM      7  C   UNL     1       6.845   4.675  17.216  0.00  0.00    +0.000 C 
ATOM      8  C   UNL     1       5.405   4.921  17.465  0.00  0.00    +0.000 A 
ATOM      9  C   UNL     1       4.361   3.981  17.435  0.00  0.00    +0.000 A 
ATOM     10  C   UNL     1       3.218   4.692  17.723  0.00  0.00    +0.000 A 
ATOM     11  C   UNL     1       1.807   4.230  17.662  0.00  0.00    +0.000 C 
ATOM     12  N   UNL     1       3.630   5.995  17.985  0.00  0.00    +0.000 N 
ATOM     13  N   UNL     1       4.955   6.153  17.725  0.00  0.00    +0.000 NA
ENDBRANCH   1  12
BRANCH   4  14
ATOM     14  C   UNL     1       0.357  10.277  19.823  0.00  0.00    +0.000 C 
ATOM     15  O   UNL     1      -0.705  10.511  19.252  0.00  0.00    +0.000 OA
ATOM     16  N   UNL     1       0.881  11.001  20.877  0.00  0.00    +0.000 N 
ATOM     17  H   UNL     1       1.855  10.860  21.127  0.00  0.00    +0.000 HD
BRANCH  16  18
ATOM     18  C   UNL     1       0.223  12.109  21.489  0.00  0.00    +0.000 A 
ATOM     19  C   UNL     1       0.445  13.430  21.092  0.00  0.00    +0.000 A 
ATOM     20  C   UNL     1      -0.191  14.485  21.742  0.00  0.00    +0.000 A 
ATOM     21  C   UNL     1      -1.058  14.192  22.778  0.00  0.00    +0.000 A 
ATOM     22  N   UNL     1      -1.331  12.937  23.191  0.00  0.00    +0.000 NA
ATOM     23  C   UNL     1      -0.688  11.936  22.539  0.00  0.00    +0.000 A 
ATOM     24 CL   UNL     1      -1.064  10.372  23.161  0.00  0.00    +0.000 Cl
ENDBRANCH  16  18
ENDBRANCH   4  14
TORSDOF 3
ENDMDL
MODEL 9
REMARK VINA RESULT:      -7.6      2.994      8.740
REMARK  Name = 
REMARK  5 active torsions:
REMARK  status: ('A' for Active; 'I' for Inactive)
REMARK    1  A    between atoms: C_1  and  C_2
REMARK    2  A    between atoms: C_4  and  C_5
REMARK    3  A    between atoms: N_6  and  C_7
REMARK    4  A    between atoms: C_10  and  C_11
REMARK    5  A    between atoms: N_13  and  C_14
REMARK                            x       y       z     vdW  Elec       q    Type
REMARK                         _______ _______ _______ _____ _____    ______ ____
ROOT
ATOM      1  C   UNL     1       2.764   6.977  18.573  0.00  0.00    +0.000 A 
ATOM      2  C   UNL     1       2.389   8.052  17.764  0.00  0.00    +0.000 A 
ATOM      3  C   UNL     1       1.640   9.095  18.293  0.00  0.00    +0.000 A 
ATOM      4  C   UNL     1       1.242   9.074  19.634  0.00  0.00    +0.000 A 
ATOM      5  C   UNL     1       1.561   7.979  20.442  0.00  0.00    +0.000 A 
ATOM      6  C   UNL     1       2.308   6.916  19.901  0.00  0.00    +0.000 A 
ENDROOT
BRANCH   1  12
ATOM      7  C   UNL     1       6.870   4.866  17.156  0.00  0.00    +0.000 C 
ATOM      8  C   UNL     1       5.424   5.014  17.439  0.00  0.00    +0.000 A 
ATOM      9  C   UNL     1       4.434   4.019  17.365  0.00  0.00    +0.000 A 
ATOM     10  C   UNL     1       3.257   4.645  17.714  0.00  0.00    +0.000 A 
ATOM     11  C   UNL     1       1.874   4.107  17.643  0.00  0.00    +0.000 C 
ATOM     12  N   UNL     1       3.600   5.951  18.050  0.00  0.00    +0.000 N 
ATOM     13  N   UNL     1       4.909   6.200  17.783  0.00  0.00    +0.000 NA
ENDBRANCH   1  12
BRANCH   4  14
ATOM     14  C   UNL     1       0.387  10.194  20.074  0.00  0.00    +0.000 C 
ATOM     15  O   UNL     1      -0.685  10.330  19.491  0.00  0.00    +0.000 OA
ATOM     16  N   UNL     1       0.899  11.051  21.030  0.00  0.00    +0.000 N 
ATOM     17  H   UNL     1       1.879  10.967  21.284  0.00  0.00    +0.000 HD
BRANCH  16  18
ATOM     18  C   UNL     1       0.214  12.204  21.517  0.00  0.00    +0.000 A 
ATOM     19  C   UNL     1       0.472  13.491  21.038  0.00  0.00    +0.000 A 
ATOM     20  C   UNL     1      -0.193  14.594  21.568  0.00  0.00    +0.000 A 
ATOM     21  C   UNL     1      -1.126  14.382  22.566  0.00  0.00    +0.000 A 
ATOM     22  N   UNL     1      -1.435  13.163  23.052  0.00  0.00    +0.000 NA
ATOM     23  C   UNL     1      -0.762  12.113  22.517  0.00  0.00    +0.000 A 
ATOM     24 CL   UNL     1      -1.191  10.602  23.228  0.00  0.00    +0.000 Cl
ENDBRANCH  16  18
ENDBRANCH   4  14
TORSDOF 3
ENDMDL
