MODEL 1
REMARK VINA RESULT:      -5.8      0.000      0.000
REMARK  Name = 
REMARK  11 active torsions:
REMARK  status: ('A' for Active; 'I' for Inactive)
REMARK    1  A    between atoms: C_1  and  N_2
REMARK    2  A    between atoms: N_2  and  C_3
REMARK    3  A    between atoms: N_2  and  C_4
REMARK    4  A    between atoms: C_4  and  C_5
REMARK    5  A    between atoms: C_5  and  C_6
REMARK    6  A    between atoms: C_6  and  O_7
REMARK    7  A    between atoms: O_7  and  C_8
REMARK    8  A    between atoms: C_13  and  C_14
REMARK    9  A    between atoms: C_16  and  C_17
REMARK   10  A    between atoms: C_23  and  N_24
REMARK   11  A    between atoms: N_24  and  C_25
REMARK                            x       y       z     vdW  Elec       q    Type
REMARK                         _______ _______ _______ _____ _____    ______ ____
ROOT
ATOM      1  C   UNL     1      -6.304  11.915  20.569  0.00  0.00    +0.000 A 
ATOM      2  C   UNL     1      -7.313  11.534  19.749  0.00  0.00    +0.000 A 
ATOM      3  C   UNL     1      -7.090  11.265  18.351  0.00  0.00    +0.000 A 
ATOM      4  C   UNL     1      -5.836  11.334  17.851  0.00  0.00    +0.000 A 
ATOM      5  C   UNL     1      -4.746  11.709  18.685  0.00  0.00    +0.000 A 
ATOM      6  C   UNL     1      -3.402  11.760  18.439  0.00  0.00    +0.000 A 
ATOM      7  C   UNL     1      -2.737  12.371  19.573  0.00  0.00    +0.000 A 
ATOM      8  C   UNL     1      -3.730  12.522  20.597  0.00  0.00    +0.000 A 
ATOM      9  N   UNL     1      -4.974  12.053  20.016  0.00  0.00    +0.000 N 
ENDROOT
BRANCH   7  10
ATOM     10  C   UNL     1      -1.295  12.759  19.530  0.00  0.00    +0.000 A 
ATOM     11  C   UNL     1      -0.937  14.136  19.477  0.00  0.00    +0.000 A 
ATOM     12  C   UNL     1       0.374  14.600  19.610  0.00  0.00    +0.000 A 
ATOM     13  C   UNL     1       1.389  13.686  19.811  0.00  0.00    +0.000 A 
ATOM     14  C   UNL     1       1.096  12.326  19.735  0.00  0.00    +0.000 A 
ATOM     15  C   UNL     1      -0.230  11.862  19.560  0.00  0.00    +0.000 A 
ENDBRANCH   7  10
BRANCH   6  16
ATOM     16  C   UNL     1      -2.896  11.299  17.181  0.00  0.00    +0.000 C 
ATOM     17  N   UNL     1      -2.502  10.859  16.177  0.00  0.00    +0.000 NA
ENDBRANCH   6  16
BRANCH   8  18
ATOM     18  N   UNL     1      -3.797  12.924  21.936  0.00  0.00    +0.000 N 
ATOM     19  H   UNL     1      -3.710  13.941  22.039  0.00  0.00    +0.000 HD
BRANCH  18  20
ATOM     20  C   UNL     1      -3.347  12.298  23.211  0.00  0.00    +0.000 C 
ATOM     21  C   UNL     1      -1.919  11.794  23.275  0.00  0.00    +0.000 C 
ATOM     22  C   UNL     1      -0.928  12.903  22.960  0.00  0.00    +0.000 C 
ATOM     23  C   UNL     1      -1.190  14.257  23.635  0.00  0.00    +0.000 C 
ATOM     24  C   UNL     1      -2.589  14.540  24.180  0.00  0.00    +0.000 C 
ATOM     25  C   UNL     1      -3.438  13.298  24.411  0.00  0.00    +0.000 C 
ENDBRANCH  18  20
ENDBRANCH   8  18
BRANCH   1  26
ATOM     26  O   UNL     1      -6.479  12.154  21.924  0.00  0.00    +0.000 OA
BRANCH  26  27
ATOM     27  C   UNL     1      -7.807  12.511  22.349  0.00  0.00    +0.000 C 
BRANCH  27  28
ATOM     28  C   UNL     1      -7.705  13.336  23.626  0.00  0.00    +0.000 C 
BRANCH  28  29
ATOM     29  C   UNL     1      -7.541  14.835  23.348  0.00  0.00    +0.000 C 
BRANCH  29  31
ATOM     30  C   UNL     1      -5.907  15.711  21.769  0.00  0.00    +0.000 C 
ATOM     31  N   UNL     1      -6.145  15.257  23.141  0.00  0.00    +0.000 NA
ATOM     32  C   UNL     1      -5.791  16.327  24.079  0.00  0.00    +0.000 C 
ENDBRANCH  29  31
ENDBRANCH  28  29
ENDBRANCH  27  28
ENDBRANCH  26  27
ENDBRANCH   1  26
TORSDOF 9
ENDMDL
MODEL 2
REMARK VINA RESULT:      -5.8      1.043      1.107
REMARK  Name = 
REMARK  11 active torsions:
REMARK  status: ('A' for Active; 'I' for Inactive)
REMARK    1  A    between atoms: C_1  and  N_2
REMARK    2  A    between atoms: N_2  and  C_3
REMARK    3  A    between atoms: N_2  and  C_4
REMARK    4  A    between atoms: C_4  and  C_5
REMARK    5  A    between atoms: C_5  and  C_6
REMARK    6  A    between atoms: C_6  and  O_7
REMARK    7  A    between atoms: O_7  and  C_8
REMARK    8  A    between atoms: C_13  and  C_14
REMARK    9  A    between atoms: C_16  and  C_17
REMARK   10  A    between atoms: C_23  and  N_24
REMARK   11  A    between atoms: N_24  and  C_25
REMARK                            x       y       z     vdW  Elec       q    Type
REMARK                         _______ _______ _______ _____ _____    ______ ____
ROOT
ATOM      1  C   UNL     1      -6.084  12.488  20.043  0.00  0.00    +0.000 A 
ATOM      2  C   UNL     1      -7.203  12.421  19.281  0.00  0.00    +0.000 A 
ATOM      3  C   UNL     1      -7.139  12.136  17.870  0.00  0.00    +0.000 A 
ATOM      4  C   UNL     1      -5.944  11.869  17.298  0.00  0.00    +0.000 A 
ATOM      5  C   UNL     1      -4.749  11.908  18.068  0.00  0.00    +0.000 A 
ATOM      6  C   UNL     1      -3.460  11.592  17.743  0.00  0.00    +0.000 A 
ATOM      7  C   UNL     1      -2.591  11.968  18.841  0.00  0.00    +0.000 A 
ATOM      8  C   UNL     1      -3.446  12.361  19.923  0.00  0.00    +0.000 A 
ATOM      9  N   UNL     1      -4.800  12.268  19.413  0.00  0.00    +0.000 N 
ENDROOT
BRANCH   7  10
ATOM     10  C   UNL     1      -1.102  11.944  18.716  0.00  0.00    +0.000 A 
ATOM     11  C   UNL     1      -0.398  13.153  18.456  0.00  0.00    +0.000 A 
ATOM     12  C   UNL     1       0.995  13.260  18.496  0.00  0.00    +0.000 A 
ATOM     13  C   UNL     1       1.743  12.143  18.811  0.00  0.00    +0.000 A 
ATOM     14  C   UNL     1       1.098  10.916  18.939  0.00  0.00    +0.000 A 
ATOM     15  C   UNL     1      -0.311  10.806  18.858  0.00  0.00    +0.000 A 
ENDBRANCH   7  10
BRANCH   6  16
ATOM     16  C   UNL     1      -3.171  11.040  16.454  0.00  0.00    +0.000 C 
ATOM     17  N   UNL     1      -2.918  10.656  15.384  0.00  0.00    +0.000 NA
ENDBRANCH   6  16
BRANCH   8  18
ATOM     18  N   UNL     1      -3.326  12.733  21.267  0.00  0.00    +0.000 N 
ATOM     19  H   UNL     1      -3.264  13.751  21.383  0.00  0.00    +0.000 HD
BRANCH  18  20
ATOM     20  C   UNL     1      -2.665  12.101  22.444  0.00  0.00    +0.000 C 
ATOM     21  C   UNL     1      -1.162  11.915  22.383  0.00  0.00    +0.000 C 
ATOM     22  C   UNL     1      -0.451  13.236  22.140  0.00  0.00    +0.000 C 
ATOM     23  C   UNL     1      -0.942  14.431  22.970  0.00  0.00    +0.000 C 
ATOM     24  C   UNL     1      -2.328  14.352  23.610  0.00  0.00    +0.000 C 
ATOM     25  C   UNL     1      -2.878  12.940  23.747  0.00  0.00    +0.000 C 
ENDBRANCH  18  20
ENDBRANCH   8  18
BRANCH   1  26
ATOM     26  O   UNL     1      -6.113  12.734  21.408  0.00  0.00    +0.000 OA
BRANCH  26  27
ATOM     27  C   UNL     1      -7.356  12.476  22.084  0.00  0.00    +0.000 C 
BRANCH  27  28
ATOM     28  C   UNL     1      -7.125  12.575  23.587  0.00  0.00    +0.000 C 
BRANCH  28  29
ATOM     29  C   UNL     1      -7.373  13.987  24.129  0.00  0.00    +0.000 C 
BRANCH  29  31
ATOM     30  C   UNL     1      -7.915  16.034  22.927  0.00  0.00    +0.000 C 
ATOM     31  N   UNL     1      -6.870  15.061  23.257  0.00  0.00    +0.000 NA
ATOM     32  C   UNL     1      -5.743  15.751  23.892  0.00  0.00    +0.000 C 
ENDBRANCH  29  31
ENDBRANCH  28  29
ENDBRANCH  27  28
ENDBRANCH  26  27
ENDBRANCH   1  26
TORSDOF 9
ENDMDL
MODEL 3
REMARK VINA RESULT:      -5.5      0.633      1.153
REMARK  Name = 
REMARK  11 active torsions:
REMARK  status: ('A' for Active; 'I' for Inactive)
REMARK    1  A    between atoms: C_1  and  N_2
REMARK    2  A    between atoms: N_2  and  C_3
REMARK    3  A    between atoms: N_2  and  C_4
REMARK    4  A    between atoms: C_4  and  C_5
REMARK    5  A    between atoms: C_5  and  C_6
REMARK    6  A    between atoms: C_6  and  O_7
REMARK    7  A    between atoms: O_7  and  C_8
REMARK    8  A    between atoms: C_13  and  C_14
REMARK    9  A    between atoms: C_16  and  C_17
REMARK   10  A    between atoms: C_23  and  N_24
REMARK   11  A    between atoms: N_24  and  C_25
REMARK                            x       y       z     vdW  Elec       q    Type
REMARK                         _______ _______ _______ _____ _____    ______ ____
ROOT
ATOM      1  C   UNL     1      -6.210  11.935  20.420  0.00  0.00    +0.000 A 
ATOM      2  C   UNL     1      -7.228  11.535  19.620  0.00  0.00    +0.000 A 
ATOM      3  C   UNL     1      -7.017  11.222  18.229  0.00  0.00    +0.000 A 
ATOM      4  C   UNL     1      -5.767  11.268  17.718  0.00  0.00    +0.000 A 
ATOM      5  C   UNL     1      -4.668  11.662  18.531  0.00  0.00    +0.000 A 
ATOM      6  C   UNL     1      -3.327  11.697  18.274  0.00  0.00    +0.000 A 
ATOM      7  C   UNL     1      -2.649  12.339  19.383  0.00  0.00    +0.000 A 
ATOM      8  C   UNL     1      -3.633  12.527  20.409  0.00  0.00    +0.000 A 
ATOM      9  N   UNL     1      -4.884  12.048  19.853  0.00  0.00    +0.000 N 
ENDROOT
BRANCH   7  10
ATOM     10  C   UNL     1      -1.205  12.716  19.318  0.00  0.00    +0.000 A 
ATOM     11  C   UNL     1      -0.210  11.699  19.327  0.00  0.00    +0.000 A 
ATOM     12  C   UNL     1       1.147  11.942  19.095  0.00  0.00    +0.000 A 
ATOM     13  C   UNL     1       1.559  13.233  18.833  0.00  0.00    +0.000 A 
ATOM     14  C   UNL     1       0.637  14.270  18.949  0.00  0.00    +0.000 A 
ATOM     15  C   UNL     1      -0.729  14.022  19.224  0.00  0.00    +0.000 A 
ENDBRANCH   7  10
BRANCH   6  16
ATOM     16  C   UNL     1      -2.833  11.194  17.028  0.00  0.00    +0.000 C 
ATOM     17  N   UNL     1      -2.497  10.779  15.992  0.00  0.00    +0.000 NA
ENDBRANCH   6  16
BRANCH   8  18
ATOM     18  N   UNL     1      -3.687  12.971  21.736  0.00  0.00    +0.000 N 
ATOM     19  H   UNL     1      -3.537  13.983  21.811  0.00  0.00    +0.000 HD
BRANCH  18  20
ATOM     20  C   UNL     1      -3.291  12.354  23.033  0.00  0.00    +0.000 C 
ATOM     21  C   UNL     1      -1.913  11.728  23.116  0.00  0.00    +0.000 C 
ATOM     22  C   UNL     1      -0.829  12.732  22.760  0.00  0.00    +0.000 C 
ATOM     23  C   UNL     1      -0.966  14.128  23.385  0.00  0.00    +0.000 C 
ATOM     24  C   UNL     1      -2.334  14.554  23.919  0.00  0.00    +0.000 C 
ATOM     25  C   UNL     1      -3.288  13.402  24.195  0.00  0.00    +0.000 C 
ENDBRANCH  18  20
ENDBRANCH   8  18
BRANCH   1  26
ATOM     26  O   UNL     1      -6.374  12.218  21.769  0.00  0.00    +0.000 OA
BRANCH  26  27
ATOM     27  C   UNL     1      -7.354  13.217  22.103  0.00  0.00    +0.000 C 
BRANCH  27  28
ATOM     28  C   UNL     1      -7.194  14.396  21.151  0.00  0.00    +0.000 C 
BRANCH  28  29
ATOM     29  C   UNL     1      -6.877  15.705  21.883  0.00  0.00    +0.000 C 
BRANCH  29  31
ATOM     30  C   UNL     1      -4.601  16.569  21.923  0.00  0.00    +0.000 C 
ATOM     31  N   UNL     1      -5.582  15.702  22.582  0.00  0.00    +0.000 NA
ATOM     32  C   UNL     1      -5.751  16.129  23.975  0.00  0.00    +0.000 C 
ENDBRANCH  29  31
ENDBRANCH  28  29
ENDBRANCH  27  28
ENDBRANCH  26  27
ENDBRANCH   1  26
TORSDOF 9
ENDMDL
MODEL 4
REMARK VINA RESULT:      -5.5      2.608      6.923
REMARK  Name = 
REMARK  11 active torsions:
REMARK  status: ('A' for Active; 'I' for Inactive)
REMARK    1  A    between atoms: C_1  and  N_2
REMARK    2  A    between atoms: N_2  and  C_3
REMARK    3  A    between atoms: N_2  and  C_4
REMARK    4  A    between atoms: C_4  and  C_5
REMARK    5  A    between atoms: C_5  and  C_6
REMARK    6  A    between atoms: C_6  and  O_7
REMARK    7  A    between atoms: O_7  and  C_8
REMARK    8  A    between atoms: C_13  and  C_14
REMARK    9  A    between atoms: C_16  and  C_17
REMARK   10  A    between atoms: C_23  and  N_24
REMARK   11  A    between atoms: N_24  and  C_25
REMARK                            x       y       z     vdW  Elec       q    Type
REMARK                         _______ _______ _______ _____ _____    ______ ____
ROOT
ATOM      1  C   UNL     1      -2.188  11.229  18.072  0.00  0.00    +0.000 A 
ATOM      2  C   UNL     1      -1.271  10.425  17.482  0.00  0.00    +0.000 A 
ATOM      3  C   UNL     1      -0.164   9.872  18.221  0.00  0.00    +0.000 A 
ATOM      4  C   UNL     1      -0.066  10.108  19.548  0.00  0.00    +0.000 A 
ATOM      5  C   UNL     1      -1.021  10.929  20.209  0.00  0.00    +0.000 A 
ATOM      6  C   UNL     1      -1.183  11.233  21.532  0.00  0.00    +0.000 A 
ATOM      7  C   UNL     1      -2.207  12.251  21.660  0.00  0.00    +0.000 A 
ATOM      8  C   UNL     1      -2.785  12.416  20.358  0.00  0.00    +0.000 A 
ATOM      9  N   UNL     1      -2.042  11.534  19.479  0.00  0.00    +0.000 N 
ENDROOT
BRANCH   7  10
ATOM     10  C   UNL     1      -2.475  12.946  22.955  0.00  0.00    +0.000 A 
ATOM     11  C   UNL     1      -1.626  14.011  23.371  0.00  0.00    +0.000 A 
ATOM     12  C   UNL     1      -1.896  14.830  24.471  0.00  0.00    +0.000 A 
ATOM     13  C   UNL     1      -3.048  14.612  25.200  0.00  0.00    +0.000 A 
ATOM     14  C   UNL     1      -3.831  13.498  24.905  0.00  0.00    +0.000 A 
ATOM     15  C   UNL     1      -3.530  12.648  23.813  0.00  0.00    +0.000 A 
ENDBRANCH   7  10
BRANCH   6  16
ATOM     16  C   UNL     1      -0.349  10.602  22.509  0.00  0.00    +0.000 C 
ATOM     17  N   UNL     1       0.344  10.039  23.258  0.00  0.00    +0.000 NA
ENDBRANCH   6  16
BRANCH   8  18
ATOM     18  N   UNL     1      -3.843  13.117  19.766  0.00  0.00    +0.000 N 
ATOM     19  H   UNL     1      -3.525  13.719  18.998  0.00  0.00    +0.000 HD
BRANCH  18  20
ATOM     20  C   UNL     1      -5.110  13.689  20.299  0.00  0.00    +0.000 C 
ATOM     21  C   UNL     1      -6.065  14.317  19.303  0.00  0.00    +0.000 C 
ATOM     22  C   UNL     1      -6.455  13.332  18.214  0.00  0.00    +0.000 C 
ATOM     23  C   UNL     1      -6.817  11.914  18.682  0.00  0.00    +0.000 C 
ATOM     24  C   UNL     1      -6.349  11.463  20.066  0.00  0.00    +0.000 C 
ATOM     25  C   UNL     1      -5.984  12.601  21.008  0.00  0.00    +0.000 C 
ENDBRANCH  18  20
ENDBRANCH   8  18
BRANCH   1  26
ATOM     26  O   UNL     1      -3.279  11.756  17.395  0.00  0.00    +0.000 OA
BRANCH  26  27
ATOM     27  C   UNL     1      -4.014  10.850  16.553  0.00  0.00    +0.000 C 
BRANCH  27  28
ATOM     28  C   UNL     1      -3.334  10.791  15.190  0.00  0.00    +0.000 C 
BRANCH  28  29
ATOM     29  C   UNL     1      -4.129   9.965  14.172  0.00  0.00    +0.000 C 
BRANCH  29  31
ATOM     30  C   UNL     1      -2.444   9.373  12.517  0.00  0.00    +0.000 C 
ATOM     31  N   UNL     1      -3.672  10.127  12.781  0.00  0.00    +0.000 NA
ATOM     32  C   UNL     1      -4.718   9.701  11.846  0.00  0.00    +0.000 C 
ENDBRANCH  29  31
ENDBRANCH  28  29
ENDBRANCH  27  28
ENDBRANCH  26  27
ENDBRANCH   1  26
TORSDOF 9
ENDMDL
MODEL 5
REMARK VINA RESULT:      -5.5      2.807      6.750
REMARK  Name = 
REMARK  11 active torsions:
REMARK  status: ('A' for Active; 'I' for Inactive)
REMARK    1  A    between atoms: C_1  and  N_2
REMARK    2  A    between atoms: N_2  and  C_3
REMARK    3  A    between atoms: N_2  and  C_4
REMARK    4  A    between atoms: C_4  and  C_5
REMARK    5  A    between atoms: C_5  and  C_6
REMARK    6  A    between atoms: C_6  and  O_7
REMARK    7  A    between atoms: O_7  and  C_8
REMARK    8  A    between atoms: C_13  and  C_14
REMARK    9  A    between atoms: C_16  and  C_17
REMARK   10  A    between atoms: C_23  and  N_24
REMARK   11  A    between atoms: N_24  and  C_25
REMARK                            x       y       z     vdW  Elec       q    Type
REMARK                         _______ _______ _______ _____ _____    ______ ____
ROOT
ATOM      1  C   UNL     1      -2.245  11.121  17.473  0.00  0.00    +0.000 A 
ATOM      2  C   UNL     1      -2.533  10.588  16.261  0.00  0.00    +0.000 A 
ATOM      3  C   UNL     1      -3.874  10.600  15.730  0.00  0.00    +0.000 A 
ATOM      4  C   UNL     1      -4.860  11.209  16.425  0.00  0.00    +0.000 A 
ATOM      5  C   UNL     1      -4.592  11.800  17.691  0.00  0.00    +0.000 A 
ATOM      6  C   UNL     1      -5.386  12.538  18.524  0.00  0.00    +0.000 A 
ATOM      7  C   UNL     1      -4.683  12.759  19.773  0.00  0.00    +0.000 A 
ATOM      8  C   UNL     1      -3.348  12.270  19.583  0.00  0.00    +0.000 A 
ATOM      9  N   UNL     1      -3.316  11.713  18.244  0.00  0.00    +0.000 N 
ENDROOT
BRANCH   7  10
ATOM     10  C   UNL     1      -5.357  13.354  20.967  0.00  0.00    +0.000 A 
ATOM     11  C   UNL     1      -5.977  12.501  21.923  0.00  0.00    +0.000 A 
ATOM     12  C   UNL     1      -6.476  12.948  23.149  0.00  0.00    +0.000 A 
ATOM     13  C   UNL     1      -6.361  14.286  23.469  0.00  0.00    +0.000 A 
ATOM     14  C   UNL     1      -5.884  15.170  22.505  0.00  0.00    +0.000 A 
ATOM     15  C   UNL     1      -5.417  14.716  21.248  0.00  0.00    +0.000 A 
ENDBRANCH   7  10
BRANCH   6  16
ATOM     16  C   UNL     1      -6.705  12.903  18.104  0.00  0.00    +0.000 C 
ATOM     17  N   UNL     1      -7.782  13.242  17.818  0.00  0.00    +0.000 NA
ENDBRANCH   6  16
BRANCH   8  18
ATOM     18  N   UNL     1      -2.137  12.241  20.284  0.00  0.00    +0.000 N 
ATOM     19  H   UNL     1      -1.798  11.283  20.431  0.00  0.00    +0.000 HD
BRANCH  18  20
ATOM     20  C   UNL     1      -1.561  13.097  21.359  0.00  0.00    +0.000 C 
ATOM     21  C   UNL     1      -2.283  13.123  22.691  0.00  0.00    +0.000 C 
ATOM     22  C   UNL     1      -2.421  11.726  23.273  0.00  0.00    +0.000 C 
ATOM     23  C   UNL     1      -1.168  10.840  23.210  0.00  0.00    +0.000 C 
ATOM     24  C   UNL     1      -0.065  11.209  22.220  0.00  0.00    +0.000 C 
ATOM     25  C   UNL     1      -0.109  12.652  21.738  0.00  0.00    +0.000 C 
ENDBRANCH  18  20
ENDBRANCH   8  18
BRANCH   1  26
ATOM     26  O   UNL     1      -0.962  11.149  18.000  0.00  0.00    +0.000 OA
BRANCH  26  27
ATOM     27  C   UNL     1      -0.441   9.903  18.497  0.00  0.00    +0.000 C 
BRANCH  27  28
ATOM     28  C   UNL     1       1.081   9.976  18.497  0.00  0.00    +0.000 C 
BRANCH  28  29
ATOM     29  C   UNL     1       1.726   8.808  17.741  0.00  0.00    +0.000 C 
BRANCH  29  31
ATOM     30  C   UNL     1       2.184   7.299  19.596  0.00  0.00    +0.000 C 
ATOM     31  N   UNL     1       2.760   8.095  18.509  0.00  0.00    +0.000 NA
ATOM     32  C   UNL     1       3.541   7.222  17.627  0.00  0.00    +0.000 C 
ENDBRANCH  29  31
ENDBRANCH  28  29
ENDBRANCH  27  28
ENDBRANCH  26  27
ENDBRANCH   1  26
TORSDOF 9
ENDMDL
MODEL 6
REMARK VINA RESULT:      -5.4      2.866      7.288
REMARK  Name = 
REMARK  11 active torsions:
REMARK  status: ('A' for Active; 'I' for Inactive)
REMARK    1  A    between atoms: C_1  and  N_2
REMARK    2  A    between atoms: N_2  and  C_3
REMARK    3  A    between atoms: N_2  and  C_4
REMARK    4  A    between atoms: C_4  and  C_5
REMARK    5  A    between atoms: C_5  and  C_6
REMARK    6  A    between atoms: C_6  and  O_7
REMARK    7  A    between atoms: O_7  and  C_8
REMARK    8  A    between atoms: C_13  and  C_14
REMARK    9  A    between atoms: C_16  and  C_17
REMARK   10  A    between atoms: C_23  and  N_24
REMARK   11  A    between atoms: N_24  and  C_25
REMARK                            x       y       z     vdW  Elec       q    Type
REMARK                         _______ _______ _______ _____ _____    ______ ____
ROOT
ATOM      1  C   UNL     1      -2.263  10.648  17.677  0.00  0.00    +0.000 A 
ATOM      2  C   UNL     1      -1.078  10.016  17.497  0.00  0.00    +0.000 A 
ATOM      3  C   UNL     1      -0.020  10.104  18.472  0.00  0.00    +0.000 A 
ATOM      4  C   UNL     1      -0.229  10.780  19.623  0.00  0.00    +0.000 A 
ATOM      5  C   UNL     1      -1.467  11.439  19.859  0.00  0.00    +0.000 A 
ATOM      6  C   UNL     1      -1.940  12.095  20.960  0.00  0.00    +0.000 A 
ATOM      7  C   UNL     1      -3.198  12.734  20.625  0.00  0.00    +0.000 A 
ATOM      8  C   UNL     1      -3.552  12.276  19.313  0.00  0.00    +0.000 A 
ATOM      9  N   UNL     1      -2.459  11.427  18.880  0.00  0.00    +0.000 N 
ENDROOT
BRANCH   7  10
ATOM     10  C   UNL     1      -3.867  13.698  21.550  0.00  0.00    +0.000 A 
ATOM     11  C   UNL     1      -3.675  15.097  21.367  0.00  0.00    +0.000 A 
ATOM     12  C   UNL     1      -4.391  16.073  22.066  0.00  0.00    +0.000 A 
ATOM     13  C   UNL     1      -5.346  15.676  22.980  0.00  0.00    +0.000 A 
ATOM     14  C   UNL     1      -5.467  14.322  23.281  0.00  0.00    +0.000 A 
ATOM     15  C   UNL     1      -4.710  13.339  22.599  0.00  0.00    +0.000 A 
ENDBRANCH   7  10
BRANCH   6  16
ATOM     16  C   UNL     1      -1.164  12.108  22.163  0.00  0.00    +0.000 C 
ATOM     17  N   UNL     1      -0.592  12.120  23.178  0.00  0.00    +0.000 NA
ENDBRANCH   6  16
BRANCH   8  18
ATOM     18  N   UNL     1      -4.629  12.384  18.425  0.00  0.00    +0.000 N 
ATOM     19  H   UNL     1      -4.528  13.185  17.792  0.00  0.00    +0.000 HD
BRANCH  18  20
ATOM     20  C   UNL     1      -6.081  12.076  18.543  0.00  0.00    +0.000 C 
ATOM     21  C   UNL     1      -6.858  12.784  19.635  0.00  0.00    +0.000 C 
ATOM     22  C   UNL     1      -6.740  14.294  19.507  0.00  0.00    +0.000 C 
ATOM     23  C   UNL     1      -6.905  14.868  18.093  0.00  0.00    +0.000 C 
ATOM     24  C   UNL     1      -6.725  13.929  16.901  0.00  0.00    +0.000 C 
ATOM     25  C   UNL     1      -6.861  12.451  17.238  0.00  0.00    +0.000 C 
ENDBRANCH  18  20
ENDBRANCH   8  18
BRANCH   1  26
ATOM     26  O   UNL     1      -3.311  10.562  16.772  0.00  0.00    +0.000 OA
BRANCH  26  27
ATOM     27  C   UNL     1      -3.095  11.152  15.477  0.00  0.00    +0.000 C 
BRANCH  27  28
ATOM     28  C   UNL     1      -3.048  10.040  14.436  0.00  0.00    +0.000 C 
BRANCH  28  29
ATOM     29  C   UNL     1      -4.430   9.719  13.855  0.00  0.00    +0.000 C 
BRANCH  29  31
ATOM     30  C   UNL     1      -3.383   9.622  11.660  0.00  0.00    +0.000 C 
ATOM     31  N   UNL     1      -4.565  10.029  12.422  0.00  0.00    +0.000 NA
ATOM     32  C   UNL     1      -5.754   9.375  11.867  0.00  0.00    +0.000 C 
ENDBRANCH  29  31
ENDBRANCH  28  29
ENDBRANCH  27  28
ENDBRANCH  26  27
ENDBRANCH   1  26
TORSDOF 9
ENDMDL
MODEL 7
REMARK VINA RESULT:      -5.3      2.727      6.586
REMARK  Name = 
REMARK  11 active torsions:
REMARK  status: ('A' for Active; 'I' for Inactive)
REMARK    1  A    between atoms: C_1  and  N_2
REMARK    2  A    between atoms: N_2  and  C_3
REMARK    3  A    between atoms: N_2  and  C_4
REMARK    4  A    between atoms: C_4  and  C_5
REMARK    5  A    between atoms: C_5  and  C_6
REMARK    6  A    between atoms: C_6  and  O_7
REMARK    7  A    between atoms: O_7  and  C_8
REMARK    8  A    between atoms: C_13  and  C_14
REMARK    9  A    between atoms: C_16  and  C_17
REMARK   10  A    between atoms: C_23  and  N_24
REMARK   11  A    between atoms: N_24  and  C_25
REMARK                            x       y       z     vdW  Elec       q    Type
REMARK                         _______ _______ _______ _____ _____    ______ ____
ROOT
ATOM      1  C   UNL     1      -1.837  10.956  18.377  0.00  0.00    +0.000 A 
ATOM      2  C   UNL     1      -1.819  10.184  17.263  0.00  0.00    +0.000 A 
ATOM      3  C   UNL     1      -2.985  10.035  16.429  0.00  0.00    +0.000 A 
ATOM      4  C   UNL     1      -4.108  10.726  16.724  0.00  0.00    +0.000 A 
ATOM      5  C   UNL     1      -4.160  11.564  17.872  0.00  0.00    +0.000 A 
ATOM      6  C   UNL     1      -5.130  12.417  18.319  0.00  0.00    +0.000 A 
ATOM      7  C   UNL     1      -4.758  12.908  19.632  0.00  0.00    +0.000 A 
ATOM      8  C   UNL     1      -3.422  12.448  19.877  0.00  0.00    +0.000 A 
ATOM      9  N   UNL     1      -3.062  11.642  18.727  0.00  0.00    +0.000 N 
ENDROOT
BRANCH   7  10
ATOM     10  C   UNL     1      -5.704  13.695  20.480  0.00  0.00    +0.000 A 
ATOM     11  C   UNL     1      -6.587  13.017  21.366  0.00  0.00    +0.000 A 
ATOM     12  C   UNL     1      -7.378  13.668  22.317  0.00  0.00    +0.000 A 
ATOM     13  C   UNL     1      -7.304  15.042  22.420  0.00  0.00    +0.000 A 
ATOM     14  C   UNL     1      -6.555  15.748  21.483  0.00  0.00    +0.000 A 
ATOM     15  C   UNL     1      -5.787  15.086  20.495  0.00  0.00    +0.000 A 
ENDBRANCH   7  10
BRANCH   6  16
ATOM     16  C   UNL     1      -6.300  12.635  17.524  0.00  0.00    +0.000 C 
ATOM     17  N   UNL     1      -7.283  12.760  16.911  0.00  0.00    +0.000 NA
ENDBRANCH   6  16
BRANCH   8  18
ATOM     18  N   UNL     1      -2.424  12.609  20.845  0.00  0.00    +0.000 N 
ATOM     19  H   UNL     1      -1.488  12.667  20.428  0.00  0.00    +0.000 HD
BRANCH  18  20
ATOM     20  C   UNL     1      -2.270  12.115  22.242  0.00  0.00    +0.000 C 
ATOM     21  C   UNL     1      -1.018  12.524  22.993  0.00  0.00    +0.000 C 
ATOM     22  C   UNL     1      -0.877  14.036  23.047  0.00  0.00    +0.000 C 
ATOM     23  C   UNL     1      -2.149  14.823  23.392  0.00  0.00    +0.000 C 
ATOM     24  C   UNL     1      -3.502  14.133  23.215  0.00  0.00    +0.000 C 
ATOM     25  C   UNL     1      -3.431  12.614  23.164  0.00  0.00    +0.000 C 
ENDBRANCH  18  20
ENDBRANCH   8  18
BRANCH   1  26
ATOM     26  O   UNL     1      -0.725  11.143  19.186  0.00  0.00    +0.000 OA
BRANCH  26  27
ATOM     27  C   UNL     1      -0.247   9.989  19.899  0.00  0.00    +0.000 C 
BRANCH  27  28
ATOM     28  C   UNL     1       1.120   9.605  19.345  0.00  0.00    +0.000 C 
BRANCH  28  29
ATOM     29  C   UNL     1       1.634   8.276  19.913  0.00  0.00    +0.000 C 
BRANCH  29  31
ATOM     30  C   UNL     1       2.902   7.987  17.855  0.00  0.00    +0.000 C 
ATOM     31  N   UNL     1       2.100   7.327  18.888  0.00  0.00    +0.000 NA
ATOM     32  C   UNL     1       2.886   6.254  19.505  0.00  0.00    +0.000 C 
ENDBRANCH  29  31
ENDBRANCH  28  29
ENDBRANCH  27  28
ENDBRANCH  26  27
ENDBRANCH   1  26
TORSDOF 9
ENDMDL
MODEL 8
REMARK VINA RESULT:      -5.3      2.232      5.778
REMARK  Name = 
REMARK  11 active torsions:
REMARK  status: ('A' for Active; 'I' for Inactive)
REMARK    1  A    between atoms: C_1  and  N_2
REMARK    2  A    between atoms: N_2  and  C_3
REMARK    3  A    between atoms: N_2  and  C_4
REMARK    4  A    between atoms: C_4  and  C_5
REMARK    5  A    between atoms: C_5  and  C_6
REMARK    6  A    between atoms: C_6  and  O_7
REMARK    7  A    between atoms: O_7  and  C_8
REMARK    8  A    between atoms: C_13  and  C_14
REMARK    9  A    between atoms: C_16  and  C_17
REMARK   10  A    between atoms: C_23  and  N_24
REMARK   11  A    between atoms: N_24  and  C_25
REMARK                            x       y       z     vdW  Elec       q    Type
REMARK                         _______ _______ _______ _____ _____    ______ ____
ROOT
ATOM      1  C   UNL     1      -1.351  11.768  18.856  0.00  0.00    +0.000 A 
ATOM      2  C   UNL     1      -1.218  10.854  17.865  0.00  0.00    +0.000 A 
ATOM      3  C   UNL     1      -2.363  10.211  17.271  0.00  0.00    +0.000 A 
ATOM      4  C   UNL     1      -3.606  10.566  17.666  0.00  0.00    +0.000 A 
ATOM      5  C   UNL     1      -3.789  11.537  18.689  0.00  0.00    +0.000 A 
ATOM      6  C   UNL     1      -4.922  12.117  19.185  0.00  0.00    +0.000 A 
ATOM      7  C   UNL     1      -4.575  12.922  20.340  0.00  0.00    +0.000 A 
ATOM      8  C   UNL     1      -3.142  12.944  20.407  0.00  0.00    +0.000 A 
ATOM      9  N   UNL     1      -2.681  12.097  19.324  0.00  0.00    +0.000 N 
ENDROOT
BRANCH   7  10
ATOM     10  C   UNL     1      -5.615  13.519  21.231  0.00  0.00    +0.000 A 
ATOM     11  C   UNL     1      -6.544  12.671  21.896  0.00  0.00    +0.000 A 
ATOM     12  C   UNL     1      -7.434  13.117  22.877  0.00  0.00    +0.000 A 
ATOM     13  C   UNL     1      -7.418  14.449  23.237  0.00  0.00    +0.000 A 
ATOM     14  C   UNL     1      -6.619  15.332  22.515  0.00  0.00    +0.000 A 
ATOM     15  C   UNL     1      -5.748  14.880  21.495  0.00  0.00    +0.000 A 
ENDBRANCH   7  10
BRANCH   6  16
ATOM     16  C   UNL     1      -6.188  11.823  18.584  0.00  0.00    +0.000 C 
ATOM     17  N   UNL     1      -7.185  11.581  18.033  0.00  0.00    +0.000 NA
ENDBRANCH   6  16
BRANCH   8  18
ATOM     18  N   UNL     1      -2.141  13.571  21.158  0.00  0.00    +0.000 N 
ATOM     19  H   UNL     1      -1.572  14.208  20.588  0.00  0.00    +0.000 HD
BRANCH  18  20
ATOM     20  C   UNL     1      -1.313  13.134  22.316  0.00  0.00    +0.000 C 
ATOM     21  C   UNL     1      -1.020  14.161  23.392  0.00  0.00    +0.000 C 
ATOM     22  C   UNL     1      -2.303  14.740  23.966  0.00  0.00    +0.000 C 
ATOM     23  C   UNL     1      -3.414  13.732  24.291  0.00  0.00    +0.000 C 
ATOM     24  C   UNL     1      -3.360  12.353  23.634  0.00  0.00    +0.000 C 
ATOM     25  C   UNL     1      -1.989  11.962  23.102  0.00  0.00    +0.000 C 
ENDBRANCH  18  20
ENDBRANCH   8  18
BRANCH   1  26
ATOM     26  O   UNL     1      -0.273  12.425  19.430  0.00  0.00    +0.000 OA
BRANCH  26  27
ATOM     27  C   UNL     1       0.475  13.307  18.573  0.00  0.00    +0.000 C 
BRANCH  27  28
ATOM     28  C   UNL     1       0.771  14.593  19.335  0.00  0.00    +0.000 C 
BRANCH  28  29
ATOM     29  C   UNL     1      -0.273  15.685  19.076  0.00  0.00    +0.000 C 
BRANCH  29  31
ATOM     30  C   UNL     1       1.697  16.871  18.274  0.00  0.00    +0.000 C 
ATOM     31  N   UNL     1       0.303  16.990  18.710  0.00  0.00    +0.000 NA
ATOM     32  C   UNL     1      -0.488  17.619  17.647  0.00  0.00    +0.000 C 
ENDBRANCH  29  31
ENDBRANCH  28  29
ENDBRANCH  27  28
ENDBRANCH  26  27
ENDBRANCH   1  26
TORSDOF 9
ENDMDL
MODEL 9
REMARK VINA RESULT:      -5.3      2.915      6.769
REMARK  Name = 
REMARK  11 active torsions:
REMARK  status: ('A' for Active; 'I' for Inactive)
REMARK    1  A    between atoms: C_1  and  N_2
REMARK    2  A    between atoms: N_2  and  C_3
REMARK    3  A    between atoms: N_2  and  C_4
REMARK    4  A    between atoms: C_4  and  C_5
REMARK    5  A    between atoms: C_5  and  C_6
REMARK    6  A    between atoms: C_6  and  O_7
REMARK    7  A    between atoms: O_7  and  C_8
REMARK    8  A    between atoms: C_13  and  C_14
REMARK    9  A    between atoms: C_16  and  C_17
REMARK   10  A    between atoms: C_23  and  N_24
REMARK   11  A    between atoms: N_24  and  C_25
REMARK                            x       y       z     vdW  Elec       q    Type
REMARK                         _______ _______ _______ _____ _____    ______ ____
ROOT
ATOM      1  C   UNL     1      -2.165  11.013  17.429  0.00  0.00    +0.000 A 
ATOM      2  C   UNL     1      -2.553  10.596  16.200  0.00  0.00    +0.000 A 
ATOM      3  C   UNL     1      -3.914  10.741  15.747  0.00  0.00    +0.000 A 
ATOM      4  C   UNL     1      -4.816  11.362  16.539  0.00  0.00    +0.000 A 
ATOM      5  C   UNL     1      -4.443  11.834  17.828  0.00  0.00    +0.000 A 
ATOM      6  C   UNL     1      -5.137  12.559  18.755  0.00  0.00    +0.000 A 
ATOM      7  C   UNL     1      -4.358  12.634  19.976  0.00  0.00    +0.000 A 
ATOM      8  C   UNL     1      -3.074  12.070  19.676  0.00  0.00    +0.000 A 
ATOM      9  N   UNL     1      -3.150  11.617  18.301  0.00  0.00    +0.000 N 
ENDROOT
BRANCH   7  10
ATOM     10  C   UNL     1      -4.925  13.181  21.245  0.00  0.00    +0.000 A 
ATOM     11  C   UNL     1      -4.495  14.452  21.719  0.00  0.00    +0.000 A 
ATOM     12  C   UNL     1      -5.091  15.119  22.793  0.00  0.00    +0.000 A 
ATOM     13  C   UNL     1      -6.161  14.529  23.435  0.00  0.00    +0.000 A 
ATOM     14  C   UNL     1      -6.522  13.230  23.087  0.00  0.00    +0.000 A 
ATOM     15  C   UNL     1      -5.888  12.543  22.024  0.00  0.00    +0.000 A 
ENDBRANCH   7  10
BRANCH   6  16
ATOM     16  C   UNL     1      -6.446  13.045  18.437  0.00  0.00    +0.000 C 
ATOM     17  N   UNL     1      -7.526  13.376  18.155  0.00  0.00    +0.000 NA
ENDBRANCH   6  16
BRANCH   8  18
ATOM     18  N   UNL     1      -1.834  11.904  20.304  0.00  0.00    +0.000 N 
ATOM     19  H   UNL     1      -1.578  10.915  20.398  0.00  0.00    +0.000 HD
BRANCH  18  20
ATOM     20  C   UNL     1      -1.123  12.662  21.372  0.00  0.00    +0.000 C 
ATOM     21  C   UNL     1      -1.525  12.387  22.808  0.00  0.00    +0.000 C 
ATOM     22  C   UNL     1      -1.382  10.913  23.149  0.00  0.00    +0.000 C 
ATOM     23  C   UNL     1      -0.090  10.231  22.676  0.00  0.00    +0.000 C 
ATOM     24  C   UNL     1       0.718  10.896  21.561  0.00  0.00    +0.000 C 
ATOM     25  C   UNL     1       0.415  12.374  21.361  0.00  0.00    +0.000 C 
ENDBRANCH  18  20
ENDBRANCH   8  18
BRANCH   1  26
ATOM     26  O   UNL     1      -0.859  10.913  17.885  0.00  0.00    +0.000 OA
BRANCH  26  27
ATOM     27  C   UNL     1      -0.330   9.584  18.039  0.00  0.00    +0.000 C 
BRANCH  27  28
ATOM     28  C   UNL     1       1.189   9.646  17.925  0.00  0.00    +0.000 C 
BRANCH  28  29
ATOM     29  C   UNL     1       1.893   8.733  18.935  0.00  0.00    +0.000 C 
BRANCH  29  31
ATOM     30  C   UNL     1       3.524   7.521  17.594  0.00  0.00    +0.000 C 
ATOM     31  N   UNL     1       2.294   7.427  18.385  0.00  0.00    +0.000 NA
ATOM     32  C   UNL     1       2.481   6.453  19.465  0.00  0.00    +0.000 C 
ENDBRANCH  29  31
ENDBRANCH  28  29
ENDBRANCH  27  28
ENDBRANCH  26  27
ENDBRANCH   1  26
TORSDOF 9
ENDMDL
