MODEL 1
REMARK VINA RESULT:      -6.8      0.000      0.000
REMARK  Name = 
REMARK  7 active torsions:
REMARK  status: ('A' for Active; 'I' for Inactive)
REMARK    1  A    between atoms: C_1  and  O_2
REMARK    2  A    between atoms: O_2  and  C_3
REMARK    3  A    between atoms: C_7  and  C_8
REMARK    4  A    between atoms: C_8  and  C_10
REMARK    5  A    between atoms: C_10  and  S_11
REMARK    6  A    between atoms: S_11  and  C_12
REMARK    7  A    between atoms: N_16  and  C_17
REMARK                            x       y       z     vdW  Elec       q    Type
REMARK                         _______ _______ _______ _____ _____    ______ ____
ROOT
ATOM      1  C   UNL     1       3.095   5.467  18.642  0.00  0.00    +0.000 C 
ATOM      2  O   UNL     1       2.939   5.971  19.754  0.00  0.00    +0.000 OA
ENDROOT
BRANCH   1   7
ATOM      3  C   UNL     1       6.022   5.608  16.198  0.00  0.00    +0.000 A 
ATOM      4  C   UNL     1       7.089   5.470  17.088  0.00  0.00    +0.000 A 
ATOM      5  C   UNL     1       6.861   5.352  18.458  0.00  0.00    +0.000 A 
ATOM      6  C   UNL     1       5.555   5.358  18.942  0.00  0.00    +0.000 A 
ATOM      7  C   UNL     1       4.472   5.480  18.060  0.00  0.00    +0.000 A 
ATOM      8  C   UNL     1       4.713   5.625  16.686  0.00  0.00    +0.000 A 
BRANCH   3  10
ATOM      9  C   UNL     1       6.693   4.509  14.193  0.00  0.00    +0.000 C 
ATOM     10  O   UNL     1       6.389   5.716  14.884  0.00  0.00    +0.000 OA
ENDBRANCH   3  10
ENDBRANCH   1   7
BRANCH   1  11
ATOM     11  C   UNL     1       1.983   4.742  17.900  0.00  0.00    +0.000 C 
BRANCH  11  12
ATOM     12  S   UNL     1       2.155   2.943  18.114  0.00  0.00    +0.000 S 
BRANCH  12  13
ATOM     13  C   UNL     1       2.081   2.806  19.829  0.00  0.00    +0.000 A 
ATOM     14  N   UNL     1       1.043   3.004  20.609  0.00  0.00    +0.000 NA
ATOM     15  N   UNL     1       1.497   2.788  21.893  0.00  0.00    +0.000 NA
ATOM     16  N   UNL     1       2.786   2.468  21.899  0.00  0.00    +0.000 NA
ATOM     17  N   UNL     1       3.154   2.477  20.604  0.00  0.00    +0.000 N 
ATOM     18  C   UNL     1       4.503   2.176  20.216  0.00  0.00    +0.000 C 
ENDBRANCH  12  13
ENDBRANCH  11  12
ENDBRANCH   1  11
TORSDOF 5
ENDMDL
MODEL 2
REMARK VINA RESULT:      -6.6      4.950      6.679
REMARK  Name = 
REMARK  7 active torsions:
REMARK  status: ('A' for Active; 'I' for Inactive)
REMARK    1  A    between atoms: C_1  and  O_2
REMARK    2  A    between atoms: O_2  and  C_3
REMARK    3  A    between atoms: C_7  and  C_8
REMARK    4  A    between atoms: C_8  and  C_10
REMARK    5  A    between atoms: C_10  and  S_11
REMARK    6  A    between atoms: S_11  and  C_12
REMARK    7  A    between atoms: N_16  and  C_17
REMARK                            x       y       z     vdW  Elec       q    Type
REMARK                         _______ _______ _______ _____ _____    ______ ____
ROOT
ATOM      1  C   UNL     1       6.271   4.782  18.358  0.00  0.00    +0.000 C 
ATOM      2  O   UNL     1       6.761   4.985  19.469  0.00  0.00    +0.000 OA
ENDROOT
BRANCH   1   7
ATOM      3  C   UNL     1       2.727   3.373  18.241  0.00  0.00    +0.000 A 
ATOM      4  C   UNL     1       2.002   4.553  18.059  0.00  0.00    +0.000 A 
ATOM      5  C   UNL     1       2.653   5.784  17.993  0.00  0.00    +0.000 A 
ATOM      6  C   UNL     1       4.041   5.836  18.098  0.00  0.00    +0.000 A 
ATOM      7  C   UNL     1       4.785   4.659  18.266  0.00  0.00    +0.000 A 
ATOM      8  C   UNL     1       4.119   3.428  18.356  0.00  0.00    +0.000 A 
BRANCH   3  10
ATOM      9  C   UNL     1       0.660   2.355  18.848  0.00  0.00    +0.000 C 
ATOM     10  O   UNL     1       1.963   2.239  18.288  0.00  0.00    +0.000 OA
ENDBRANCH   3  10
ENDBRANCH   1   7
BRANCH   1  11
ATOM     11  C   UNL     1       7.098   4.765  17.081  0.00  0.00    +0.000 C 
BRANCH  11  12
ATOM     12  S   UNL     1       6.104   4.123  15.699  0.00  0.00    +0.000 S 
BRANCH  12  13
ATOM     13  C   UNL     1       6.996   4.712  14.349  0.00  0.00    +0.000 A 
ATOM     14  N   UNL     1       7.938   5.627  14.342  0.00  0.00    +0.000 NA
ATOM     15  N   UNL     1       8.323   5.754  13.025  0.00  0.00    +0.000 NA
ATOM     16  N   UNL     1       7.630   4.936  12.241  0.00  0.00    +0.000 NA
ATOM     17  N   UNL     1       6.798   4.280  13.071  0.00  0.00    +0.000 N 
ATOM     18  C   UNL     1       5.878   3.297  12.571  0.00  0.00    +0.000 C 
ENDBRANCH  12  13
ENDBRANCH  11  12
ENDBRANCH   1  11
TORSDOF 5
ENDMDL
MODEL 3
REMARK VINA RESULT:      -6.5      1.127      1.670
REMARK  Name = 
REMARK  7 active torsions:
REMARK  status: ('A' for Active; 'I' for Inactive)
REMARK    1  A    between atoms: C_1  and  O_2
REMARK    2  A    between atoms: O_2  and  C_3
REMARK    3  A    between atoms: C_7  and  C_8
REMARK    4  A    between atoms: C_8  and  C_10
REMARK    5  A    between atoms: C_10  and  S_11
REMARK    6  A    between atoms: S_11  and  C_12
REMARK    7  A    between atoms: N_16  and  C_17
REMARK                            x       y       z     vdW  Elec       q    Type
REMARK                         _______ _______ _______ _____ _____    ______ ____
ROOT
ATOM      1  C   UNL     1       3.084   5.037  17.771  0.00  0.00    +0.000 C 
ATOM      2  O   UNL     1       2.426   5.896  18.357  0.00  0.00    +0.000 OA
ENDROOT
BRANCH   1   7
ATOM      3  C   UNL     1       6.681   5.417  16.556  0.00  0.00    +0.000 A 
ATOM      4  C   UNL     1       7.344   5.504  17.782  0.00  0.00    +0.000 A 
ATOM      5  C   UNL     1       6.633   5.458  18.979  0.00  0.00    +0.000 A 
ATOM      6  C   UNL     1       5.248   5.311  18.953  0.00  0.00    +0.000 A 
ATOM      7  C   UNL     1       4.569   5.207  17.731  0.00  0.00    +0.000 A 
ATOM      8  C   UNL     1       5.291   5.280  16.531  0.00  0.00    +0.000 A 
BRANCH   3  10
ATOM      9  C   UNL     1       7.013   4.905  14.252  0.00  0.00    +0.000 C 
ATOM     10  O   UNL     1       7.500   5.477  15.461  0.00  0.00    +0.000 OA
ENDBRANCH   3  10
ENDBRANCH   1   7
BRANCH   1  11
ATOM     11  C   UNL     1       2.466   3.772  17.196  0.00  0.00    +0.000 C 
BRANCH  11  12
ATOM     12  S   UNL     1       1.640   2.824  18.512  0.00  0.00    +0.000 S 
BRANCH  12  13
ATOM     13  C   UNL     1       2.981   2.405  19.508  0.00  0.00    +0.000 A 
ATOM     14  N   UNL     1       4.111   1.842  19.145  0.00  0.00    +0.000 NA
ATOM     15  N   UNL     1       4.844   1.701  20.304  0.00  0.00    +0.000 NA
ATOM     16  N   UNL     1       4.177   2.165  21.354  0.00  0.00    +0.000 NA
ATOM     17  N   UNL     1       3.008   2.609  20.857  0.00  0.00    +0.000 N 
ATOM     18  C   UNL     1       2.011   3.188  21.713  0.00  0.00    +0.000 C 
ENDBRANCH  12  13
ENDBRANCH  11  12
ENDBRANCH   1  11
TORSDOF 5
ENDMDL
MODEL 4
REMARK VINA RESULT:      -6.4      4.796      6.875
REMARK  Name = 
REMARK  7 active torsions:
REMARK  status: ('A' for Active; 'I' for Inactive)
REMARK    1  A    between atoms: C_1  and  O_2
REMARK    2  A    between atoms: O_2  and  C_3
REMARK    3  A    between atoms: C_7  and  C_8
REMARK    4  A    between atoms: C_8  and  C_10
REMARK    5  A    between atoms: C_10  and  S_11
REMARK    6  A    between atoms: S_11  and  C_12
REMARK    7  A    between atoms: N_16  and  C_17
REMARK                            x       y       z     vdW  Elec       q    Type
REMARK                         _______ _______ _______ _____ _____    ______ ____
ROOT
ATOM      1  C   UNL     1       5.704   4.911  18.155  0.00  0.00    +0.000 C 
ATOM      2  O   UNL     1       6.764   4.686  18.740  0.00  0.00    +0.000 OA
ENDROOT
BRANCH   1   7
ATOM      3  C   UNL     1       2.765   3.526  20.155  0.00  0.00    +0.000 A 
ATOM      4  C   UNL     1       2.049   4.703  20.382  0.00  0.00    +0.000 A 
ATOM      5  C   UNL     1       2.523   5.925  19.910  0.00  0.00    +0.000 A 
ATOM      6  C   UNL     1       3.716   5.971  19.192  0.00  0.00    +0.000 A 
ATOM      7  C   UNL     1       4.438   4.796  18.942  0.00  0.00    +0.000 A 
ATOM      8  C   UNL     1       3.966   3.575  19.444  0.00  0.00    +0.000 A 
BRANCH   3  10
ATOM      9  C   UNL     1       1.395   2.556  21.847  0.00  0.00    +0.000 C 
ATOM     10  O   UNL     1       2.186   2.400  20.674  0.00  0.00    +0.000 OA
ENDBRANCH   3  10
ENDBRANCH   1   7
BRANCH   1  11
ATOM     11  C   UNL     1       5.642   5.404  16.717  0.00  0.00    +0.000 C 
BRANCH  11  12
ATOM     12  S   UNL     1       5.742   3.997  15.567  0.00  0.00    +0.000 S 
BRANCH  12  13
ATOM     13  C   UNL     1       6.803   4.626  14.367  0.00  0.00    +0.000 A 
ATOM     14  N   UNL     1       7.755   5.518  14.519  0.00  0.00    +0.000 NA
ATOM     15  N   UNL     1       8.301   5.696  13.265  0.00  0.00    +0.000 NA
ATOM     16  N   UNL     1       7.694   4.932  12.364  0.00  0.00    +0.000 NA
ATOM     17  N   UNL     1       6.755   4.258  13.054  0.00  0.00    +0.000 N 
ATOM     18  C   UNL     1       5.885   3.322  12.399  0.00  0.00    +0.000 C 
ENDBRANCH  12  13
ENDBRANCH  11  12
ENDBRANCH   1  11
TORSDOF 5
ENDMDL
MODEL 5
REMARK VINA RESULT:      -6.4      4.749      6.786
REMARK  Name = 
REMARK  7 active torsions:
REMARK  status: ('A' for Active; 'I' for Inactive)
REMARK    1  A    between atoms: C_1  and  O_2
REMARK    2  A    between atoms: O_2  and  C_3
REMARK    3  A    between atoms: C_7  and  C_8
REMARK    4  A    between atoms: C_8  and  C_10
REMARK    5  A    between atoms: C_10  and  S_11
REMARK    6  A    between atoms: S_11  and  C_12
REMARK    7  A    between atoms: N_16  and  C_17
REMARK                            x       y       z     vdW  Elec       q    Type
REMARK                         _______ _______ _______ _____ _____    ______ ____
ROOT
ATOM      1  C   UNL     1       5.056   6.194  16.716  0.00  0.00    +0.000 C 
ATOM      2  O   UNL     1       5.008   6.864  15.685  0.00  0.00    +0.000 OA
ENDROOT
BRANCH   1   7
ATOM      3  C   UNL     1       2.782   5.863  19.762  0.00  0.00    +0.000 A 
ATOM      4  C   UNL     1       2.055   7.050  19.653  0.00  0.00    +0.000 A 
ATOM      5  C   UNL     1       2.312   7.949  18.619  0.00  0.00    +0.000 A 
ATOM      6  C   UNL     1       3.296   7.653  17.678  0.00  0.00    +0.000 A 
ATOM      7  C   UNL     1       4.024   6.458  17.764  0.00  0.00    +0.000 A 
ATOM      8  C   UNL     1       3.775   5.573  18.823  0.00  0.00    +0.000 A 
BRANCH   3  10
ATOM      9  C   UNL     1       1.388   4.125  20.609  0.00  0.00    +0.000 C 
ATOM     10  O   UNL     1       2.427   5.075  20.823  0.00  0.00    +0.000 OA
ENDBRANCH   3  10
ENDBRANCH   1   7
BRANCH   1  11
ATOM     11  C   UNL     1       6.037   5.048  16.912  0.00  0.00    +0.000 C 
BRANCH  11  12
ATOM     12  S   UNL     1       5.879   3.848  15.553  0.00  0.00    +0.000 S 
BRANCH  12  13
ATOM     13  C   UNL     1       6.885   4.570  14.357  0.00  0.00    +0.000 A 
ATOM     14  N   UNL     1       7.810   5.487  14.527  0.00  0.00    +0.000 NA
ATOM     15  N   UNL     1       8.314   5.743  13.269  0.00  0.00    +0.000 NA
ATOM     16  N   UNL     1       7.708   5.002  12.349  0.00  0.00    +0.000 NA
ATOM     17  N   UNL     1       6.812   4.264  13.029  0.00  0.00    +0.000 N 
ATOM     18  C   UNL     1       5.956   3.330  12.353  0.00  0.00    +0.000 C 
ENDBRANCH  12  13
ENDBRANCH  11  12
ENDBRANCH   1  11
TORSDOF 5
ENDMDL
MODEL 6
REMARK VINA RESULT:      -6.4      1.196      1.226
REMARK  Name = 
REMARK  7 active torsions:
REMARK  status: ('A' for Active; 'I' for Inactive)
REMARK    1  A    between atoms: C_1  and  O_2
REMARK    2  A    between atoms: O_2  and  C_3
REMARK    3  A    between atoms: C_7  and  C_8
REMARK    4  A    between atoms: C_8  and  C_10
REMARK    5  A    between atoms: C_10  and  S_11
REMARK    6  A    between atoms: S_11  and  C_12
REMARK    7  A    between atoms: N_16  and  C_17
REMARK                            x       y       z     vdW  Elec       q    Type
REMARK                         _______ _______ _______ _____ _____    ______ ____
ROOT
ATOM      1  C   UNL     1       3.591   6.615  17.969  0.00  0.00    +0.000 C 
ATOM      2  O   UNL     1       3.404   7.713  17.445  0.00  0.00    +0.000 OA
ENDROOT
BRANCH   1   7
ATOM      3  C   UNL     1       6.089   4.420  16.097  0.00  0.00    +0.000 A 
ATOM      4  C   UNL     1       7.172   4.480  16.977  0.00  0.00    +0.000 A 
ATOM      5  C   UNL     1       7.097   5.234  18.146  0.00  0.00    +0.000 A 
ATOM      6  C   UNL     1       5.925   5.925  18.447  0.00  0.00    +0.000 A 
ATOM      7  C   UNL     1       4.824   5.862  17.583  0.00  0.00    +0.000 A 
ATOM      8  C   UNL     1       4.918   5.121  16.396  0.00  0.00    +0.000 A 
BRANCH   3  10
ATOM      9  C   UNL     1       6.569   4.318  13.765  0.00  0.00    +0.000 C 
ATOM     10  O   UNL     1       6.299   3.645  14.990  0.00  0.00    +0.000 OA
ENDBRANCH   3  10
ENDBRANCH   1   7
BRANCH   1  11
ATOM     11  C   UNL     1       2.691   6.056  19.060  0.00  0.00    +0.000 C 
BRANCH  11  12
ATOM     12  S   UNL     1       2.087   4.405  18.590  0.00  0.00    +0.000 S 
BRANCH  12  13
ATOM     13  C   UNL     1       2.125   3.594  20.108  0.00  0.00    +0.000 A 
ATOM     14  N   UNL     1       1.206   3.596  21.046  0.00  0.00    +0.000 NA
ATOM     15  N   UNL     1       1.714   2.817  22.064  0.00  0.00    +0.000 NA
ATOM     16  N   UNL     1       2.919   2.352  21.758  0.00  0.00    +0.000 NA
ATOM     17  N   UNL     1       3.178   2.837  20.529  0.00  0.00    +0.000 N 
ATOM     18  C   UNL     1       4.415   2.540  19.862  0.00  0.00    +0.000 C 
ENDBRANCH  12  13
ENDBRANCH  11  12
ENDBRANCH   1  11
TORSDOF 5
ENDMDL
MODEL 7
REMARK VINA RESULT:      -6.4      3.726      5.776
REMARK  Name = 
REMARK  7 active torsions:
REMARK  status: ('A' for Active; 'I' for Inactive)
REMARK    1  A    between atoms: C_1  and  O_2
REMARK    2  A    between atoms: O_2  and  C_3
REMARK    3  A    between atoms: C_7  and  C_8
REMARK    4  A    between atoms: C_8  and  C_10
REMARK    5  A    between atoms: C_10  and  S_11
REMARK    6  A    between atoms: S_11  and  C_12
REMARK    7  A    between atoms: N_16  and  C_17
REMARK                            x       y       z     vdW  Elec       q    Type
REMARK                         _______ _______ _______ _____ _____    ______ ____
ROOT
ATOM      1  C   UNL     1       4.367   4.485  17.015  0.00  0.00    +0.000 C 
ATOM      2  O   UNL     1       4.533   3.265  17.011  0.00  0.00    +0.000 OA
ENDROOT
BRANCH   1   7
ATOM      3  C   UNL     1       2.541   4.958  20.332  0.00  0.00    +0.000 A 
ATOM      4  C   UNL     1       2.134   6.287  20.198  0.00  0.00    +0.000 A 
ATOM      5  C   UNL     1       2.463   7.020  19.059  0.00  0.00    +0.000 A 
ATOM      6  C   UNL     1       3.194   6.416  18.038  0.00  0.00    +0.000 A 
ATOM      7  C   UNL     1       3.597   5.078  18.150  0.00  0.00    +0.000 A 
ATOM      8  C   UNL     1       3.283   4.357  19.311  0.00  0.00    +0.000 A 
BRANCH   3  10
ATOM      9  C   UNL     1       1.790   2.983  21.435  0.00  0.00    +0.000 C 
ATOM     10  O   UNL     1       2.151   4.359  21.498  0.00  0.00    +0.000 OA
ENDBRANCH   3  10
ENDBRANCH   1   7
BRANCH   1  11
ATOM     11  C   UNL     1       5.003   5.408  15.987  0.00  0.00    +0.000 C 
BRANCH  11  12
ATOM     12  S   UNL     1       6.770   5.016  15.800  0.00  0.00    +0.000 S 
BRANCH  12  13
ATOM     13  C   UNL     1       7.338   5.280  17.404  0.00  0.00    +0.000 A 
ATOM     14  N   UNL     1       7.583   4.382  18.331  0.00  0.00    +0.000 NA
ATOM     15  N   UNL     1       7.998   5.093  19.437  0.00  0.00    +0.000 NA
ATOM     16  N   UNL     1       8.003   6.399  19.193  0.00  0.00    +0.000 NA
ATOM     17  N   UNL     1       7.592   6.518  17.917  0.00  0.00    +0.000 N 
ATOM     18  C   UNL     1       7.470   7.807  17.296  0.00  0.00    +0.000 C 
ENDBRANCH  12  13
ENDBRANCH  11  12
ENDBRANCH   1  11
TORSDOF 5
ENDMDL
MODEL 8
REMARK VINA RESULT:      -6.3      1.516      2.328
REMARK  Name = 
REMARK  7 active torsions:
REMARK  status: ('A' for Active; 'I' for Inactive)
REMARK    1  A    between atoms: C_1  and  O_2
REMARK    2  A    between atoms: O_2  and  C_3
REMARK    3  A    between atoms: C_7  and  C_8
REMARK    4  A    between atoms: C_8  and  C_10
REMARK    5  A    between atoms: C_10  and  S_11
REMARK    6  A    between atoms: S_11  and  C_12
REMARK    7  A    between atoms: N_16  and  C_17
REMARK                            x       y       z     vdW  Elec       q    Type
REMARK                         _______ _______ _______ _____ _____    ______ ____
ROOT
ATOM      1  C   UNL     1       2.647   4.985  17.978  0.00  0.00    +0.000 C 
ATOM      2  O   UNL     1       2.372   5.650  18.976  0.00  0.00    +0.000 OA
ENDROOT
BRANCH   1   7
ATOM      3  C   UNL     1       5.970   6.514  16.891  0.00  0.00    +0.000 A 
ATOM      4  C   UNL     1       6.484   5.462  16.130  0.00  0.00    +0.000 A 
ATOM      5  C   UNL     1       5.772   4.273  15.988  0.00  0.00    +0.000 A 
ATOM      6  C   UNL     1       4.529   4.137  16.602  0.00  0.00    +0.000 A 
ATOM      7  C   UNL     1       3.991   5.189  17.356  0.00  0.00    +0.000 A 
ATOM      8  C   UNL     1       4.727   6.372  17.514  0.00  0.00    +0.000 A 
BRANCH   3  10
ATOM      9  C   UNL     1       7.835   7.608  17.893  0.00  0.00    +0.000 C 
ATOM     10  O   UNL     1       6.772   7.621  16.946  0.00  0.00    +0.000 OA
ENDBRANCH   3  10
ENDBRANCH   1   7
BRANCH   1  11
ATOM     11  C   UNL     1       1.733   3.900  17.430  0.00  0.00    +0.000 C 
BRANCH  11  12
ATOM     12  S   UNL     1       1.212   2.784  18.771  0.00  0.00    +0.000 S 
BRANCH  12  13
ATOM     13  C   UNL     1       2.728   2.407  19.494  0.00  0.00    +0.000 A 
ATOM     14  N   UNL     1       3.748   1.781  18.952  0.00  0.00    +0.000 NA
ATOM     15  N   UNL     1       4.709   1.713  19.938  0.00  0.00    +0.000 NA
ATOM     16  N   UNL     1       4.286   2.281  21.061  0.00  0.00    +0.000 NA
ATOM     17  N   UNL     1       3.044   2.720  20.784  0.00  0.00    +0.000 N 
ATOM     18  C   UNL     1       2.259   3.396  21.778  0.00  0.00    +0.000 C 
ENDBRANCH  12  13
ENDBRANCH  11  12
ENDBRANCH   1  11
TORSDOF 5
ENDMDL
MODEL 9
REMARK VINA RESULT:      -6.3      3.749      5.946
REMARK  Name = 
REMARK  7 active torsions:
REMARK  status: ('A' for Active; 'I' for Inactive)
REMARK    1  A    between atoms: C_1  and  O_2
REMARK    2  A    between atoms: O_2  and  C_3
REMARK    3  A    between atoms: C_7  and  C_8
REMARK    4  A    between atoms: C_8  and  C_10
REMARK    5  A    between atoms: C_10  and  S_11
REMARK    6  A    between atoms: S_11  and  C_12
REMARK    7  A    between atoms: N_16  and  C_17
REMARK                            x       y       z     vdW  Elec       q    Type
REMARK                         _______ _______ _______ _____ _____    ______ ____
ROOT
ATOM      1  C   UNL     1       4.314   5.170  16.994  0.00  0.00    +0.000 C 
ATOM      2  O   UNL     1       4.248   6.392  17.133  0.00  0.00    +0.000 OA
ENDROOT
BRANCH   1   7
ATOM      3  C   UNL     1       2.328   3.782  19.940  0.00  0.00    +0.000 A 
ATOM      4  C   UNL     1       1.752   2.661  19.339  0.00  0.00    +0.000 A 
ATOM      5  C   UNL     1       1.992   2.373  17.997  0.00  0.00    +0.000 A 
ATOM      6  C   UNL     1       2.824   3.204  17.251  0.00  0.00    +0.000 A 
ATOM      7  C   UNL     1       3.422   4.326  17.844  0.00  0.00    +0.000 A 
ATOM      8  C   UNL     1       3.154   4.621  19.189  0.00  0.00    +0.000 A 
BRANCH   3  10
ATOM      9  C   UNL     1       1.601   2.787  21.980  0.00  0.00    +0.000 C 
ATOM     10  O   UNL     1       2.008   3.945  21.261  0.00  0.00    +0.000 OA
ENDBRANCH   3  10
ENDBRANCH   1   7
BRANCH   1  11
ATOM     11  C   UNL     1       5.172   4.506  15.928  0.00  0.00    +0.000 C 
BRANCH  11  12
ATOM     12  S   UNL     1       6.715   5.441  15.691  0.00  0.00    +0.000 S 
BRANCH  12  13
ATOM     13  C   UNL     1       7.328   5.479  17.300  0.00  0.00    +0.000 A 
ATOM     14  N   UNL     1       7.568   4.462  18.096  0.00  0.00    +0.000 NA
ATOM     15  N   UNL     1       8.030   5.012  19.272  0.00  0.00    +0.000 NA
ATOM     16  N   UNL     1       8.069   6.338  19.200  0.00  0.00    +0.000 NA
ATOM     17  N   UNL     1       7.630   6.633  17.962  0.00  0.00    +0.000 N 
ATOM     18  C   UNL     1       7.532   7.994  17.516  0.00  0.00    +0.000 C 
ENDBRANCH  12  13
ENDBRANCH  11  12
ENDBRANCH   1  11
TORSDOF 5
ENDMDL
