MODEL 1
REMARK VINA RESULT:      -7.1      0.000      0.000
REMARK  Name = 
REMARK  8 active torsions:
REMARK  status: ('A' for Active; 'I' for Inactive)
REMARK    1  A    between atoms: C_1  and  C_2
REMARK    2  A    between atoms: C_2  and  O_3
REMARK    3  A    between atoms: O_3  and  C_4
REMARK    4  A    between atoms: C_9  and  N_10
REMARK    5  A    between atoms: C_11  and  C_13
REMARK    6  A    between atoms: C_13  and  C_14
REMARK    7  A    between atoms: C_14  and  C_15
REMARK    8  A    between atoms: C_18  and  C_19
REMARK                            x       y       z     vdW  Elec       q    Type
REMARK                         _______ _______ _______ _____ _____    ______ ____
ROOT
ATOM      1  N   UNL     1       5.002   3.902  18.439  0.00  0.00    +0.000 N 
ATOM      2  C   UNL     1       6.104   4.649  18.831  0.00  0.00    +0.000 C 
ATOM      3  O   UNL     1       6.208   5.248  19.899  0.00  0.00    +0.000 OA
ATOM      4  H   UNL     1       5.129   3.212  17.716  0.00  0.00    +0.000 HD
ENDROOT
BRANCH   1  10
ATOM      5  C   UNL     1       2.731   4.629  19.030  0.00  0.00    +0.000 A 
ATOM      6  C   UNL     1       1.629   4.521  19.891  0.00  0.00    +0.000 A 
ATOM      7  C   UNL     1       1.619   3.599  20.937  0.00  0.00    +0.000 A 
ATOM      8  C   UNL     1       2.719   2.774  21.139  0.00  0.00    +0.000 A 
ATOM      9  C   UNL     1       3.817   2.861  20.281  0.00  0.00    +0.000 A 
ATOM     10  C   UNL     1       3.836   3.785  19.227  0.00  0.00    +0.000 A 
BRANCH   5  11
ATOM     11  O   UNL     1       2.594   5.601  18.073  0.00  0.00    +0.000 OA
BRANCH  11  13
ATOM     12  C   UNL     1       3.915   7.492  17.429  0.00  0.00    +0.000 C 
ATOM     13  C   UNL     1       2.930   6.938  18.443  0.00  0.00    +0.000 C 
ENDBRANCH  11  13
ENDBRANCH   5  11
ENDBRANCH   1  10
BRANCH   2  14
ATOM     14  C   UNL     1       7.256   4.599  17.857  0.00  0.00    +0.000 C 
BRANCH  14  15
ATOM     15  C   UNL     1       7.115   5.615  16.733  0.00  0.00    +0.000 C 
BRANCH  15  16
ATOM     16  C   UNL     1       6.743   4.983  15.442  0.00  0.00    +0.000 A 
ATOM     17  C   UNL     1       5.845   3.999  15.086  0.00  0.00    +0.000 A 
ATOM     18  C   UNL     1       5.990   3.816  13.689  0.00  0.00    +0.000 A 
ATOM     19  C   UNL     1       6.956   4.708  13.279  0.00  0.00    +0.000 A 
ATOM     20  C   UNL     1       7.561   5.021  11.970  0.00  0.00    +0.000 C 
ATOM     21  O   UNL     1       7.417   5.422  14.343  0.00  0.00    +0.000 OA
ENDBRANCH  15  16
ENDBRANCH  14  15
ENDBRANCH   2  14
TORSDOF 6
ENDMDL
MODEL 2
REMARK VINA RESULT:      -7.0      1.467      1.744
REMARK  Name = 
REMARK  8 active torsions:
REMARK  status: ('A' for Active; 'I' for Inactive)
REMARK    1  A    between atoms: C_1  and  C_2
REMARK    2  A    between atoms: C_2  and  O_3
REMARK    3  A    between atoms: O_3  and  C_4
REMARK    4  A    between atoms: C_9  and  N_10
REMARK    5  A    between atoms: C_11  and  C_13
REMARK    6  A    between atoms: C_13  and  C_14
REMARK    7  A    between atoms: C_14  and  C_15
REMARK    8  A    between atoms: C_18  and  C_19
REMARK                            x       y       z     vdW  Elec       q    Type
REMARK                         _______ _______ _______ _____ _____    ______ ____
ROOT
ATOM      1  N   UNL     1       3.989   4.271  17.760  0.00  0.00    +0.000 N 
ATOM      2  C   UNL     1       5.349   4.233  18.036  0.00  0.00    +0.000 C 
ATOM      3  O   UNL     1       5.841   3.976  19.133  0.00  0.00    +0.000 OA
ATOM      4  H   UNL     1       3.697   4.179  16.800  0.00  0.00    +0.000 HD
ENDROOT
BRANCH   1  10
ATOM      5  C   UNL     1       2.622   5.074  19.635  0.00  0.00    +0.000 A 
ATOM      6  C   UNL     1       1.691   4.787  20.644  0.00  0.00    +0.000 A 
ATOM      7  C   UNL     1       1.148   3.509  20.780  0.00  0.00    +0.000 A 
ATOM      8  C   UNL     1       1.535   2.499  19.907  0.00  0.00    +0.000 A 
ATOM      9  C   UNL     1       2.450   2.776  18.889  0.00  0.00    +0.000 A 
ATOM     10  C   UNL     1       3.001   4.057  18.745  0.00  0.00    +0.000 A 
BRANCH   5  11
ATOM     11  O   UNL     1       3.079   6.367  19.655  0.00  0.00    +0.000 OA
BRANCH  11  13
ATOM     12  C   UNL     1       3.087   7.787  17.727  0.00  0.00    +0.000 C 
ATOM     13  C   UNL     1       2.311   7.346  18.955  0.00  0.00    +0.000 C 
ENDBRANCH  11  13
ENDBRANCH   5  11
ENDBRANCH   1  10
BRANCH   2  14
ATOM     14  C   UNL     1       6.226   4.444  16.825  0.00  0.00    +0.000 C 
BRANCH  14  15
ATOM     15  C   UNL     1       5.485   5.115  15.678  0.00  0.00    +0.000 C 
BRANCH  15  16
ATOM     16  C   UNL     1       5.864   4.557  14.355  0.00  0.00    +0.000 A 
ATOM     17  C   UNL     1       7.061   4.430  13.682  0.00  0.00    +0.000 A 
ATOM     18  C   UNL     1       6.752   3.842  12.431  0.00  0.00    +0.000 A 
ATOM     19  C   UNL     1       5.391   3.635  12.425  0.00  0.00    +0.000 A 
ATOM     20  C   UNL     1       4.454   3.065  11.438  0.00  0.00    +0.000 C 
ATOM     21  O   UNL     1       4.845   4.068  13.595  0.00  0.00    +0.000 OA
ENDBRANCH  15  16
ENDBRANCH  14  15
ENDBRANCH   2  14
TORSDOF 6
ENDMDL
MODEL 3
REMARK VINA RESULT:      -6.9      2.955      5.405
REMARK  Name = 
REMARK  8 active torsions:
REMARK  status: ('A' for Active; 'I' for Inactive)
REMARK    1  A    between atoms: C_1  and  C_2
REMARK    2  A    between atoms: C_2  and  O_3
REMARK    3  A    between atoms: O_3  and  C_4
REMARK    4  A    between atoms: C_9  and  N_10
REMARK    5  A    between atoms: C_11  and  C_13
REMARK    6  A    between atoms: C_13  and  C_14
REMARK    7  A    between atoms: C_14  and  C_15
REMARK    8  A    between atoms: C_18  and  C_19
REMARK                            x       y       z     vdW  Elec       q    Type
REMARK                         _______ _______ _______ _____ _____    ______ ____
ROOT
ATOM      1  N   UNL     1       2.560   5.715  20.702  0.00  0.00    +0.000 N 
ATOM      2  C   UNL     1       1.646   4.674  20.801  0.00  0.00    +0.000 C 
ATOM      3  O   UNL     1       0.584   4.606  20.187  0.00  0.00    +0.000 OA
ATOM      4  H   UNL     1       3.511   5.541  20.986  0.00  0.00    +0.000 HD
ENDROOT
BRANCH   1  10
ATOM      5  C   UNL     1       1.614   7.959  20.379  0.00  0.00    +0.000 A 
ATOM      6  C   UNL     1       1.357   9.033  19.515  0.00  0.00    +0.000 A 
ATOM      7  C   UNL     1       1.800   9.017  18.193  0.00  0.00    +0.000 A 
ATOM      8  C   UNL     1       2.505   7.917  17.716  0.00  0.00    +0.000 A 
ATOM      9  C   UNL     1       2.779   6.847  18.569  0.00  0.00    +0.000 A 
ATOM     10  C   UNL     1       2.338   6.856  19.899  0.00  0.00    +0.000 A 
BRANCH   5  11
ATOM     11  O   UNL     1       1.087   8.119  21.635  0.00  0.00    +0.000 OA
BRANCH  11  13
ATOM     12  C   UNL     1      -0.192   9.566  23.051  0.00  0.00    +0.000 C 
ATOM     13  C   UNL     1      -0.162   8.802  21.740  0.00  0.00    +0.000 C 
ENDBRANCH  11  13
ENDBRANCH   5  11
ENDBRANCH   1  10
BRANCH   2  14
ATOM     14  C   UNL     1       2.107   3.536  21.679  0.00  0.00    +0.000 C 
BRANCH  14  15
ATOM     15  C   UNL     1       3.221   2.720  21.039  0.00  0.00    +0.000 C 
BRANCH  15  16
ATOM     16  C   UNL     1       3.113   2.675  19.559  0.00  0.00    +0.000 A 
ATOM     17  C   UNL     1       2.337   1.947  18.682  0.00  0.00    +0.000 A 
ATOM     18  C   UNL     1       2.735   2.339  17.381  0.00  0.00    +0.000 A 
ATOM     19  C   UNL     1       3.717   3.290  17.545  0.00  0.00    +0.000 A 
ATOM     20  C   UNL     1       4.530   4.086  16.605  0.00  0.00    +0.000 C 
ATOM     21  O   UNL     1       3.950   3.499  18.871  0.00  0.00    +0.000 OA
ENDBRANCH  15  16
ENDBRANCH  14  15
ENDBRANCH   2  14
TORSDOF 6
ENDMDL
MODEL 4
REMARK VINA RESULT:      -6.9      1.806      6.092
REMARK  Name = 
REMARK  8 active torsions:
REMARK  status: ('A' for Active; 'I' for Inactive)
REMARK    1  A    between atoms: C_1  and  C_2
REMARK    2  A    between atoms: C_2  and  O_3
REMARK    3  A    between atoms: O_3  and  C_4
REMARK    4  A    between atoms: C_9  and  N_10
REMARK    5  A    between atoms: C_11  and  C_13
REMARK    6  A    between atoms: C_13  and  C_14
REMARK    7  A    between atoms: C_14  and  C_15
REMARK    8  A    between atoms: C_18  and  C_19
REMARK                            x       y       z     vdW  Elec       q    Type
REMARK                         _______ _______ _______ _____ _____    ______ ____
ROOT
ATOM      1  N   UNL     1       3.841   3.732  17.485  0.00  0.00    +0.000 N 
ATOM      2  C   UNL     1       3.461   2.492  17.981  0.00  0.00    +0.000 C 
ATOM      3  O   UNL     1       4.150   1.781  18.709  0.00  0.00    +0.000 OA
ATOM      4  H   UNL     1       3.119   4.360  17.171  0.00  0.00    +0.000 HD
ENDROOT
BRANCH   1  10
ATOM      5  C   UNL     1       6.160   4.181  16.811  0.00  0.00    +0.000 A 
ATOM      6  C   UNL     1       7.421   4.698  17.142  0.00  0.00    +0.000 A 
ATOM      7  C   UNL     1       7.646   5.319  18.371  0.00  0.00    +0.000 A 
ATOM      8  C   UNL     1       6.607   5.425  19.289  0.00  0.00    +0.000 A 
ATOM      9  C   UNL     1       5.344   4.926  18.967  0.00  0.00    +0.000 A 
ATOM     10  C   UNL     1       5.109   4.301  17.734  0.00  0.00    +0.000 A 
BRANCH   5  11
ATOM     11  O   UNL     1       6.114   3.579  15.580  0.00  0.00    +0.000 OA
BRANCH  11  13
ATOM     12  C   UNL     1       6.208   3.752  13.193  0.00  0.00    +0.000 C 
ATOM     13  C   UNL     1       5.688   4.376  14.476  0.00  0.00    +0.000 C 
ENDBRANCH  11  13
ENDBRANCH   5  11
ENDBRANCH   1  10
BRANCH   2  14
ATOM     14  C   UNL     1       2.047   2.099  17.629  0.00  0.00    +0.000 C 
BRANCH  14  15
ATOM     15  C   UNL     1       1.073   2.340  18.773  0.00  0.00    +0.000 C 
BRANCH  15  16
ATOM     16  C   UNL     1       1.523   3.425  19.682  0.00  0.00    +0.000 A 
ATOM     17  C   UNL     1       1.839   3.475  21.022  0.00  0.00    +0.000 A 
ATOM     18  C   UNL     1       2.165   4.824  21.304  0.00  0.00    +0.000 A 
ATOM     19  C   UNL     1       2.039   5.509  20.116  0.00  0.00    +0.000 A 
ATOM     20  C   UNL     1       2.235   6.920  19.730  0.00  0.00    +0.000 C 
ATOM     21  O   UNL     1       1.650   4.661  19.124  0.00  0.00    +0.000 OA
ENDBRANCH  15  16
ENDBRANCH  14  15
ENDBRANCH   2  14
TORSDOF 6
ENDMDL
MODEL 5
REMARK VINA RESULT:      -6.8      1.498      1.865
REMARK  Name = 
REMARK  8 active torsions:
REMARK  status: ('A' for Active; 'I' for Inactive)
REMARK    1  A    between atoms: C_1  and  C_2
REMARK    2  A    between atoms: C_2  and  O_3
REMARK    3  A    between atoms: O_3  and  C_4
REMARK    4  A    between atoms: C_9  and  N_10
REMARK    5  A    between atoms: C_11  and  C_13
REMARK    6  A    between atoms: C_13  and  C_14
REMARK    7  A    between atoms: C_14  and  C_15
REMARK    8  A    between atoms: C_18  and  C_19
REMARK                            x       y       z     vdW  Elec       q    Type
REMARK                         _______ _______ _______ _____ _____    ______ ____
ROOT
ATOM      1  N   UNL     1       4.504   4.530  18.784  0.00  0.00    +0.000 N 
ATOM      2  C   UNL     1       4.770   5.631  17.981  0.00  0.00    +0.000 C 
ATOM      3  O   UNL     1       3.925   6.272  17.359  0.00  0.00    +0.000 OA
ATOM      4  H   UNL     1       5.186   4.274  19.480  0.00  0.00    +0.000 HD
ENDROOT
BRANCH   1  10
ATOM      5  C   UNL     1       2.309   4.504  19.885  0.00  0.00    +0.000 A 
ATOM      6  C   UNL     1       1.063   3.882  20.052  0.00  0.00    +0.000 A 
ATOM      7  C   UNL     1       0.713   2.760  19.302  0.00  0.00    +0.000 A 
ATOM      8  C   UNL     1       1.611   2.243  18.374  0.00  0.00    +0.000 A 
ATOM      9  C   UNL     1       2.848   2.861  18.189  0.00  0.00    +0.000 A 
ATOM     10  C   UNL     1       3.209   3.989  18.939  0.00  0.00    +0.000 A 
BRANCH   5  11
ATOM     11  O   UNL     1       2.508   5.576  20.718  0.00  0.00    +0.000 OA
BRANCH  11  13
ATOM     12  C   UNL     1       1.983   7.794  19.981  0.00  0.00    +0.000 C 
ATOM     13  C   UNL     1       1.494   6.579  20.750  0.00  0.00    +0.000 C 
ENDBRANCH  11  13
ENDBRANCH   5  11
ENDBRANCH   1  10
BRANCH   2  14
ATOM     14  C   UNL     1       6.215   6.067  17.997  0.00  0.00    +0.000 C 
BRANCH  14  15
ATOM     15  C   UNL     1       7.152   4.999  17.452  0.00  0.00    +0.000 C 
BRANCH  15  16
ATOM     16  C   UNL     1       6.865   4.663  16.034  0.00  0.00    +0.000 A 
ATOM     17  C   UNL     1       5.987   3.796  15.419  0.00  0.00    +0.000 A 
ATOM     18  C   UNL     1       6.226   3.910  14.028  0.00  0.00    +0.000 A 
ATOM     19  C   UNL     1       7.223   4.848  13.881  0.00  0.00    +0.000 A 
ATOM     20  C   UNL     1       7.918   5.419  12.711  0.00  0.00    +0.000 C 
ATOM     21  O   UNL     1       7.615   5.311  15.100  0.00  0.00    +0.000 OA
ENDBRANCH  15  16
ENDBRANCH  14  15
ENDBRANCH   2  14
TORSDOF 6
ENDMDL
MODEL 6
REMARK VINA RESULT:      -6.8      2.058      3.205
REMARK  Name = 
REMARK  8 active torsions:
REMARK  status: ('A' for Active; 'I' for Inactive)
REMARK    1  A    between atoms: C_1  and  C_2
REMARK    2  A    between atoms: C_2  and  O_3
REMARK    3  A    between atoms: O_3  and  C_4
REMARK    4  A    between atoms: C_9  and  N_10
REMARK    5  A    between atoms: C_11  and  C_13
REMARK    6  A    between atoms: C_13  and  C_14
REMARK    7  A    between atoms: C_14  and  C_15
REMARK    8  A    between atoms: C_18  and  C_19
REMARK                            x       y       z     vdW  Elec       q    Type
REMARK                         _______ _______ _______ _____ _____    ______ ____
ROOT
ATOM      1  N   UNL     1       4.536   4.120  18.456  0.00  0.00    +0.000 N 
ATOM      2  C   UNL     1       4.393   3.874  17.097  0.00  0.00    +0.000 C 
ATOM      3  O   UNL     1       3.354   3.514  16.549  0.00  0.00    +0.000 OA
ATOM      4  H   UNL     1       5.306   4.695  18.756  0.00  0.00    +0.000 HD
ENDROOT
BRANCH   1  10
ATOM      5  C   UNL     1       2.506   4.920  19.584  0.00  0.00    +0.000 A 
ATOM      6  C   UNL     1       1.530   4.719  20.570  0.00  0.00    +0.000 A 
ATOM      7  C   UNL     1       1.525   3.566  21.355  0.00  0.00    +0.000 A 
ATOM      8  C   UNL     1       2.505   2.598  21.163  0.00  0.00    +0.000 A 
ATOM      9  C   UNL     1       3.474   2.780  20.175  0.00  0.00    +0.000 A 
ATOM     10  C   UNL     1       3.486   3.935  19.382  0.00  0.00    +0.000 A 
BRANCH   5  11
ATOM     11  O   UNL     1       2.386   6.115  18.922  0.00  0.00    +0.000 OA
BRANCH  11  13
ATOM     12  C   UNL     1       1.940   8.464  18.786  0.00  0.00    +0.000 C 
ATOM     13  C   UNL     1       2.173   7.284  19.712  0.00  0.00    +0.000 C 
ENDBRANCH  11  13
ENDBRANCH   5  11
ENDBRANCH   1  10
BRANCH   2  14
ATOM     14  C   UNL     1       5.629   4.182  16.286  0.00  0.00    +0.000 C 
BRANCH  14  15
ATOM     15  C   UNL     1       5.824   5.674  16.064  0.00  0.00    +0.000 C 
BRANCH  15  16
ATOM     16  C   UNL     1       6.778   6.271  17.034  0.00  0.00    +0.000 A 
ATOM     17  C   UNL     1       7.501   5.766  18.093  0.00  0.00    +0.000 A 
ATOM     18  C   UNL     1       8.204   6.861  18.652  0.00  0.00    +0.000 A 
ATOM     19  C   UNL     1       7.876   7.961  17.891  0.00  0.00    +0.000 A 
ATOM     20  C   UNL     1       8.265   9.384  17.941  0.00  0.00    +0.000 C 
ATOM     21  O   UNL     1       7.008   7.607  16.903  0.00  0.00    +0.000 OA
ENDBRANCH  15  16
ENDBRANCH  14  15
ENDBRANCH   2  14
TORSDOF 6
ENDMDL
MODEL 7
REMARK VINA RESULT:      -6.8      1.419      1.728
REMARK  Name = 
REMARK  8 active torsions:
REMARK  status: ('A' for Active; 'I' for Inactive)
REMARK    1  A    between atoms: C_1  and  C_2
REMARK    2  A    between atoms: C_2  and  O_3
REMARK    3  A    between atoms: O_3  and  C_4
REMARK    4  A    between atoms: C_9  and  N_10
REMARK    5  A    between atoms: C_11  and  C_13
REMARK    6  A    between atoms: C_13  and  C_14
REMARK    7  A    between atoms: C_14  and  C_15
REMARK    8  A    between atoms: C_18  and  C_19
REMARK                            x       y       z     vdW  Elec       q    Type
REMARK                         _______ _______ _______ _____ _____    ______ ____
ROOT
ATOM      1  N   UNL     1       4.280   3.718  17.191  0.00  0.00    +0.000 N 
ATOM      2  C   UNL     1       5.503   4.138  17.697  0.00  0.00    +0.000 C 
ATOM      3  O   UNL     1       5.777   4.235  18.891  0.00  0.00    +0.000 OA
ATOM      4  H   UNL     1       4.251   3.378  16.243  0.00  0.00    +0.000 HD
ENDROOT
BRANCH   1  10
ATOM      5  C   UNL     1       2.202   4.345  18.340  0.00  0.00    +0.000 A 
ATOM      6  C   UNL     1       1.172   3.991  19.224  0.00  0.00    +0.000 A 
ATOM      7  C   UNL     1       1.113   2.716  19.786  0.00  0.00    +0.000 A 
ATOM      8  C   UNL     1       2.091   1.778  19.473  0.00  0.00    +0.000 A 
ATOM      9  C   UNL     1       3.113   2.114  18.584  0.00  0.00    +0.000 A 
ATOM     10  C   UNL     1       3.180   3.392  18.014  0.00  0.00    +0.000 A 
BRANCH   5  11
ATOM     11  O   UNL     1       2.132   5.642  17.899  0.00  0.00    +0.000 OA
BRANCH  11  13
ATOM     12  C   UNL     1       3.708   7.431  17.672  0.00  0.00    +0.000 C 
ATOM     13  C   UNL     1       2.856   6.626  18.637  0.00  0.00    +0.000 C 
ENDBRANCH  11  13
ENDBRANCH   5  11
ENDBRANCH   1  10
BRANCH   2  14
ATOM     14  C   UNL     1       6.551   4.390  16.640  0.00  0.00    +0.000 C 
BRANCH  14  15
ATOM     15  C   UNL     1       6.032   5.252  15.499  0.00  0.00    +0.000 C 
BRANCH  15  16
ATOM     16  C   UNL     1       6.420   4.723  14.166  0.00  0.00    +0.000 A 
ATOM     17  C   UNL     1       7.456   4.996  13.298  0.00  0.00    +0.000 A 
ATOM     18  C   UNL     1       7.248   4.176  12.162  0.00  0.00    +0.000 A 
ATOM     19  C   UNL     1       6.107   3.446  12.415  0.00  0.00    +0.000 A 
ATOM     20  C   UNL     1       5.364   2.426  11.651  0.00  0.00    +0.000 C 
ATOM     21  O   UNL     1       5.600   3.775  13.635  0.00  0.00    +0.000 OA
ENDBRANCH  15  16
ENDBRANCH  14  15
ENDBRANCH   2  14
TORSDOF 6
ENDMDL
MODEL 8
REMARK VINA RESULT:      -6.8      1.350      1.549
REMARK  Name = 
REMARK  8 active torsions:
REMARK  status: ('A' for Active; 'I' for Inactive)
REMARK    1  A    between atoms: C_1  and  C_2
REMARK    2  A    between atoms: C_2  and  O_3
REMARK    3  A    between atoms: O_3  and  C_4
REMARK    4  A    between atoms: C_9  and  N_10
REMARK    5  A    between atoms: C_11  and  C_13
REMARK    6  A    between atoms: C_13  and  C_14
REMARK    7  A    between atoms: C_14  and  C_15
REMARK    8  A    between atoms: C_18  and  C_19
REMARK                            x       y       z     vdW  Elec       q    Type
REMARK                         _______ _______ _______ _____ _____    ______ ____
ROOT
ATOM      1  N   UNL     1       4.147   4.986  18.195  0.00  0.00    +0.000 N 
ATOM      2  C   UNL     1       5.345   5.377  18.777  0.00  0.00    +0.000 C 
ATOM      3  O   UNL     1       5.617   5.270  19.971  0.00  0.00    +0.000 OA
ATOM      4  H   UNL     1       4.134   4.822  17.201  0.00  0.00    +0.000 HD
ENDROOT
BRANCH   1  10
ATOM      5  C   UNL     1       2.250   5.270  19.729  0.00  0.00    +0.000 A 
ATOM      6  C   UNL     1       1.244   4.679  20.508  0.00  0.00    +0.000 A 
ATOM      7  C   UNL     1       1.056   3.297  20.512  0.00  0.00    +0.000 A 
ATOM      8  C   UNL     1       1.879   2.487  19.738  0.00  0.00    +0.000 A 
ATOM      9  C   UNL     1       2.874   3.064  18.948  0.00  0.00    +0.000 A 
ATOM     10  C   UNL     1       3.071   4.451  18.938  0.00  0.00    +0.000 A 
BRANCH   5  11
ATOM     11  O   UNL     1       2.321   6.634  19.859  0.00  0.00    +0.000 OA
BRANCH  11  13
ATOM     12  C   UNL     1       1.270   8.655  20.599  0.00  0.00    +0.000 C 
ATOM     13  C   UNL     1       1.631   7.225  20.959  0.00  0.00    +0.000 C 
ENDBRANCH  11  13
ENDBRANCH   5  11
ENDBRANCH   1  10
BRANCH   2  14
ATOM     14  C   UNL     1       6.372   5.877  17.791  0.00  0.00    +0.000 C 
BRANCH  14  15
ATOM     15  C   UNL     1       7.196   4.751  17.185  0.00  0.00    +0.000 C 
BRANCH  15  16
ATOM     16  C   UNL     1       6.868   4.513  15.756  0.00  0.00    +0.000 A 
ATOM     17  C   UNL     1       5.955   3.706  15.110  0.00  0.00    +0.000 A 
ATOM     18  C   UNL     1       6.163   3.904  13.723  0.00  0.00    +0.000 A 
ATOM     19  C   UNL     1       7.179   4.827  13.611  0.00  0.00    +0.000 A 
ATOM     20  C   UNL     1       7.860   5.455  12.462  0.00  0.00    +0.000 C 
ATOM     21  O   UNL     1       7.611   5.201  14.847  0.00  0.00    +0.000 OA
ENDBRANCH  15  16
ENDBRANCH  14  15
ENDBRANCH   2  14
TORSDOF 6
ENDMDL
MODEL 9
REMARK VINA RESULT:      -6.8      2.678      5.144
REMARK  Name = 
REMARK  8 active torsions:
REMARK  status: ('A' for Active; 'I' for Inactive)
REMARK    1  A    between atoms: C_1  and  C_2
REMARK    2  A    between atoms: C_2  and  O_3
REMARK    3  A    between atoms: O_3  and  C_4
REMARK    4  A    between atoms: C_9  and  N_10
REMARK    5  A    between atoms: C_11  and  C_13
REMARK    6  A    between atoms: C_13  and  C_14
REMARK    7  A    between atoms: C_14  and  C_15
REMARK    8  A    between atoms: C_18  and  C_19
REMARK                            x       y       z     vdW  Elec       q    Type
REMARK                         _______ _______ _______ _____ _____    ______ ____
ROOT
ATOM      1  N   UNL     1       2.756   5.929  20.369  0.00  0.00    +0.000 N 
ATOM      2  C   UNL     1       2.070   4.730  20.227  0.00  0.00    +0.000 C 
ATOM      3  O   UNL     1       1.111   4.549  19.481  0.00  0.00    +0.000 OA
ATOM      4  H   UNL     1       3.689   5.900  20.748  0.00  0.00    +0.000 HD
ENDROOT
BRANCH   1  10
ATOM      5  C   UNL     1       1.581   8.084  20.291  0.00  0.00    +0.000 A 
ATOM      6  C   UNL     1       1.181   9.200  19.541  0.00  0.00    +0.000 A 
ATOM      7  C   UNL     1       1.563   9.347  18.208  0.00  0.00    +0.000 A 
ATOM      8  C   UNL     1       2.350   8.372  17.605  0.00  0.00    +0.000 A 
ATOM      9  C   UNL     1       2.767   7.264  18.344  0.00  0.00    +0.000 A 
ATOM     10  C   UNL     1       2.388   7.108  19.684  0.00  0.00    +0.000 A 
BRANCH   5  11
ATOM     11  O   UNL     1       1.098   8.077  21.574  0.00  0.00    +0.000 OA
BRANCH  11  13
ATOM     12  C   UNL     1      -0.079   9.486  23.112  0.00  0.00    +0.000 C 
ATOM     13  C   UNL     1      -0.157   8.716  21.806  0.00  0.00    +0.000 C 
ENDBRANCH  11  13
ENDBRANCH   5  11
ENDBRANCH   1  10
BRANCH   2  14
ATOM     14  C   UNL     1       2.664   3.588  21.016  0.00  0.00    +0.000 C 
BRANCH  14  15
ATOM     15  C   UNL     1       3.430   2.609  20.139  0.00  0.00    +0.000 C 
BRANCH  15  16
ATOM     16  C   UNL     1       4.193   3.290  19.062  0.00  0.00    +0.000 A 
ATOM     17  C   UNL     1       4.059   3.350  17.691  0.00  0.00    +0.000 A 
ATOM     18  C   UNL     1       5.135   4.142  17.222  0.00  0.00    +0.000 A 
ATOM     19  C   UNL     1       5.849   4.525  18.335  0.00  0.00    +0.000 A 
ATOM     20  C   UNL     1       7.059   5.346  18.534  0.00  0.00    +0.000 C 
ATOM     21  O   UNL     1       5.278   4.010  19.459  0.00  0.00    +0.000 OA
ENDBRANCH  15  16
ENDBRANCH  14  15
ENDBRANCH   2  14
TORSDOF 6
ENDMDL
