MODEL 1
REMARK VINA RESULT:      -8.1      0.000      0.000
REMARK  Name = 
REMARK  18 active torsions:
REMARK  status: ('A' for Active; 'I' for Inactive)
REMARK    1  A    between atoms: C_1  and  C_2
REMARK    2  A    between atoms: C_2  and  C_3
REMARK    3  A    between atoms: C_3  and  C_4
REMARK    4  A    between atoms: C_4  and  C_5
REMARK    5  A    between atoms: C_5  and  C_6
REMARK    6  A    between atoms: C_6  and  C_7
REMARK    7  A    between atoms: C_7  and  C_8
REMARK    8  A    between atoms: C_8  and  C_9
REMARK    9  A    between atoms: C_9  and  C_10
REMARK   10  A    between atoms: C_10  and  C_11
REMARK   11  A    between atoms: C_11  and  C_12
REMARK   12  A    between atoms: C_21  and  C_22
REMARK   13  A    between atoms: C_22  and  O_24
REMARK   14  A    between atoms: O_24  and  C_25
REMARK   15  A    between atoms: C_25  and  C_26
REMARK   16  A    between atoms: C_26  and  C_27
REMARK   17  A    between atoms: C_27  and  C_28
REMARK   18  A    between atoms: C_28  and  N_29
REMARK                            x       y       z     vdW  Elec       q    Type
REMARK                         _______ _______ _______ _____ _____    ______ ____
ROOT
ATOM      1  C   UNL     1       5.044   5.156  19.236  0.00  0.00    +0.000 C 
ATOM      2  N   UNL     1       5.342   3.777  19.602  0.00  0.00    +0.000 NA
ATOM      3  C   UNL     1       4.534   2.771  19.463  0.00  0.00    +0.000 C 
ATOM      4  N   UNL     1       4.974   1.457  19.736  0.00  0.00    +0.000 N 
ATOM      5  N   UNL     1       3.211   3.015  19.005  0.00  0.00    +0.000 N 
ATOM      6  C   UNL     1       2.127   2.066  18.972  0.00  0.00    +0.000 C 
ATOM      7  C   UNL     1       0.908   2.957  18.703  0.00  0.00    +0.000 C 
ATOM      8  C   UNL     1       1.441   4.156  17.930  0.00  0.00    +0.000 C 
ATOM      9  C   UNL     1       2.824   4.245  18.503  0.00  0.00    +0.000 C 
ATOM     10  C   UNL     1       3.634   5.337  18.582  0.00  0.00    +0.000 C 
ATOM     11  H   UNL     1       5.962   1.277  19.976  0.00  0.00    +0.000 HD
ATOM     12  H   UNL     1       4.354   0.652  19.581  0.00  0.00    +0.000 HD
ENDROOT
BRANCH  10  13
ATOM     13  C   UNL     1       3.126   6.649  18.118  0.00  0.00    +0.000 C 
ATOM     14  O   UNL     1       3.631   7.221  17.158  0.00  0.00    +0.000 OA
BRANCH  13  15
ATOM     15  O   UNL     1       2.078   7.228  18.766  0.00  0.00    +0.000 OA
BRANCH  15  16
ATOM     16  C   UNL     1       2.052   8.564  19.087  0.00  0.00    +0.000 C 
BRANCH  16  17
ATOM     17  C   UNL     1       1.345   9.403  18.020  0.00  0.00    +0.000 C 
BRANCH  17  18
ATOM     18  C   UNL     1       0.836  10.729  18.613  0.00  0.00    +0.000 C 
BRANCH  18  19
ATOM     19  C   UNL     1      -0.686  10.707  18.778  0.00  0.00    +0.000 C 
BRANCH  19  20
ATOM     20  N   UNL     1      -1.339   9.955  17.733  0.00  0.00    +0.000 N 
ATOM     21  C   UNL     1      -2.126  10.579  16.720  0.00  0.00    +0.000 C 
ATOM     22  N   UNL     1      -2.297  11.851  16.683  0.00  0.00    +0.000 NA
ATOM     23  N   UNL     1      -2.740   9.781  15.725  0.00  0.00    +0.000 N 
ATOM     24  H   UNL     1      -1.247   8.928  17.723  0.00  0.00    +0.000 HD
ATOM     25  H   UNL     1      -1.877  12.502  17.369  0.00  0.00    +0.000 HD
ATOM     26  H   UNL     1      -2.617   8.757  15.728  0.00  0.00    +0.000 HD
ATOM     27  H   UNL     1      -3.307  10.214  14.986  0.00  0.00    +0.000 HD
ENDBRANCH  19  20
ENDBRANCH  18  19
ENDBRANCH  17  18
ENDBRANCH  16  17
ENDBRANCH  15  16
ENDBRANCH  13  15
ENDBRANCH  10  13
BRANCH   1  28
ATOM     28  C   UNL     1       6.252   5.651  18.366  0.00  0.00    +0.000 C 
BRANCH  28  29
ATOM     29  C   UNL     1       6.517   4.723  17.184  0.00  0.00    +0.000 C 
BRANCH  29  30
ATOM     30  C   UNL     1       5.729   5.001  15.921  0.00  0.00    +0.000 C 
BRANCH  30  31
ATOM     31  C   UNL     1       6.129   3.896  14.937  0.00  0.00    +0.000 C 
BRANCH  31  32
ATOM     32  C   UNL     1       6.753   4.500  13.716  0.00  0.00    +0.000 C 
BRANCH  32  33
ATOM     33  C   UNL     1       6.474   3.637  12.498  0.00  0.00    +0.000 C 
BRANCH  33  34
ATOM     34  C   UNL     1       5.016   3.250  12.567  0.00  0.00    +0.000 C 
BRANCH  34  35
ATOM     35  C   UNL     1       4.463   2.914  11.200  0.00  0.00    +0.000 C 
BRANCH  35  36
ATOM     36  C   UNL     1       3.653   4.114  10.730  0.00  0.00    +0.000 C 
BRANCH  36  38
ATOM     37  C   UNL     1       2.184   5.046   8.962  0.00  0.00    +0.000 C 
ATOM     38  C   UNL     1       2.875   3.790   9.470  0.00  0.00    +0.000 C 
ENDBRANCH  36  38
ENDBRANCH  35  36
ENDBRANCH  34  35
ENDBRANCH  33  34
ENDBRANCH  32  33
ENDBRANCH  31  32
ENDBRANCH  30  31
ENDBRANCH  29  30
ENDBRANCH  28  29
ENDBRANCH   1  28
TORSDOF 17
ENDMDL
MODEL 2
REMARK VINA RESULT:      -7.5      1.542      1.754
REMARK  Name = 
REMARK  18 active torsions:
REMARK  status: ('A' for Active; 'I' for Inactive)
REMARK    1  A    between atoms: C_1  and  C_2
REMARK    2  A    between atoms: C_2  and  C_3
REMARK    3  A    between atoms: C_3  and  C_4
REMARK    4  A    between atoms: C_4  and  C_5
REMARK    5  A    between atoms: C_5  and  C_6
REMARK    6  A    between atoms: C_6  and  C_7
REMARK    7  A    between atoms: C_7  and  C_8
REMARK    8  A    between atoms: C_8  and  C_9
REMARK    9  A    between atoms: C_9  and  C_10
REMARK   10  A    between atoms: C_10  and  C_11
REMARK   11  A    between atoms: C_11  and  C_12
REMARK   12  A    between atoms: C_21  and  C_22
REMARK   13  A    between atoms: C_22  and  O_24
REMARK   14  A    between atoms: O_24  and  C_25
REMARK   15  A    between atoms: C_25  and  C_26
REMARK   16  A    between atoms: C_26  and  C_27
REMARK   17  A    between atoms: C_27  and  C_28
REMARK   18  A    between atoms: C_28  and  N_29
REMARK                            x       y       z     vdW  Elec       q    Type
REMARK                         _______ _______ _______ _____ _____    ______ ____
ROOT
ATOM      1  C   UNL     1       4.750   5.473  19.175  0.00  0.00    +0.000 C 
ATOM      2  N   UNL     1       5.250   4.123  19.407  0.00  0.00    +0.000 NA
ATOM      3  C   UNL     1       4.543   3.123  19.837  0.00  0.00    +0.000 C 
ATOM      4  N   UNL     1       5.102   1.828  19.907  0.00  0.00    +0.000 N 
ATOM      5  N   UNL     1       3.190   3.353  20.207  0.00  0.00    +0.000 N 
ATOM      6  C   UNL     1       2.316   2.423  20.879  0.00  0.00    +0.000 C 
ATOM      7  C   UNL     1       1.136   3.311  21.293  0.00  0.00    +0.000 C 
ATOM      8  C   UNL     1       1.088   4.433  20.264  0.00  0.00    +0.000 C 
ATOM      9  C   UNL     1       2.544   4.544  19.928  0.00  0.00    +0.000 C 
ATOM     10  C   UNL     1       3.216   5.624  19.441  0.00  0.00    +0.000 C 
ATOM     11  H   UNL     1       6.054   1.651  19.547  0.00  0.00    +0.000 HD
ATOM     12  H   UNL     1       4.532   1.024  20.199  0.00  0.00    +0.000 HD
ENDROOT
BRANCH  10  13
ATOM     13  C   UNL     1       2.491   6.903  19.256  0.00  0.00    +0.000 C 
ATOM     14  O   UNL     1       2.057   7.232  18.158  0.00  0.00    +0.000 OA
BRANCH  13  15
ATOM     15  O   UNL     1       2.300   7.725  20.324  0.00  0.00    +0.000 OA
BRANCH  15  16
ATOM     16  C   UNL     1       1.083   7.853  20.951  0.00  0.00    +0.000 C 
BRANCH  16  17
ATOM     17  C   UNL     1       0.340   9.120  20.521  0.00  0.00    +0.000 C 
BRANCH  17  18
ATOM     18  C   UNL     1       0.862  10.348  21.287  0.00  0.00    +0.000 C 
BRANCH  18  19
ATOM     19  C   UNL     1       0.683  11.626  20.463  0.00  0.00    +0.000 C 
BRANCH  19  20
ATOM     20  N   UNL     1      -0.387  11.511  19.501  0.00  0.00    +0.000 N 
ATOM     21  C   UNL     1      -0.475  12.349  18.350  0.00  0.00    +0.000 C 
ATOM     22  N   UNL     1       0.400  13.257  18.106  0.00  0.00    +0.000 NA
ATOM     23  N   UNL     1      -1.553  12.183  17.448  0.00  0.00    +0.000 N 
ATOM     24  H   UNL     1      -1.125  10.807  19.656  0.00  0.00    +0.000 HD
ATOM     25  H   UNL     1       1.219  13.436  18.712  0.00  0.00    +0.000 HD
ATOM     26  H   UNL     1      -2.269  11.460  17.618  0.00  0.00    +0.000 HD
ATOM     27  H   UNL     1      -1.629  12.776  16.613  0.00  0.00    +0.000 HD
ENDBRANCH  19  20
ENDBRANCH  18  19
ENDBRANCH  17  18
ENDBRANCH  16  17
ENDBRANCH  15  16
ENDBRANCH  13  15
ENDBRANCH  10  13
BRANCH   1  28
ATOM     28  C   UNL     1       5.221   5.874  17.733  0.00  0.00    +0.000 C 
BRANCH  28  29
ATOM     29  C   UNL     1       5.369   4.656  16.827  0.00  0.00    +0.000 C 
BRANCH  29  30
ATOM     30  C   UNL     1       5.303   4.915  15.336  0.00  0.00    +0.000 C 
BRANCH  30  31
ATOM     31  C   UNL     1       6.430   4.075  14.724  0.00  0.00    +0.000 C 
BRANCH  31  32
ATOM     32  C   UNL     1       6.846   4.659  13.409  0.00  0.00    +0.000 C 
BRANCH  32  33
ATOM     33  C   UNL     1       6.764   3.610  12.314  0.00  0.00    +0.000 C 
BRANCH  33  34
ATOM     34  C   UNL     1       5.336   3.120  12.290  0.00  0.00    +0.000 C 
BRANCH  34  35
ATOM     35  C   UNL     1       4.505   3.875  11.277  0.00  0.00    +0.000 C 
BRANCH  35  36
ATOM     36  C   UNL     1       3.328   2.985  10.901  0.00  0.00    +0.000 C 
BRANCH  36  38
ATOM     37  C   UNL     1       2.650   4.777   9.326  0.00  0.00    +0.000 C 
ATOM     38  C   UNL     1       2.847   3.279   9.494  0.00  0.00    +0.000 C 
ENDBRANCH  36  38
ENDBRANCH  35  36
ENDBRANCH  34  35
ENDBRANCH  33  34
ENDBRANCH  32  33
ENDBRANCH  31  32
ENDBRANCH  30  31
ENDBRANCH  29  30
ENDBRANCH  28  29
ENDBRANCH   1  28
TORSDOF 17
ENDMDL
MODEL 3
REMARK VINA RESULT:      -7.5      1.228      1.551
REMARK  Name = 
REMARK  18 active torsions:
REMARK  status: ('A' for Active; 'I' for Inactive)
REMARK    1  A    between atoms: C_1  and  C_2
REMARK    2  A    between atoms: C_2  and  C_3
REMARK    3  A    between atoms: C_3  and  C_4
REMARK    4  A    between atoms: C_4  and  C_5
REMARK    5  A    between atoms: C_5  and  C_6
REMARK    6  A    between atoms: C_6  and  C_7
REMARK    7  A    between atoms: C_7  and  C_8
REMARK    8  A    between atoms: C_8  and  C_9
REMARK    9  A    between atoms: C_9  and  C_10
REMARK   10  A    between atoms: C_10  and  C_11
REMARK   11  A    between atoms: C_11  and  C_12
REMARK   12  A    between atoms: C_21  and  C_22
REMARK   13  A    between atoms: C_22  and  O_24
REMARK   14  A    between atoms: O_24  and  C_25
REMARK   15  A    between atoms: C_25  and  C_26
REMARK   16  A    between atoms: C_26  and  C_27
REMARK   17  A    between atoms: C_27  and  C_28
REMARK   18  A    between atoms: C_28  and  N_29
REMARK                            x       y       z     vdW  Elec       q    Type
REMARK                         _______ _______ _______ _____ _____    ______ ____
ROOT
ATOM      1  C   UNL     1       4.297   5.058  18.304  0.00  0.00    +0.000 C 
ATOM      2  N   UNL     1       4.532   3.632  18.109  0.00  0.00    +0.000 NA
ATOM      3  C   UNL     1       3.789   2.677  18.577  0.00  0.00    +0.000 C 
ATOM      4  N   UNL     1       4.042   1.334  18.222  0.00  0.00    +0.000 N 
ATOM      5  N   UNL     1       2.701   3.013  19.429  0.00  0.00    +0.000 N 
ATOM      6  C   UNL     1       1.893   2.092  20.190  0.00  0.00    +0.000 C 
ATOM      7  C   UNL     1       1.125   3.023  21.136  0.00  0.00    +0.000 C 
ATOM      8  C   UNL     1       1.012   4.352  20.399  0.00  0.00    +0.000 C 
ATOM      9  C   UNL     1       2.281   4.319  19.602  0.00  0.00    +0.000 C 
ATOM     10  C   UNL     1       2.992   5.371  19.108  0.00  0.00    +0.000 C 
ATOM     11  H   UNL     1       4.773   1.106  17.529  0.00  0.00    +0.000 HD
ATOM     12  H   UNL     1       3.426   0.578  18.551  0.00  0.00    +0.000 HD
ENDROOT
BRANCH  10  13
ATOM     13  C   UNL     1       2.547   6.751  19.411  0.00  0.00    +0.000 C 
ATOM     14  O   UNL     1       1.909   7.003  20.427  0.00  0.00    +0.000 OA
BRANCH  13  15
ATOM     15  O   UNL     1       2.856   7.759  18.549  0.00  0.00    +0.000 OA
BRANCH  15  16
ATOM     16  C   UNL     1       1.906   8.407  17.796  0.00  0.00    +0.000 C 
BRANCH  16  17
ATOM     17  C   UNL     1       1.972   9.927  17.966  0.00  0.00    +0.000 C 
BRANCH  17  18
ATOM     18  C   UNL     1       0.742  10.448  18.730  0.00  0.00    +0.000 C 
BRANCH  18  19
ATOM     19  C   UNL     1      -0.552   9.892  18.131  0.00  0.00    +0.000 C 
BRANCH  19  20
ATOM     20  N   UNL     1      -1.382  10.928  17.563  0.00  0.00    +0.000 N 
ATOM     21  C   UNL     1      -2.777  10.747  17.327  0.00  0.00    +0.000 C 
ATOM     22  N   UNL     1      -3.374   9.646  17.609  0.00  0.00    +0.000 NA
ATOM     23  N   UNL     1      -3.531  11.806  16.766  0.00  0.00    +0.000 N 
ATOM     24  H   UNL     1      -0.951  11.829  17.305  0.00  0.00    +0.000 HD
ATOM     25  H   UNL     1      -2.895   8.830  18.027  0.00  0.00    +0.000 HD
ATOM     26  H   UNL     1      -3.078  12.703  16.532  0.00  0.00    +0.000 HD
ATOM     27  H   UNL     1      -4.537  11.693  16.593  0.00  0.00    +0.000 HD
ENDBRANCH  19  20
ENDBRANCH  18  19
ENDBRANCH  17  18
ENDBRANCH  16  17
ENDBRANCH  15  16
ENDBRANCH  13  15
ENDBRANCH  10  13
BRANCH   1  28
ATOM     28  C   UNL     1       4.378   5.715  16.881  0.00  0.00    +0.000 C 
BRANCH  28  29
ATOM     29  C   UNL     1       5.665   5.336  16.156  0.00  0.00    +0.000 C 
BRANCH  29  30
ATOM     30  C   UNL     1       5.508   4.538  14.878  0.00  0.00    +0.000 C 
BRANCH  30  31
ATOM     31  C   UNL     1       6.854   4.654  14.154  0.00  0.00    +0.000 C 
BRANCH  31  32
ATOM     32  C   UNL     1       6.696   4.261  12.717  0.00  0.00    +0.000 C 
BRANCH  32  33
ATOM     33  C   UNL     1       6.091   2.872  12.613  0.00  0.00    +0.000 C 
BRANCH  33  34
ATOM     34  C   UNL     1       5.277   2.849  11.341  0.00  0.00    +0.000 C 
BRANCH  34  35
ATOM     35  C   UNL     1       3.994   3.636  11.485  0.00  0.00    +0.000 C 
BRANCH  35  36
ATOM     36  C   UNL     1       3.050   3.173  10.385  0.00  0.00    +0.000 C 
BRANCH  36  38
ATOM     37  C   UNL     1       2.185   5.076   9.049  0.00  0.00    +0.000 C 
ATOM     38  C   UNL     1       3.243   3.985   9.119  0.00  0.00    +0.000 C 
ENDBRANCH  36  38
ENDBRANCH  35  36
ENDBRANCH  34  35
ENDBRANCH  33  34
ENDBRANCH  32  33
ENDBRANCH  31  32
ENDBRANCH  30  31
ENDBRANCH  29  30
ENDBRANCH  28  29
ENDBRANCH   1  28
TORSDOF 17
ENDMDL
MODEL 4
REMARK VINA RESULT:      -7.4      1.688      2.161
REMARK  Name = 
REMARK  18 active torsions:
REMARK  status: ('A' for Active; 'I' for Inactive)
REMARK    1  A    between atoms: C_1  and  C_2
REMARK    2  A    between atoms: C_2  and  C_3
REMARK    3  A    between atoms: C_3  and  C_4
REMARK    4  A    between atoms: C_4  and  C_5
REMARK    5  A    between atoms: C_5  and  C_6
REMARK    6  A    between atoms: C_6  and  C_7
REMARK    7  A    between atoms: C_7  and  C_8
REMARK    8  A    between atoms: C_8  and  C_9
REMARK    9  A    between atoms: C_9  and  C_10
REMARK   10  A    between atoms: C_10  and  C_11
REMARK   11  A    between atoms: C_11  and  C_12
REMARK   12  A    between atoms: C_21  and  C_22
REMARK   13  A    between atoms: C_22  and  O_24
REMARK   14  A    between atoms: O_24  and  C_25
REMARK   15  A    between atoms: C_25  and  C_26
REMARK   16  A    between atoms: C_26  and  C_27
REMARK   17  A    between atoms: C_27  and  C_28
REMARK   18  A    between atoms: C_28  and  N_29
REMARK                            x       y       z     vdW  Elec       q    Type
REMARK                         _______ _______ _______ _____ _____    ______ ____
ROOT
ATOM      1  C   UNL     1       5.201   5.251  19.201  0.00  0.00    +0.000 C 
ATOM      2  N   UNL     1       5.446   3.924  19.753  0.00  0.00    +0.000 NA
ATOM      3  C   UNL     1       4.638   2.913  19.666  0.00  0.00    +0.000 C 
ATOM      4  N   UNL     1       5.033   1.639  20.130  0.00  0.00    +0.000 N 
ATOM      5  N   UNL     1       3.363   3.107  19.068  0.00  0.00    +0.000 N 
ATOM      6  C   UNL     1       2.271   2.165  19.055  0.00  0.00    +0.000 C 
ATOM      7  C   UNL     1       1.094   3.024  18.576  0.00  0.00    +0.000 C 
ATOM      8  C   UNL     1       1.709   4.119  17.715  0.00  0.00    +0.000 C 
ATOM      9  C   UNL     1       3.039   4.269  18.391  0.00  0.00    +0.000 C 
ATOM     10  C   UNL     1       3.856   5.359  18.410  0.00  0.00    +0.000 C 
ATOM     11  H   UNL     1       5.994   1.484  20.475  0.00  0.00    +0.000 HD
ATOM     12  H   UNL     1       4.416   0.824  20.018  0.00  0.00    +0.000 HD
ENDROOT
BRANCH  10  13
ATOM     13  C   UNL     1       3.409   6.608  17.751  0.00  0.00    +0.000 C 
ATOM     14  O   UNL     1       4.091   7.149  16.888  0.00  0.00    +0.000 OA
BRANCH  13  15
ATOM     15  O   UNL     1       2.218   7.164  18.106  0.00  0.00    +0.000 OA
BRANCH  15  16
ATOM     16  C   UNL     1       2.127   8.252  18.941  0.00  0.00    +0.000 C 
BRANCH  16  17
ATOM     17  C   UNL     1       1.846   9.547  18.175  0.00  0.00    +0.000 C 
BRANCH  17  18
ATOM     18  C   UNL     1       0.345   9.882  18.194  0.00  0.00    +0.000 C 
BRANCH  18  19
ATOM     19  C   UNL     1       0.102  11.283  18.761  0.00  0.00    +0.000 C 
BRANCH  19  20
ATOM     20  N   UNL     1       0.970  12.272  18.166  0.00  0.00    +0.000 N 
ATOM     21  C   UNL     1       1.882  13.052  18.936  0.00  0.00    +0.000 C 
ATOM     22  N   UNL     1       1.983  12.915  20.209  0.00  0.00    +0.000 NA
ATOM     23  N   UNL     1       2.704  14.005  18.287  0.00  0.00    +0.000 N 
ATOM     24  H   UNL     1       0.921  12.432  17.148  0.00  0.00    +0.000 HD
ATOM     25  H   UNL     1       1.423  12.237  20.754  0.00  0.00    +0.000 HD
ATOM     26  H   UNL     1       2.647  14.134  17.266  0.00  0.00    +0.000 HD
ATOM     27  H   UNL     1       3.369  14.572  18.827  0.00  0.00    +0.000 HD
ENDBRANCH  19  20
ENDBRANCH  18  19
ENDBRANCH  17  18
ENDBRANCH  16  17
ENDBRANCH  15  16
ENDBRANCH  13  15
ENDBRANCH  10  13
BRANCH   1  28
ATOM     28  C   UNL     1       6.487   5.633  18.386  0.00  0.00    +0.000 C 
BRANCH  28  29
ATOM     29  C   UNL     1       6.798   4.604  17.304  0.00  0.00    +0.000 C 
BRANCH  29  30
ATOM     30  C   UNL     1       7.659   5.078  16.152  0.00  0.00    +0.000 C 
BRANCH  30  31
ATOM     31  C   UNL     1       6.747   5.054  14.921  0.00  0.00    +0.000 C 
BRANCH  31  32
ATOM     32  C   UNL     1       5.471   4.337  15.245  0.00  0.00    +0.000 C 
BRANCH  32  33
ATOM     33  C   UNL     1       4.858   3.754  13.984  0.00  0.00    +0.000 C 
BRANCH  33  34
ATOM     34  C   UNL     1       5.983   3.595  12.990  0.00  0.00    +0.000 C 
BRANCH  34  35
ATOM     35  C   UNL     1       5.465   3.269  11.607  0.00  0.00    +0.000 C 
BRANCH  35  36
ATOM     36  C   UNL     1       3.950   3.416  11.644  0.00  0.00    +0.000 C 
BRANCH  36  38
ATOM     37  C   UNL     1       2.982   4.393   9.579  0.00  0.00    +0.000 C 
ATOM     38  C   UNL     1       3.336   3.098  10.294  0.00  0.00    +0.000 C 
ENDBRANCH  36  38
ENDBRANCH  35  36
ENDBRANCH  34  35
ENDBRANCH  33  34
ENDBRANCH  32  33
ENDBRANCH  31  32
ENDBRANCH  30  31
ENDBRANCH  29  30
ENDBRANCH  28  29
ENDBRANCH   1  28
TORSDOF 17
ENDMDL
MODEL 5
REMARK VINA RESULT:      -7.4      1.746      2.320
REMARK  Name = 
REMARK  18 active torsions:
REMARK  status: ('A' for Active; 'I' for Inactive)
REMARK    1  A    between atoms: C_1  and  C_2
REMARK    2  A    between atoms: C_2  and  C_3
REMARK    3  A    between atoms: C_3  and  C_4
REMARK    4  A    between atoms: C_4  and  C_5
REMARK    5  A    between atoms: C_5  and  C_6
REMARK    6  A    between atoms: C_6  and  C_7
REMARK    7  A    between atoms: C_7  and  C_8
REMARK    8  A    between atoms: C_8  and  C_9
REMARK    9  A    between atoms: C_9  and  C_10
REMARK   10  A    between atoms: C_10  and  C_11
REMARK   11  A    between atoms: C_11  and  C_12
REMARK   12  A    between atoms: C_21  and  C_22
REMARK   13  A    between atoms: C_22  and  O_24
REMARK   14  A    between atoms: O_24  and  C_25
REMARK   15  A    between atoms: C_25  and  C_26
REMARK   16  A    between atoms: C_26  and  C_27
REMARK   17  A    between atoms: C_27  and  C_28
REMARK   18  A    between atoms: C_28  and  N_29
REMARK                            x       y       z     vdW  Elec       q    Type
REMARK                         _______ _______ _______ _____ _____    ______ ____
ROOT
ATOM      1  C   UNL     1       4.656   5.014  19.780  0.00  0.00    +0.000 C 
ATOM      2  N   UNL     1       5.075   3.618  19.804  0.00  0.00    +0.000 NA
ATOM      3  C   UNL     1       4.324   2.603  19.509  0.00  0.00    +0.000 C 
ATOM      4  N   UNL     1       4.870   1.302  19.446  0.00  0.00    +0.000 N 
ATOM      5  N   UNL     1       2.950   2.830  19.223  0.00  0.00    +0.000 N 
ATOM      6  C   UNL     1       1.930   1.823  19.065  0.00  0.00    +0.000 C 
ATOM      7  C   UNL     1       0.637   2.648  19.099  0.00  0.00    +0.000 C 
ATOM      8  C   UNL     1       1.017   4.026  18.573  0.00  0.00    +0.000 C 
ATOM      9  C   UNL     1       2.439   4.102  19.040  0.00  0.00    +0.000 C 
ATOM     10  C   UNL     1       3.183   5.215  19.297  0.00  0.00    +0.000 C 
ATOM     11  H   UNL     1       5.886   1.156  19.561  0.00  0.00    +0.000 HD
ATOM     12  H   UNL     1       4.290   0.501  19.165  0.00  0.00    +0.000 HD
ENDROOT
BRANCH  10  13
ATOM     13  C   UNL     1       2.550   6.550  19.179  0.00  0.00    +0.000 C 
ATOM     14  O   UNL     1       2.152   7.152  20.170  0.00  0.00    +0.000 OA
BRANCH  13  15
ATOM     15  O   UNL     1       2.414   7.120  17.951  0.00  0.00    +0.000 OA
BRANCH  15  16
ATOM     16  C   UNL     1       2.654   8.454  17.723  0.00  0.00    +0.000 C 
BRANCH  16  17
ATOM     17  C   UNL     1       1.372   9.288  17.760  0.00  0.00    +0.000 C 
BRANCH  17  18
ATOM     18  C   UNL     1       1.660  10.717  18.252  0.00  0.00    +0.000 C 
BRANCH  18  19
ATOM     19  C   UNL     1       1.105  10.935  19.662  0.00  0.00    +0.000 C 
BRANCH  19  20
ATOM     20  N   UNL     1       0.268   9.841  20.095  0.00  0.00    +0.000 N 
ATOM     21  C   UNL     1       0.405   9.236  21.379  0.00  0.00    +0.000 C 
ATOM     22  N   UNL     1       1.285   9.634  22.225  0.00  0.00    +0.000 NA
ATOM     23  N   UNL     1      -0.449   8.166  21.739  0.00  0.00    +0.000 N 
ATOM     24  H   UNL     1      -0.447   9.472  19.450  0.00  0.00    +0.000 HD
ATOM     25  H   UNL     1       1.940  10.413  22.040  0.00  0.00    +0.000 HD
ATOM     26  H   UNL     1      -1.167   7.827  21.081  0.00  0.00    +0.000 HD
ATOM     27  H   UNL     1      -0.366   7.721  22.661  0.00  0.00    +0.000 HD
ENDBRANCH  19  20
ENDBRANCH  18  19
ENDBRANCH  17  18
ENDBRANCH  16  17
ENDBRANCH  15  16
ENDBRANCH  13  15
ENDBRANCH  10  13
BRANCH   1  28
ATOM     28  C   UNL     1       5.743   5.785  18.950  0.00  0.00    +0.000 C 
BRANCH  28  29
ATOM     29  C   UNL     1       6.010   5.113  17.607  0.00  0.00    +0.000 C 
BRANCH  29  30
ATOM     30  C   UNL     1       5.207   5.623  16.428  0.00  0.00    +0.000 C 
BRANCH  30  31
ATOM     31  C   UNL     1       4.995   4.406  15.520  0.00  0.00    +0.000 C 
BRANCH  31  32
ATOM     32  C   UNL     1       5.492   4.708  14.139  0.00  0.00    +0.000 C 
BRANCH  32  33
ATOM     33  C   UNL     1       6.359   3.570  13.630  0.00  0.00    +0.000 C 
BRANCH  33  34
ATOM     34  C   UNL     1       6.270   3.599  12.123  0.00  0.00    +0.000 C 
BRANCH  34  35
ATOM     35  C   UNL     1       5.551   2.383  11.583  0.00  0.00    +0.000 C 
BRANCH  35  36
ATOM     36  C   UNL     1       4.090   2.764  11.398  0.00  0.00    +0.000 C 
BRANCH  36  38
ATOM     37  C   UNL     1       2.872   3.992   9.619  0.00  0.00    +0.000 C 
ATOM     38  C   UNL     1       3.956   4.094  10.681  0.00  0.00    +0.000 C 
ENDBRANCH  36  38
ENDBRANCH  35  36
ENDBRANCH  34  35
ENDBRANCH  33  34
ENDBRANCH  32  33
ENDBRANCH  31  32
ENDBRANCH  30  31
ENDBRANCH  29  30
ENDBRANCH  28  29
ENDBRANCH   1  28
TORSDOF 17
ENDMDL
MODEL 6
REMARK VINA RESULT:      -7.4      1.457      1.888
REMARK  Name = 
REMARK  18 active torsions:
REMARK  status: ('A' for Active; 'I' for Inactive)
REMARK    1  A    between atoms: C_1  and  C_2
REMARK    2  A    between atoms: C_2  and  C_3
REMARK    3  A    between atoms: C_3  and  C_4
REMARK    4  A    between atoms: C_4  and  C_5
REMARK    5  A    between atoms: C_5  and  C_6
REMARK    6  A    between atoms: C_6  and  C_7
REMARK    7  A    between atoms: C_7  and  C_8
REMARK    8  A    between atoms: C_8  and  C_9
REMARK    9  A    between atoms: C_9  and  C_10
REMARK   10  A    between atoms: C_10  and  C_11
REMARK   11  A    between atoms: C_11  and  C_12
REMARK   12  A    between atoms: C_21  and  C_22
REMARK   13  A    between atoms: C_22  and  O_24
REMARK   14  A    between atoms: O_24  and  C_25
REMARK   15  A    between atoms: C_25  and  C_26
REMARK   16  A    between atoms: C_26  and  C_27
REMARK   17  A    between atoms: C_27  and  C_28
REMARK   18  A    between atoms: C_28  and  N_29
REMARK                            x       y       z     vdW  Elec       q    Type
REMARK                         _______ _______ _______ _____ _____    ______ ____
ROOT
ATOM      1  C   UNL     1       4.761   5.572  19.147  0.00  0.00    +0.000 C 
ATOM      2  N   UNL     1       5.274   4.226  19.372  0.00  0.00    +0.000 NA
ATOM      3  C   UNL     1       4.562   3.199  19.721  0.00  0.00    +0.000 C 
ATOM      4  N   UNL     1       5.144   1.914  19.791  0.00  0.00    +0.000 N 
ATOM      5  N   UNL     1       3.181   3.388  20.001  0.00  0.00    +0.000 N 
ATOM      6  C   UNL     1       2.284   2.420  20.580  0.00  0.00    +0.000 C 
ATOM      7  C   UNL     1       1.058   3.269  20.937  0.00  0.00    +0.000 C 
ATOM      8  C   UNL     1       1.056   4.422  19.941  0.00  0.00    +0.000 C 
ATOM      9  C   UNL     1       2.530   4.574  19.712  0.00  0.00    +0.000 C 
ATOM     10  C   UNL     1       3.209   5.683  19.307  0.00  0.00    +0.000 C 
ATOM     11  H   UNL     1       6.123   1.768  19.494  0.00  0.00    +0.000 HD
ATOM     12  H   UNL     1       4.574   1.090  20.018  0.00  0.00    +0.000 HD
ENDROOT
BRANCH  10  13
ATOM     13  C   UNL     1       2.470   6.952  19.110  0.00  0.00    +0.000 C 
ATOM     14  O   UNL     1       1.952   7.222  18.032  0.00  0.00    +0.000 OA
BRANCH  13  15
ATOM     15  O   UNL     1       2.359   7.830  20.144  0.00  0.00    +0.000 OA
BRANCH  15  16
ATOM     16  C   UNL     1       1.313   7.797  21.035  0.00  0.00    +0.000 C 
BRANCH  16  17
ATOM     17  C   UNL     1       0.851   9.200  21.437  0.00  0.00    +0.000 C 
BRANCH  17  18
ATOM     18  C   UNL     1      -0.199   9.736  20.448  0.00  0.00    +0.000 C 
BRANCH  18  19
ATOM     19  C   UNL     1       0.348  10.930  19.661  0.00  0.00    +0.000 C 
BRANCH  19  20
ATOM     20  N   UNL     1      -0.251  11.043  18.352  0.00  0.00    +0.000 N 
ATOM     21  C   UNL     1      -1.273  11.994  18.058  0.00  0.00    +0.000 C 
ATOM     22  N   UNL     1      -1.717  12.806  18.948  0.00  0.00    +0.000 NA
ATOM     23  N   UNL     1      -1.817  12.050  16.753  0.00  0.00    +0.000 N 
ATOM     24  H   UNL     1       0.059  10.406  17.603  0.00  0.00    +0.000 HD
ATOM     25  H   UNL     1      -1.367  12.832  19.921  0.00  0.00    +0.000 HD
ATOM     26  H   UNL     1      -1.477  11.412  16.018  0.00  0.00    +0.000 HD
ATOM     27  H   UNL     1      -2.551  12.731  16.524  0.00  0.00    +0.000 HD
ENDBRANCH  19  20
ENDBRANCH  18  19
ENDBRANCH  17  18
ENDBRANCH  16  17
ENDBRANCH  15  16
ENDBRANCH  13  15
ENDBRANCH  10  13
BRANCH   1  28
ATOM     28  C   UNL     1       5.323   6.028  17.754  0.00  0.00    +0.000 C 
BRANCH  28  29
ATOM     29  C   UNL     1       4.410   5.602  16.609  0.00  0.00    +0.000 C 
BRANCH  29  30
ATOM     30  C   UNL     1       5.011   4.663  15.583  0.00  0.00    +0.000 C 
BRANCH  30  31
ATOM     31  C   UNL     1       6.504   5.005  15.539  0.00  0.00    +0.000 C 
BRANCH  31  32
ATOM     32  C   UNL     1       7.192   4.159  14.512  0.00  0.00    +0.000 C 
BRANCH  32  33
ATOM     33  C   UNL     1       7.493   4.977  13.269  0.00  0.00    +0.000 C 
BRANCH  33  34
ATOM     34  C   UNL     1       6.573   4.470  12.184  0.00  0.00    +0.000 C 
BRANCH  34  35
ATOM     35  C   UNL     1       6.810   3.005  11.891  0.00  0.00    +0.000 C 
BRANCH  35  36
ATOM     36  C   UNL     1       5.458   2.379  11.582  0.00  0.00    +0.000 C 
BRANCH  36  38
ATOM     37  C   UNL     1       3.366   3.085  10.452  0.00  0.00    +0.000 C 
ATOM     38  C   UNL     1       4.363   3.427  11.548  0.00  0.00    +0.000 C 
ENDBRANCH  36  38
ENDBRANCH  35  36
ENDBRANCH  34  35
ENDBRANCH  33  34
ENDBRANCH  32  33
ENDBRANCH  31  32
ENDBRANCH  30  31
ENDBRANCH  29  30
ENDBRANCH  28  29
ENDBRANCH   1  28
TORSDOF 17
ENDMDL
MODEL 7
REMARK VINA RESULT:      -7.3      2.463      2.875
REMARK  Name = 
REMARK  18 active torsions:
REMARK  status: ('A' for Active; 'I' for Inactive)
REMARK    1  A    between atoms: C_1  and  C_2
REMARK    2  A    between atoms: C_2  and  C_3
REMARK    3  A    between atoms: C_3  and  C_4
REMARK    4  A    between atoms: C_4  and  C_5
REMARK    5  A    between atoms: C_5  and  C_6
REMARK    6  A    between atoms: C_6  and  C_7
REMARK    7  A    between atoms: C_7  and  C_8
REMARK    8  A    between atoms: C_8  and  C_9
REMARK    9  A    between atoms: C_9  and  C_10
REMARK   10  A    between atoms: C_10  and  C_11
REMARK   11  A    between atoms: C_11  and  C_12
REMARK   12  A    between atoms: C_21  and  C_22
REMARK   13  A    between atoms: C_22  and  O_24
REMARK   14  A    between atoms: O_24  and  C_25
REMARK   15  A    between atoms: C_25  and  C_26
REMARK   16  A    between atoms: C_26  and  C_27
REMARK   17  A    between atoms: C_27  and  C_28
REMARK   18  A    between atoms: C_28  and  N_29
REMARK                            x       y       z     vdW  Elec       q    Type
REMARK                         _______ _______ _______ _____ _____    ______ ____
ROOT
ATOM      1  C   UNL     1       4.590   5.244  18.828  0.00  0.00    +0.000 C 
ATOM      2  N   UNL     1       5.087   3.891  19.048  0.00  0.00    +0.000 NA
ATOM      3  C   UNL     1       4.428   2.933  19.622  0.00  0.00    +0.000 C 
ATOM      4  N   UNL     1       4.961   1.626  19.671  0.00  0.00    +0.000 N 
ATOM      5  N   UNL     1       3.149   3.218  20.173  0.00  0.00    +0.000 N 
ATOM      6  C   UNL     1       2.361   2.344  21.007  0.00  0.00    +0.000 C 
ATOM      7  C   UNL     1       1.275   3.284  21.546  0.00  0.00    +0.000 C 
ATOM      8  C   UNL     1       1.103   4.361  20.484  0.00  0.00    +0.000 C 
ATOM      9  C   UNL     1       2.497   4.414  19.935  0.00  0.00    +0.000 C 
ATOM     10  C   UNL     1       3.115   5.452  19.306  0.00  0.00    +0.000 C 
ATOM     11  H   UNL     1       5.846   1.405  19.186  0.00  0.00    +0.000 HD
ATOM     12  H   UNL     1       4.421   0.852  20.081  0.00  0.00    +0.000 HD
ENDROOT
BRANCH  10  13
ATOM     13  C   UNL     1       2.401   6.743  19.167  0.00  0.00    +0.000 C 
ATOM     14  O   UNL     1       1.829   7.043  18.125  0.00  0.00    +0.000 OA
BRANCH  13  15
ATOM     15  O   UNL     1       2.374   7.609  20.218  0.00  0.00    +0.000 OA
BRANCH  15  16
ATOM     16  C   UNL     1       1.337   7.649  21.119  0.00  0.00    +0.000 C 
BRANCH  16  17
ATOM     17  C   UNL     1       0.617   8.999  21.114  0.00  0.00    +0.000 C 
BRANCH  17  18
ATOM     18  C   UNL     1      -0.448   9.058  22.223  0.00  0.00    +0.000 C 
BRANCH  18  19
ATOM     19  C   UNL     1      -0.440  10.421  22.920  0.00  0.00    +0.000 C 
BRANCH  19  20
ATOM     20  N   UNL     1      -1.063  11.448  22.119  0.00  0.00    +0.000 N 
ATOM     21  C   UNL     1      -2.308  12.046  22.477  0.00  0.00    +0.000 C 
ATOM     22  N   UNL     1      -2.944  11.702  23.537  0.00  0.00    +0.000 NA
ATOM     23  N   UNL     1      -2.863  13.048  21.645  0.00  0.00    +0.000 N 
ATOM     24  H   UNL     1      -0.602  11.753  21.249  0.00  0.00    +0.000 HD
ATOM     25  H   UNL     1      -2.602  10.984  24.199  0.00  0.00    +0.000 HD
ATOM     26  H   UNL     1      -2.372  13.347  20.789  0.00  0.00    +0.000 HD
ATOM     27  H   UNL     1      -3.757  13.491  21.890  0.00  0.00    +0.000 HD
ENDBRANCH  19  20
ENDBRANCH  18  19
ENDBRANCH  17  18
ENDBRANCH  16  17
ENDBRANCH  15  16
ENDBRANCH  13  15
ENDBRANCH  10  13
BRANCH   1  28
ATOM     28  C   UNL     1       4.854   5.569  17.316  0.00  0.00    +0.000 C 
BRANCH  28  29
ATOM     29  C   UNL     1       5.896   6.670  17.147  0.00  0.00    +0.000 C 
BRANCH  29  30
ATOM     30  C   UNL     1       7.278   6.229  16.714  0.00  0.00    +0.000 C 
BRANCH  30  31
ATOM     31  C   UNL     1       7.130   4.760  16.302  0.00  0.00    +0.000 C 
BRANCH  31  32
ATOM     32  C   UNL     1       7.128   4.646  14.808  0.00  0.00    +0.000 C 
BRANCH  32  33
ATOM     33  C   UNL     1       6.008   3.730  14.349  0.00  0.00    +0.000 C 
BRANCH  33  34
ATOM     34  C   UNL     1       6.195   3.527  12.865  0.00  0.00    +0.000 C 
BRANCH  34  35
ATOM     35  C   UNL     1       4.959   3.922  12.088  0.00  0.00    +0.000 C 
BRANCH  35  36
ATOM     36  C   UNL     1       4.638   2.779  11.135  0.00  0.00    +0.000 C 
BRANCH  36  38
ATOM     37  C   UNL     1       3.133   4.297   9.877  0.00  0.00    +0.000 C 
ATOM     38  C   UNL     1       3.252   2.934  10.541  0.00  0.00    +0.000 C 
ENDBRANCH  36  38
ENDBRANCH  35  36
ENDBRANCH  34  35
ENDBRANCH  33  34
ENDBRANCH  32  33
ENDBRANCH  31  32
ENDBRANCH  30  31
ENDBRANCH  29  30
ENDBRANCH  28  29
ENDBRANCH   1  28
TORSDOF 17
ENDMDL
MODEL 8
REMARK VINA RESULT:      -7.3      1.978      2.547
REMARK  Name = 
REMARK  18 active torsions:
REMARK  status: ('A' for Active; 'I' for Inactive)
REMARK    1  A    between atoms: C_1  and  C_2
REMARK    2  A    between atoms: C_2  and  C_3
REMARK    3  A    between atoms: C_3  and  C_4
REMARK    4  A    between atoms: C_4  and  C_5
REMARK    5  A    between atoms: C_5  and  C_6
REMARK    6  A    between atoms: C_6  and  C_7
REMARK    7  A    between atoms: C_7  and  C_8
REMARK    8  A    between atoms: C_8  and  C_9
REMARK    9  A    between atoms: C_9  and  C_10
REMARK   10  A    between atoms: C_10  and  C_11
REMARK   11  A    between atoms: C_11  and  C_12
REMARK   12  A    between atoms: C_21  and  C_22
REMARK   13  A    between atoms: C_22  and  O_24
REMARK   14  A    between atoms: O_24  and  C_25
REMARK   15  A    between atoms: C_25  and  C_26
REMARK   16  A    between atoms: C_26  and  C_27
REMARK   17  A    between atoms: C_27  and  C_28
REMARK   18  A    between atoms: C_28  and  N_29
REMARK                            x       y       z     vdW  Elec       q    Type
REMARK                         _______ _______ _______ _____ _____    ______ ____
ROOT
ATOM      1  C   UNL     1       4.851   5.254  19.285  0.00  0.00    +0.000 C 
ATOM      2  N   UNL     1       5.301   3.893  19.548  0.00  0.00    +0.000 NA
ATOM      3  C   UNL     1       4.534   2.894  19.861  0.00  0.00    +0.000 C 
ATOM      4  N   UNL     1       5.066   1.591  19.972  0.00  0.00    +0.000 N 
ATOM      5  N   UNL     1       3.147   3.135  20.059  0.00  0.00    +0.000 N 
ATOM      6  C   UNL     1       2.184   2.203  20.591  0.00  0.00    +0.000 C 
ATOM      7  C   UNL     1       0.970   3.098  20.870  0.00  0.00    +0.000 C 
ATOM      8  C   UNL     1       1.067   4.242  19.870  0.00  0.00    +0.000 C 
ATOM      9  C   UNL     1       2.556   4.340  19.726  0.00  0.00    +0.000 C 
ATOM     10  C   UNL     1       3.297   5.421  19.354  0.00  0.00    +0.000 C 
ATOM     11  H   UNL     1       6.054   1.408  19.734  0.00  0.00    +0.000 HD
ATOM     12  H   UNL     1       4.454   0.789  20.171  0.00  0.00    +0.000 HD
ENDROOT
BRANCH  10  13
ATOM     13  C   UNL     1       2.616   6.713  19.106  0.00  0.00    +0.000 C 
ATOM     14  O   UNL     1       2.458   7.139  17.967  0.00  0.00    +0.000 OA
BRANCH  13  15
ATOM     15  O   UNL     1       2.153   7.439  20.161  0.00  0.00    +0.000 OA
BRANCH  15  16
ATOM     16  C   UNL     1       1.575   8.678  20.011  0.00  0.00    +0.000 C 
BRANCH  16  17
ATOM     17  C   UNL     1       0.930   9.176  21.306  0.00  0.00    +0.000 C 
BRANCH  17  18
ATOM     18  C   UNL     1      -0.359   9.963  21.010  0.00  0.00    +0.000 C 
BRANCH  18  19
ATOM     19  C   UNL     1      -0.362  10.490  19.572  0.00  0.00    +0.000 C 
BRANCH  19  20
ATOM     20  N   UNL     1      -0.142  11.915  19.512  0.00  0.00    +0.000 N 
ATOM     21  C   UNL     1      -1.192  12.840  19.237  0.00  0.00    +0.000 C 
ATOM     22  N   UNL     1      -2.398  12.452  19.027  0.00  0.00    +0.000 NA
ATOM     23  N   UNL     1      -0.906  14.226  19.192  0.00  0.00    +0.000 N 
ATOM     24  H   UNL     1       0.811  12.281  19.660  0.00  0.00    +0.000 HD
ATOM     25  H   UNL     1      -2.688  11.459  19.049  0.00  0.00    +0.000 HD
ATOM     26  H   UNL     1       0.053  14.566  19.360  0.00  0.00    +0.000 HD
ATOM     27  H   UNL     1      -1.652  14.905  18.998  0.00  0.00    +0.000 HD
ENDBRANCH  19  20
ENDBRANCH  18  19
ENDBRANCH  17  18
ENDBRANCH  16  17
ENDBRANCH  15  16
ENDBRANCH  13  15
ENDBRANCH  10  13
BRANCH   1  28
ATOM     28  C   UNL     1       5.508   5.679  17.924  0.00  0.00    +0.000 C 
BRANCH  28  29
ATOM     29  C   UNL     1       7.017   5.458  17.932  0.00  0.00    +0.000 C 
BRANCH  29  30
ATOM     30  C   UNL     1       7.549   4.411  16.976  0.00  0.00    +0.000 C 
BRANCH  30  31
ATOM     31  C   UNL     1       7.339   4.992  15.573  0.00  0.00    +0.000 C 
BRANCH  31  32
ATOM     32  C   UNL     1       6.578   4.018  14.725  0.00  0.00    +0.000 C 
BRANCH  32  33
ATOM     33  C   UNL     1       5.388   4.702  14.074  0.00  0.00    +0.000 C 
BRANCH  33  34
ATOM     34  C   UNL     1       4.927   3.797  12.957  0.00  0.00    +0.000 C 
BRANCH  34  35
ATOM     35  C   UNL     1       6.095   3.183  12.218  0.00  0.00    +0.000 C 
BRANCH  35  36
ATOM     36  C   UNL     1       5.561   1.996  11.430  0.00  0.00    +0.000 C 
BRANCH  36  38
ATOM     37  C   UNL     1       6.164  -0.409  11.340  0.00  0.00    +0.000 C 
ATOM     38  C   UNL     1       6.666   1.008  11.111  0.00  0.00    +0.000 C 
ENDBRANCH  36  38
ENDBRANCH  35  36
ENDBRANCH  34  35
ENDBRANCH  33  34
ENDBRANCH  32  33
ENDBRANCH  31  32
ENDBRANCH  30  31
ENDBRANCH  29  30
ENDBRANCH  28  29
ENDBRANCH   1  28
TORSDOF 17
ENDMDL
MODEL 9
REMARK VINA RESULT:      -7.3      1.814      2.214
REMARK  Name = 
REMARK  18 active torsions:
REMARK  status: ('A' for Active; 'I' for Inactive)
REMARK    1  A    between atoms: C_1  and  C_2
REMARK    2  A    between atoms: C_2  and  C_3
REMARK    3  A    between atoms: C_3  and  C_4
REMARK    4  A    between atoms: C_4  and  C_5
REMARK    5  A    between atoms: C_5  and  C_6
REMARK    6  A    between atoms: C_6  and  C_7
REMARK    7  A    between atoms: C_7  and  C_8
REMARK    8  A    between atoms: C_8  and  C_9
REMARK    9  A    between atoms: C_9  and  C_10
REMARK   10  A    between atoms: C_10  and  C_11
REMARK   11  A    between atoms: C_11  and  C_12
REMARK   12  A    between atoms: C_21  and  C_22
REMARK   13  A    between atoms: C_22  and  O_24
REMARK   14  A    between atoms: O_24  and  C_25
REMARK   15  A    between atoms: C_25  and  C_26
REMARK   16  A    between atoms: C_26  and  C_27
REMARK   17  A    between atoms: C_27  and  C_28
REMARK   18  A    between atoms: C_28  and  N_29
REMARK                            x       y       z     vdW  Elec       q    Type
REMARK                         _______ _______ _______ _____ _____    ______ ____
ROOT
ATOM      1  C   UNL     1       4.623   5.621  19.135  0.00  0.00    +0.000 C 
ATOM      2  N   UNL     1       5.136   4.264  19.276  0.00  0.00    +0.000 NA
ATOM      3  C   UNL     1       4.456   3.244  19.699  0.00  0.00    +0.000 C 
ATOM      4  N   UNL     1       5.020   1.949  19.677  0.00  0.00    +0.000 N 
ATOM      5  N   UNL     1       3.126   3.451  20.155  0.00  0.00    +0.000 N 
ATOM      6  C   UNL     1       2.293   2.488  20.832  0.00  0.00    +0.000 C 
ATOM      7  C   UNL     1       1.137   3.352  21.353  0.00  0.00    +0.000 C 
ATOM      8  C   UNL     1       1.029   4.519  20.381  0.00  0.00    +0.000 C 
ATOM      9  C   UNL     1       2.464   4.651  19.968  0.00  0.00    +0.000 C 
ATOM     10  C   UNL     1       3.106   5.755  19.494  0.00  0.00    +0.000 C 
ATOM     11  H   UNL     1       5.950   1.792  19.256  0.00  0.00    +0.000 HD
ATOM     12  H   UNL     1       4.469   1.130  19.965  0.00  0.00    +0.000 HD
ENDROOT
BRANCH  10  13
ATOM     13  C   UNL     1       2.371   7.038  19.408  0.00  0.00    +0.000 C 
ATOM     14  O   UNL     1       1.960   7.602  20.416  0.00  0.00    +0.000 OA
BRANCH  13  15
ATOM     15  O   UNL     1       2.151   7.604  18.190  0.00  0.00    +0.000 OA
BRANCH  15  16
ATOM     16  C   UNL     1       2.027   8.962  18.015  0.00  0.00    +0.000 C 
BRANCH  16  17
ATOM     17  C   UNL     1       0.572   9.389  17.807  0.00  0.00    +0.000 C 
BRANCH  17  18
ATOM     18  C   UNL     1       0.119  10.355  18.915  0.00  0.00    +0.000 C 
BRANCH  18  19
ATOM     19  C   UNL     1       1.039  11.577  18.989  0.00  0.00    +0.000 C 
BRANCH  19  20
ATOM     20  N   UNL     1       0.428  12.756  18.424  0.00  0.00    +0.000 N 
ATOM     21  C   UNL     1       0.196  13.938  19.188  0.00  0.00    +0.000 C 
ATOM     22  N   UNL     1       0.520  14.016  20.428  0.00  0.00    +0.000 NA
ATOM     23  N   UNL     1      -0.409  15.059  18.571  0.00  0.00    +0.000 N 
ATOM     24  H   UNL     1       0.135  12.744  17.435  0.00  0.00    +0.000 HD
ATOM     25  H   UNL     1       0.971  13.244  20.948  0.00  0.00    +0.000 HD
ATOM     26  H   UNL     1      -0.677  15.025  17.576  0.00  0.00    +0.000 HD
ATOM     27  H   UNL     1      -0.580  15.918  19.107  0.00  0.00    +0.000 HD
ENDBRANCH  19  20
ENDBRANCH  18  19
ENDBRANCH  17  18
ENDBRANCH  16  17
ENDBRANCH  15  16
ENDBRANCH  13  15
ENDBRANCH  10  13
BRANCH   1  28
ATOM     28  C   UNL     1       5.010   6.090  17.688  0.00  0.00    +0.000 C 
BRANCH  28  29
ATOM     29  C   UNL     1       6.177   5.284  17.126  0.00  0.00    +0.000 C 
BRANCH  29  30
ATOM     30  C   UNL     1       5.888   4.449  15.896  0.00  0.00    +0.000 C 
BRANCH  30  31
ATOM     31  C   UNL     1       7.188   4.451  15.084  0.00  0.00    +0.000 C 
BRANCH  31  32
ATOM     32  C   UNL     1       6.875   4.534  13.621  0.00  0.00    +0.000 C 
BRANCH  32  33
ATOM     33  C   UNL     1       5.493   3.971  13.343  0.00  0.00    +0.000 C 
BRANCH  33  34
ATOM     34  C   UNL     1       5.532   3.398  11.947  0.00  0.00    +0.000 C 
BRANCH  34  35
ATOM     35  C   UNL     1       4.143   3.094  11.429  0.00  0.00    +0.000 C 
BRANCH  35  36
ATOM     36  C   UNL     1       3.999   3.787  10.082  0.00  0.00    +0.000 C 
BRANCH  36  38
ATOM     37  C   UNL     1       2.313   5.029   8.751  0.00  0.00    +0.000 C 
ATOM     38  C   UNL     1       2.551   3.811   9.631  0.00  0.00    +0.000 C 
ENDBRANCH  36  38
ENDBRANCH  35  36
ENDBRANCH  34  35
ENDBRANCH  33  34
ENDBRANCH  32  33
ENDBRANCH  31  32
ENDBRANCH  30  31
ENDBRANCH  29  30
ENDBRANCH  28  29
ENDBRANCH   1  28
TORSDOF 17
ENDMDL
