MODEL 1
REMARK VINA RESULT:      -7.6      0.000      0.000
REMARK  Name = 
REMARK  6 active torsions:
REMARK  status: ('A' for Active; 'I' for Inactive)
REMARK    1  A    between atoms: C_1  and  C_2
REMARK    2  A    between atoms: C_4  and  C_5
REMARK    3  A    between atoms: C_6  and  C_7
REMARK    4  A    between atoms: N_14  and  C_15
REMARK    5  A    between atoms: C_15  and  C_16
REMARK    6  A    between atoms: C_16  and  C_17
REMARK                            x       y       z     vdW  Elec       q    Type
REMARK                         _______ _______ _______ _____ _____    ______ ____
ROOT
ATOM      1  C   UNL     1       3.633   5.020  17.579  0.00  0.00    +0.000 C 
ATOM      2  C   UNL     1       4.960   4.810  17.559  0.00  0.00    +0.000 C 
ATOM      3  C   UNL     1       5.858   4.639  18.754  0.00  0.00    +0.000 C 
ATOM      4  O   UNL     1       5.605   4.772  19.937  0.00  0.00    +0.000 OA
ATOM      5  N   UNL     1       7.090   4.394  18.232  0.00  0.00    +0.000 N 
ATOM      6  C   UNL     1       7.098   4.504  16.872  0.00  0.00    +0.000 C 
ATOM      7  O   UNL     1       8.111   4.447  16.195  0.00  0.00    +0.000 OA
ATOM      8  N   UNL     1       5.779   4.704  16.443  0.00  0.00    +0.000 N 
ATOM      9  H   UNL     1       7.923   4.291  18.785  0.00  0.00    +0.000 HD
ENDROOT
BRANCH   1  15
ATOM     10  C   UNL     1       1.311   2.777  21.257  0.00  0.00    +0.000 C 
ATOM     11  C   UNL     1       1.818   3.924  20.463  0.00  0.00    +0.000 A 
ATOM     12  C   UNL     1       1.625   5.281  20.622  0.00  0.00    +0.000 A 
ATOM     13  C   UNL     1       2.286   5.948  19.554  0.00  0.00    +0.000 A 
ATOM     14  C   UNL     1       2.307   7.415  19.315  0.00  0.00    +0.000 C 
ATOM     15  C   UNL     1       2.870   4.966  18.770  0.00  0.00    +0.000 A 
ATOM     16  N   UNL     1       2.593   3.748  19.342  0.00  0.00    +0.000 N 
ATOM     17  H   UNL     1       2.875   2.850  18.972  0.00  0.00    +0.000 HD
ENDBRANCH   1  15
BRANCH   8  18
ATOM     18  C   UNL     1       5.385   4.896  15.048  0.00  0.00    +0.000 C 
BRANCH  18  19
ATOM     19  C   UNL     1       6.456   4.493  14.022  0.00  0.00    +0.000 C 
BRANCH  19  20
ATOM     20  C   UNL     1       5.908   3.667  12.882  0.00  0.00    +0.000 A 
ATOM     21  C   UNL     1       6.683   2.651  12.303  0.00  0.00    +0.000 A 
ATOM     22  C   UNL     1       6.168   1.875  11.263  0.00  0.00    +0.000 A 
ATOM     23  C   UNL     1       4.879   2.109  10.790  0.00  0.00    +0.000 A 
ATOM     24  C   UNL     1       4.101   3.115  11.360  0.00  0.00    +0.000 A 
ATOM     25  C   UNL     1       4.612   3.893  12.399  0.00  0.00    +0.000 A 
ENDBRANCH  19  20
ENDBRANCH  18  19
ENDBRANCH   8  18
TORSDOF 4
ENDMDL
MODEL 2
REMARK VINA RESULT:      -7.6      2.234      7.233
REMARK  Name = 
REMARK  6 active torsions:
REMARK  status: ('A' for Active; 'I' for Inactive)
REMARK    1  A    between atoms: C_1  and  C_2
REMARK    2  A    between atoms: C_4  and  C_5
REMARK    3  A    between atoms: C_6  and  C_7
REMARK    4  A    between atoms: N_14  and  C_15
REMARK    5  A    between atoms: C_15  and  C_16
REMARK    6  A    between atoms: C_16  and  C_17
REMARK                            x       y       z     vdW  Elec       q    Type
REMARK                         _______ _______ _______ _____ _____    ______ ____
ROOT
ATOM      1  C   UNL     1       3.841   5.098  18.509  0.00  0.00    +0.000 C 
ATOM      2  C   UNL     1       3.487   4.239  19.481  0.00  0.00    +0.000 C 
ATOM      3  C   UNL     1       4.132   2.915  19.786  0.00  0.00    +0.000 C 
ATOM      4  O   UNL     1       4.992   2.313  19.168  0.00  0.00    +0.000 OA
ATOM      5  N   UNL     1       3.472   2.448  20.879  0.00  0.00    +0.000 N 
ATOM      6  C   UNL     1       2.426   3.254  21.225  0.00  0.00    +0.000 C 
ATOM      7  O   UNL     1       1.619   2.976  22.095  0.00  0.00    +0.000 OA
ATOM      8  N   UNL     1       2.461   4.389  20.405  0.00  0.00    +0.000 N 
ATOM      9  H   UNL     1       3.639   1.548  21.293  0.00  0.00    +0.000 HD
ENDROOT
BRANCH   1  15
ATOM     10  C   UNL     1       6.282   3.773  14.481  0.00  0.00    +0.000 C 
ATOM     11  C   UNL     1       6.106   4.313  15.851  0.00  0.00    +0.000 A 
ATOM     12  C   UNL     1       7.039   4.726  16.780  0.00  0.00    +0.000 A 
ATOM     13  C   UNL     1       6.346   5.106  17.963  0.00  0.00    +0.000 A 
ATOM     14  C   UNL     1       6.965   5.581  19.228  0.00  0.00    +0.000 C 
ATOM     15  C   UNL     1       4.997   4.913  17.714  0.00  0.00    +0.000 A 
ATOM     16  N   UNL     1       4.866   4.449  16.427  0.00  0.00    +0.000 N 
ATOM     17  H   UNL     1       3.993   4.201  15.981  0.00  0.00    +0.000 HD
ENDBRANCH   1  15
BRANCH   8  18
ATOM     18  C   UNL     1       1.482   5.474  20.455  0.00  0.00    +0.000 C 
BRANCH  18  19
ATOM     19  C   UNL     1       2.041   6.814  20.961  0.00  0.00    +0.000 C 
BRANCH  19  20
ATOM     20  C   UNL     1       1.679   7.983  20.075  0.00  0.00    +0.000 A 
ATOM     21  C   UNL     1       2.133   8.038  18.749  0.00  0.00    +0.000 A 
ATOM     22  C   UNL     1       1.782   9.108  17.925  0.00  0.00    +0.000 A 
ATOM     23  C   UNL     1       0.977  10.133  18.418  0.00  0.00    +0.000 A 
ATOM     24  C   UNL     1       0.519  10.087  19.733  0.00  0.00    +0.000 A 
ATOM     25  C   UNL     1       0.869   9.018  20.560  0.00  0.00    +0.000 A 
ENDBRANCH  19  20
ENDBRANCH  18  19
ENDBRANCH   8  18
TORSDOF 4
ENDMDL
MODEL 3
REMARK VINA RESULT:      -7.6      3.888      5.434
REMARK  Name = 
REMARK  6 active torsions:
REMARK  status: ('A' for Active; 'I' for Inactive)
REMARK    1  A    between atoms: C_1  and  C_2
REMARK    2  A    between atoms: C_4  and  C_5
REMARK    3  A    between atoms: C_6  and  C_7
REMARK    4  A    between atoms: N_14  and  C_15
REMARK    5  A    between atoms: C_15  and  C_16
REMARK    6  A    between atoms: C_16  and  C_17
REMARK                            x       y       z     vdW  Elec       q    Type
REMARK                         _______ _______ _______ _____ _____    ______ ____
ROOT
ATOM      1  C   UNL     1       3.172   6.113  19.564  0.00  0.00    +0.000 C 
ATOM      2  C   UNL     1       2.698   4.857  19.514  0.00  0.00    +0.000 C 
ATOM      3  C   UNL     1       1.313   4.406  19.891  0.00  0.00    +0.000 C 
ATOM      4  O   UNL     1       0.410   5.035  20.413  0.00  0.00    +0.000 OA
ATOM      5  N   UNL     1       1.292   3.074  19.617  0.00  0.00    +0.000 N 
ATOM      6  C   UNL     1       2.517   2.616  19.226  0.00  0.00    +0.000 C 
ATOM      7  O   UNL     1       2.770   1.437  19.044  0.00  0.00    +0.000 OA
ATOM      8  N   UNL     1       3.375   3.716  19.105  0.00  0.00    +0.000 N 
ATOM      9  H   UNL     1       0.512   2.473  19.816  0.00  0.00    +0.000 HD
ENDROOT
BRANCH   1  15
ATOM     10  C   UNL     1       0.351   8.905  22.426  0.00  0.00    +0.000 C 
ATOM     11  C   UNL     1       1.066   8.509  21.187  0.00  0.00    +0.000 A 
ATOM     12  C   UNL     1       1.074   9.082  19.933  0.00  0.00    +0.000 A 
ATOM     13  C   UNL     1       1.882   8.277  19.084  0.00  0.00    +0.000 A 
ATOM     14  C   UNL     1       2.138   8.507  17.638  0.00  0.00    +0.000 C 
ATOM     15  C   UNL     1       2.350   7.227  19.858  0.00  0.00    +0.000 A 
ATOM     16  N   UNL     1       1.862   7.390  21.132  0.00  0.00    +0.000 N 
ATOM     17  H   UNL     1       2.024   6.759  21.906  0.00  0.00    +0.000 HD
ENDBRANCH   1  15
BRANCH   8  18
ATOM     18  C   UNL     1       4.786   3.624  18.733  0.00  0.00    +0.000 C 
BRANCH  18  19
ATOM     19  C   UNL     1       5.165   4.416  17.470  0.00  0.00    +0.000 C 
BRANCH  19  20
ATOM     20  C   UNL     1       6.165   5.517  17.735  0.00  0.00    +0.000 A 
ATOM     21  C   UNL     1       7.145   5.364  18.727  0.00  0.00    +0.000 A 
ATOM     22  C   UNL     1       8.081   6.373  18.958  0.00  0.00    +0.000 A 
ATOM     23  C   UNL     1       8.046   7.543  18.203  0.00  0.00    +0.000 A 
ATOM     24  C   UNL     1       7.076   7.704  17.214  0.00  0.00    +0.000 A 
ATOM     25  C   UNL     1       6.139   6.697  16.981  0.00  0.00    +0.000 A 
ENDBRANCH  19  20
ENDBRANCH  18  19
ENDBRANCH   8  18
TORSDOF 4
ENDMDL
MODEL 4
REMARK VINA RESULT:      -7.6      2.248      7.292
REMARK  Name = 
REMARK  6 active torsions:
REMARK  status: ('A' for Active; 'I' for Inactive)
REMARK    1  A    between atoms: C_1  and  C_2
REMARK    2  A    between atoms: C_4  and  C_5
REMARK    3  A    between atoms: C_6  and  C_7
REMARK    4  A    between atoms: N_14  and  C_15
REMARK    5  A    between atoms: C_15  and  C_16
REMARK    6  A    between atoms: C_16  and  C_17
REMARK                            x       y       z     vdW  Elec       q    Type
REMARK                         _______ _______ _______ _____ _____    ______ ____
ROOT
ATOM      1  C   UNL     1       3.852   5.110  18.538  0.00  0.00    +0.000 C 
ATOM      2  C   UNL     1       3.494   4.251  19.507  0.00  0.00    +0.000 C 
ATOM      3  C   UNL     1       4.134   2.924  19.811  0.00  0.00    +0.000 C 
ATOM      4  O   UNL     1       4.993   2.321  19.195  0.00  0.00    +0.000 OA
ATOM      5  N   UNL     1       3.470   2.457  20.903  0.00  0.00    +0.000 N 
ATOM      6  C   UNL     1       2.426   3.266  21.247  0.00  0.00    +0.000 C 
ATOM      7  O   UNL     1       1.616   2.990  22.116  0.00  0.00    +0.000 OA
ATOM      8  N   UNL     1       2.466   4.402  20.429  0.00  0.00    +0.000 N 
ATOM      9  H   UNL     1       3.634   1.556  21.316  0.00  0.00    +0.000 HD
ENDROOT
BRANCH   1  15
ATOM     10  C   UNL     1       6.297   3.792  14.509  0.00  0.00    +0.000 C 
ATOM     11  C   UNL     1       6.120   4.326  15.882  0.00  0.00    +0.000 A 
ATOM     12  C   UNL     1       7.053   4.729  16.815  0.00  0.00    +0.000 A 
ATOM     13  C   UNL     1       6.359   5.107  17.998  0.00  0.00    +0.000 A 
ATOM     14  C   UNL     1       6.976   5.572  19.267  0.00  0.00    +0.000 C 
ATOM     15  C   UNL     1       5.009   4.923  17.744  0.00  0.00    +0.000 A 
ATOM     16  N   UNL     1       4.879   4.466  16.455  0.00  0.00    +0.000 N 
ATOM     17  H   UNL     1       4.006   4.225  16.005  0.00  0.00    +0.000 HD
ENDBRANCH   1  15
BRANCH   8  18
ATOM     18  C   UNL     1       1.490   5.490  20.479  0.00  0.00    +0.000 C 
BRANCH  18  19
ATOM     19  C   UNL     1       2.062   6.838  20.948  0.00  0.00    +0.000 C 
BRANCH  19  20
ATOM     20  C   UNL     1       1.659   7.996  20.065  0.00  0.00    +0.000 A 
ATOM     21  C   UNL     1       0.847   9.023  20.566  0.00  0.00    +0.000 A 
ATOM     22  C   UNL     1       0.491  10.103  19.756  0.00  0.00    +0.000 A 
ATOM     23  C   UNL     1       0.940  10.164  18.439  0.00  0.00    +0.000 A 
ATOM     24  C   UNL     1       1.748   9.148  17.931  0.00  0.00    +0.000 A 
ATOM     25  C   UNL     1       2.106   8.067  18.739  0.00  0.00    +0.000 A 
ENDBRANCH  19  20
ENDBRANCH  18  19
ENDBRANCH   8  18
TORSDOF 4
ENDMDL
MODEL 5
REMARK VINA RESULT:      -7.6      0.472      1.094
REMARK  Name = 
REMARK  6 active torsions:
REMARK  status: ('A' for Active; 'I' for Inactive)
REMARK    1  A    between atoms: C_1  and  C_2
REMARK    2  A    between atoms: C_4  and  C_5
REMARK    3  A    between atoms: C_6  and  C_7
REMARK    4  A    between atoms: N_14  and  C_15
REMARK    5  A    between atoms: C_15  and  C_16
REMARK    6  A    between atoms: C_16  and  C_17
REMARK                            x       y       z     vdW  Elec       q    Type
REMARK                         _______ _______ _______ _____ _____    ______ ____
ROOT
ATOM      1  C   UNL     1       3.536   4.768  17.668  0.00  0.00    +0.000 C 
ATOM      2  C   UNL     1       4.870   4.648  17.561  0.00  0.00    +0.000 C 
ATOM      3  C   UNL     1       5.862   4.621  18.692  0.00  0.00    +0.000 C 
ATOM      4  O   UNL     1       5.685   4.815  19.880  0.00  0.00    +0.000 OA
ATOM      5  N   UNL     1       7.068   4.426  18.094  0.00  0.00    +0.000 N 
ATOM      6  C   UNL     1       6.970   4.444  16.733  0.00  0.00    +0.000 C 
ATOM      7  O   UNL     1       7.933   4.411  15.985  0.00  0.00    +0.000 OA
ATOM      8  N   UNL     1       5.613   4.523  16.394  0.00  0.00    +0.000 N 
ATOM      9  H   UNL     1       7.943   4.417  18.587  0.00  0.00    +0.000 HD
ENDROOT
BRANCH   1  15
ATOM     10  C   UNL     1       1.525   2.615  21.576  0.00  0.00    +0.000 C 
ATOM     11  C   UNL     1       1.957   3.742  20.713  0.00  0.00    +0.000 A 
ATOM     12  C   UNL     1       1.763   5.101  20.847  0.00  0.00    +0.000 A 
ATOM     13  C   UNL     1       2.334   5.743  19.713  0.00  0.00    +0.000 A 
ATOM     14  C   UNL     1       2.321   7.202  19.431  0.00  0.00    +0.000 C 
ATOM     15  C   UNL     1       2.867   4.743  18.915  0.00  0.00    +0.000 A 
ATOM     16  N   UNL     1       2.647   3.540  19.541  0.00  0.00    +0.000 N 
ATOM     17  H   UNL     1       2.910   2.634  19.177  0.00  0.00    +0.000 HD
ENDBRANCH   1  15
BRANCH   8  18
ATOM     18  C   UNL     1       5.107   4.593  15.024  0.00  0.00    +0.000 C 
BRANCH  18  19
ATOM     19  C   UNL     1       6.189   4.817  13.955  0.00  0.00    +0.000 C 
BRANCH  19  20
ATOM     20  C   UNL     1       6.188   3.759  12.877  0.00  0.00    +0.000 A 
ATOM     21  C   UNL     1       4.980   3.222  12.408  0.00  0.00    +0.000 A 
ATOM     22  C   UNL     1       4.978   2.260  11.398  0.00  0.00    +0.000 A 
ATOM     23  C   UNL     1       6.182   1.822  10.849  0.00  0.00    +0.000 A 
ATOM     24  C   UNL     1       7.388   2.351  11.307  0.00  0.00    +0.000 A 
ATOM     25  C   UNL     1       7.393   3.313  12.317  0.00  0.00    +0.000 A 
ENDBRANCH  19  20
ENDBRANCH  18  19
ENDBRANCH   8  18
TORSDOF 4
ENDMDL
MODEL 6
REMARK VINA RESULT:      -7.6      3.889      5.456
REMARK  Name = 
REMARK  6 active torsions:
REMARK  status: ('A' for Active; 'I' for Inactive)
REMARK    1  A    between atoms: C_1  and  C_2
REMARK    2  A    between atoms: C_4  and  C_5
REMARK    3  A    between atoms: C_6  and  C_7
REMARK    4  A    between atoms: N_14  and  C_15
REMARK    5  A    between atoms: C_15  and  C_16
REMARK    6  A    between atoms: C_16  and  C_17
REMARK                            x       y       z     vdW  Elec       q    Type
REMARK                         _______ _______ _______ _____ _____    ______ ____
ROOT
ATOM      1  C   UNL     1       3.230   6.104  19.619  0.00  0.00    +0.000 C 
ATOM      2  C   UNL     1       2.774   4.843  19.531  0.00  0.00    +0.000 C 
ATOM      3  C   UNL     1       1.374   4.374  19.819  0.00  0.00    +0.000 C 
ATOM      4  O   UNL     1       0.435   4.988  20.290  0.00  0.00    +0.000 OA
ATOM      5  N   UNL     1       1.386   3.044  19.534  0.00  0.00    +0.000 N 
ATOM      6  C   UNL     1       2.638   2.603  19.216  0.00  0.00    +0.000 C 
ATOM      7  O   UNL     1       2.916   1.428  19.041  0.00  0.00    +0.000 OA
ATOM      8  N   UNL     1       3.489   3.713  19.156  0.00  0.00    +0.000 N 
ATOM      9  H   UNL     1       0.603   2.432  19.681  0.00  0.00    +0.000 HD
ENDROOT
BRANCH   1  15
ATOM     10  C   UNL     1       0.259   8.875  22.347  0.00  0.00    +0.000 C 
ATOM     11  C   UNL     1       1.025   8.479  21.139  0.00  0.00    +0.000 A 
ATOM     12  C   UNL     1       1.067   9.039  19.879  0.00  0.00    +0.000 A 
ATOM     13  C   UNL     1       1.920   8.239  19.069  0.00  0.00    +0.000 A 
ATOM     14  C   UNL     1       2.223   8.458  17.631  0.00  0.00    +0.000 C 
ATOM     15  C   UNL     1       2.379   7.206  19.872  0.00  0.00    +0.000 A 
ATOM     16  N   UNL     1       1.842   7.374  21.125  0.00  0.00    +0.000 N 
ATOM     17  H   UNL     1       1.988   6.755  21.912  0.00  0.00    +0.000 HD
ENDBRANCH   1  15
BRANCH   8  18
ATOM     18  C   UNL     1       4.922   3.641  18.870  0.00  0.00    +0.000 C 
BRANCH  18  19
ATOM     19  C   UNL     1       5.339   4.288  17.539  0.00  0.00    +0.000 C 
BRANCH  19  20
ATOM     20  C   UNL     1       6.260   5.473  17.716  0.00  0.00    +0.000 A 
ATOM     21  C   UNL     1       6.070   6.640  16.962  0.00  0.00    +0.000 A 
ATOM     22  C   UNL     1       6.909   7.741  17.140  0.00  0.00    +0.000 A 
ATOM     23  C   UNL     1       7.946   7.685  18.069  0.00  0.00    +0.000 A 
ATOM     24  C   UNL     1       8.142   6.530  18.824  0.00  0.00    +0.000 A 
ATOM     25  C   UNL     1       7.305   5.427  18.648  0.00  0.00    +0.000 A 
ENDBRANCH  19  20
ENDBRANCH  18  19
ENDBRANCH   8  18
TORSDOF 4
ENDMDL
MODEL 7
REMARK VINA RESULT:      -7.5      1.431      2.009
REMARK  Name = 
REMARK  6 active torsions:
REMARK  status: ('A' for Active; 'I' for Inactive)
REMARK    1  A    between atoms: C_1  and  C_2
REMARK    2  A    between atoms: C_4  and  C_5
REMARK    3  A    between atoms: C_6  and  C_7
REMARK    4  A    between atoms: N_14  and  C_15
REMARK    5  A    between atoms: C_15  and  C_16
REMARK    6  A    between atoms: C_16  and  C_17
REMARK                            x       y       z     vdW  Elec       q    Type
REMARK                         _______ _______ _______ _____ _____    ______ ____
ROOT
ATOM      1  C   UNL     1       3.979   4.189  16.905  0.00  0.00    +0.000 C 
ATOM      2  C   UNL     1       5.064   4.942  17.148  0.00  0.00    +0.000 C 
ATOM      3  C   UNL     1       5.555   5.400  18.495  0.00  0.00    +0.000 C 
ATOM      4  O   UNL     1       5.029   5.292  19.587  0.00  0.00    +0.000 OA
ATOM      5  N   UNL     1       6.706   6.077  18.236  0.00  0.00    +0.000 N 
ATOM      6  C   UNL     1       6.934   6.199  16.896  0.00  0.00    +0.000 C 
ATOM      7  O   UNL     1       7.838   6.867  16.422  0.00  0.00    +0.000 OA
ATOM      8  N   UNL     1       5.959   5.455  16.218  0.00  0.00    +0.000 N 
ATOM      9  H   UNL     1       7.245   6.555  18.936  0.00  0.00    +0.000 HD
ENDROOT
BRANCH   1  15
ATOM     10  C   UNL     1       0.717   4.175  20.553  0.00  0.00    +0.000 C 
ATOM     11  C   UNL     1       1.704   3.601  19.606  0.00  0.00    +0.000 A 
ATOM     12  C   UNL     1       2.220   2.325  19.511  0.00  0.00    +0.000 A 
ATOM     13  C   UNL     1       3.179   2.314  18.461  0.00  0.00    +0.000 A 
ATOM     14  C   UNL     1       4.003   1.152  18.038  0.00  0.00    +0.000 C 
ATOM     15  C   UNL     1       3.215   3.597  17.939  0.00  0.00    +0.000 A 
ATOM     16  N   UNL     1       2.306   4.360  18.631  0.00  0.00    +0.000 N 
ATOM     17  H   UNL     1       2.133   5.345  18.480  0.00  0.00    +0.000 HD
ENDBRANCH   1  15
BRANCH   8  18
ATOM     18  C   UNL     1       5.855   5.363  14.763  0.00  0.00    +0.000 C 
BRANCH  18  19
ATOM     19  C   UNL     1       6.747   4.284  14.127  0.00  0.00    +0.000 C 
BRANCH  19  20
ATOM     20  C   UNL     1       6.091   3.579  12.962  0.00  0.00    +0.000 A 
ATOM     21  C   UNL     1       6.786   2.597  12.242  0.00  0.00    +0.000 A 
ATOM     22  C   UNL     1       6.172   1.932  11.179  0.00  0.00    +0.000 A 
ATOM     23  C   UNL     1       4.862   2.245  10.824  0.00  0.00    +0.000 A 
ATOM     24  C   UNL     1       4.162   3.219  11.535  0.00  0.00    +0.000 A 
ATOM     25  C   UNL     1       4.773   3.886  12.598  0.00  0.00    +0.000 A 
ENDBRANCH  19  20
ENDBRANCH  18  19
ENDBRANCH   8  18
TORSDOF 4
ENDMDL
MODEL 8
REMARK VINA RESULT:      -7.5      2.592      8.288
REMARK  Name = 
REMARK  6 active torsions:
REMARK  status: ('A' for Active; 'I' for Inactive)
REMARK    1  A    between atoms: C_1  and  C_2
REMARK    2  A    between atoms: C_4  and  C_5
REMARK    3  A    between atoms: C_6  and  C_7
REMARK    4  A    between atoms: N_14  and  C_15
REMARK    5  A    between atoms: C_15  and  C_16
REMARK    6  A    between atoms: C_16  and  C_17
REMARK                            x       y       z     vdW  Elec       q    Type
REMARK                         _______ _______ _______ _____ _____    ______ ____
ROOT
ATOM      1  C   UNL     1       4.319   6.166  17.560  0.00  0.00    +0.000 C 
ATOM      2  C   UNL     1       3.522   5.408  18.332  0.00  0.00    +0.000 C 
ATOM      3  C   UNL     1       3.494   3.905  18.389  0.00  0.00    +0.000 C 
ATOM      4  O   UNL     1       4.074   3.094  17.691  0.00  0.00    +0.000 OA
ATOM      5  N   UNL     1       2.577   3.608  19.348  0.00  0.00    +0.000 N 
ATOM      6  C   UNL     1       1.948   4.726  19.815  0.00  0.00    +0.000 C 
ATOM      7  O   UNL     1       1.007   4.699  20.589  0.00  0.00    +0.000 OA
ATOM      8  N   UNL     1       2.562   5.845  19.236  0.00  0.00    +0.000 N 
ATOM      9  H   UNL     1       2.291   2.674  19.581  0.00  0.00    +0.000 HD
ENDROOT
BRANCH   1  15
ATOM     10  C   UNL     1       6.218   3.896  13.663  0.00  0.00    +0.000 C 
ATOM     11  C   UNL     1       6.227   4.587  14.976  0.00  0.00    +0.000 A 
ATOM     12  C   UNL     1       7.263   4.832  15.854  0.00  0.00    +0.000 A 
ATOM     13  C   UNL     1       6.726   5.483  16.999  0.00  0.00    +0.000 A 
ATOM     14  C   UNL     1       7.484   5.899  18.208  0.00  0.00    +0.000 C 
ATOM     15  C   UNL     1       5.365   5.620  16.778  0.00  0.00    +0.000 A 
ATOM     16  N   UNL     1       5.081   5.088  15.544  0.00  0.00    +0.000 N 
ATOM     17  H   UNL     1       4.160   5.031  15.129  0.00  0.00    +0.000 HD
ENDBRANCH   1  15
BRANCH   8  18
ATOM     18  C   UNL     1       2.148   7.227  19.470  0.00  0.00    +0.000 C 
BRANCH  18  19
ATOM     19  C   UNL     1       1.834   7.559  20.939  0.00  0.00    +0.000 C 
BRANCH  19  20
ATOM     20  C   UNL     1       0.968   8.786  21.100  0.00  0.00    +0.000 A 
ATOM     21  C   UNL     1       0.648   9.582  19.990  0.00  0.00    +0.000 A 
ATOM     22  C   UNL     1      -0.169  10.704  20.137  0.00  0.00    +0.000 A 
ATOM     23  C   UNL     1      -0.671  11.043  21.391  0.00  0.00    +0.000 A 
ATOM     24  C   UNL     1      -0.360  10.257  22.500  0.00  0.00    +0.000 A 
ATOM     25  C   UNL     1       0.457   9.135  22.357  0.00  0.00    +0.000 A 
ENDBRANCH  19  20
ENDBRANCH  18  19
ENDBRANCH   8  18
TORSDOF 4
ENDMDL
MODEL 9
REMARK VINA RESULT:      -7.5      2.639      8.324
REMARK  Name = 
REMARK  6 active torsions:
REMARK  status: ('A' for Active; 'I' for Inactive)
REMARK    1  A    between atoms: C_1  and  C_2
REMARK    2  A    between atoms: C_4  and  C_5
REMARK    3  A    between atoms: C_6  and  C_7
REMARK    4  A    between atoms: N_14  and  C_15
REMARK    5  A    between atoms: C_15  and  C_16
REMARK    6  A    between atoms: C_16  and  C_17
REMARK                            x       y       z     vdW  Elec       q    Type
REMARK                         _______ _______ _______ _____ _____    ______ ____
ROOT
ATOM      1  C   UNL     1       4.272   6.280  17.573  0.00  0.00    +0.000 C 
ATOM      2  C   UNL     1       3.501   5.505  18.354  0.00  0.00    +0.000 C 
ATOM      3  C   UNL     1       3.518   4.002  18.421  0.00  0.00    +0.000 C 
ATOM      4  O   UNL     1       4.120   3.203  17.727  0.00  0.00    +0.000 OA
ATOM      5  N   UNL     1       2.614   3.685  19.387  0.00  0.00    +0.000 N 
ATOM      6  C   UNL     1       1.954   4.787  19.848  0.00  0.00    +0.000 C 
ATOM      7  O   UNL     1       1.017   4.737  20.626  0.00  0.00    +0.000 OA
ATOM      8  N   UNL     1       2.532   5.919  19.258  0.00  0.00    +0.000 N 
ATOM      9  H   UNL     1       2.358   2.744  19.628  0.00  0.00    +0.000 HD
ENDROOT
BRANCH   1  15
ATOM     10  C   UNL     1       6.214   3.938  13.740  0.00  0.00    +0.000 C 
ATOM     11  C   UNL     1       6.212   4.693  15.018  0.00  0.00    +0.000 A 
ATOM     12  C   UNL     1       7.251   5.042  15.856  0.00  0.00    +0.000 A 
ATOM     13  C   UNL     1       6.703   5.717  16.981  0.00  0.00    +0.000 A 
ATOM     14  C   UNL     1       7.462   6.236  18.149  0.00  0.00    +0.000 C 
ATOM     15  C   UNL     1       5.331   5.760  16.791  0.00  0.00    +0.000 A 
ATOM     16  N   UNL     1       5.051   5.152  15.591  0.00  0.00    +0.000 N 
ATOM     17  H   UNL     1       4.126   5.019  15.204  0.00  0.00    +0.000 HD
ENDBRANCH   1  15
BRANCH   8  18
ATOM     18  C   UNL     1       2.078   7.290  19.484  0.00  0.00    +0.000 C 
BRANCH  18  19
ATOM     19  C   UNL     1       1.843   7.649  20.961  0.00  0.00    +0.000 C 
BRANCH  19  20
ATOM     20  C   UNL     1       0.926   8.836  21.147  0.00  0.00    +0.000 A 
ATOM     21  C   UNL     1       0.432   9.160  22.418  0.00  0.00    +0.000 A 
ATOM     22  C   UNL     1      -0.398  10.268  22.593  0.00  0.00    +0.000 A 
ATOM     23  C   UNL     1      -0.745  11.059  21.500  0.00  0.00    +0.000 A 
ATOM     24  C   UNL     1      -0.258  10.746  20.232  0.00  0.00    +0.000 A 
ATOM     25  C   UNL     1       0.572   9.638  20.054  0.00  0.00    +0.000 A 
ENDBRANCH  19  20
ENDBRANCH  18  19
ENDBRANCH   8  18
TORSDOF 4
ENDMDL
