MODEL 1
REMARK VINA RESULT:      -7.8      0.000      0.000
REMARK  Name = 
REMARK  4 active torsions:
REMARK  status: ('A' for Active; 'I' for Inactive)
REMARK    1  A    between atoms: C_2  and  C_3
REMARK    2  A    between atoms: C_12  and  N_13
REMARK    3  A    between atoms: C_14  and  C_16
REMARK    4  A    between atoms: C_19  and  C_20
REMARK                            x       y       z     vdW  Elec       q    Type
REMARK                         _______ _______ _______ _____ _____    ______ ____
ROOT
ATOM      1  N   UNL     1       0.887   9.266  18.850  0.00  0.00    +0.000 N 
ATOM      2  C   UNL     1       1.871   8.493  18.289  0.00  0.00    +0.000 C 
ATOM      3  O   UNL     1       2.526   8.853  17.313  0.00  0.00    +0.000 OA
ATOM      4  H   UNL     1       0.412   8.925  19.686  0.00  0.00    +0.000 HD
ENDROOT
BRANCH   1  14
ATOM      5  C   UNL     1      -3.002  11.790  19.128  0.00  0.00    +0.000 A 
ATOM      6  C   UNL     1      -3.678  11.187  18.059  0.00  0.00    +0.000 A 
ATOM      7  C   UNL     1      -2.987  10.399  17.143  0.00  0.00    +0.000 A 
ATOM      8  C   UNL     1      -1.613  10.222  17.280  0.00  0.00    +0.000 A 
ATOM      9  C   UNL     1      -0.906  10.830  18.331  0.00  0.00    +0.000 A 
ATOM     10  C   UNL     1      -1.609  11.606  19.286  0.00  0.00    +0.000 A 
ATOM     11  C   UNL     1      -0.875  12.292  20.418  0.00  0.00    +0.000 C 
ATOM     12  C   UNL     1       0.539  11.762  20.645  0.00  0.00    +0.000 C 
ATOM     13  C   UNL     1       1.276  11.656  19.317  0.00  0.00    +0.000 C 
ATOM     14  C   UNL     1       0.599  10.622  18.407  0.00  0.00    +0.000 C 
BRANCH   5  16
ATOM     15  N   UNL     1      -4.369  13.278  20.766  0.00  0.00    +0.000 NA
ATOM     16  C   UNL     1      -3.760  12.611  20.033  0.00  0.00    +0.000 C 
ENDBRANCH   5  16
ENDBRANCH   1  14
BRANCH   2  17
ATOM     17  C   UNL     1       2.106   7.169  18.940  0.00  0.00    +0.000 A 
ATOM     18  C   UNL     1       2.546   6.145  18.181  0.00  0.00    +0.000 A 
ATOM     19  C   UNL     1       2.784   4.829  18.735  0.00  0.00    +0.000 A 
ATOM     20  C   UNL     1       2.530   4.577  20.031  0.00  0.00    +0.000 A 
ATOM     21  N   UNL     1       2.074   5.617  20.826  0.00  0.00    +0.000 N 
ATOM     22  C   UNL     1       1.878   6.907  20.393  0.00  0.00    +0.000 A 
ATOM     23  O   UNL     1       1.531   7.789  21.173  0.00  0.00    +0.000 OA
ATOM     24  H   UNL     1       1.892   5.447  21.811  0.00  0.00    +0.000 HD
BRANCH  20  25
ATOM     25  C   UNL     1       2.728   3.216  20.659  0.00  0.00    +0.000 C 
ATOM     26  F   UNL     1       2.518   3.254  22.003  0.00  0.00    +0.000 F 
ATOM     27  F   UNL     1       1.872   2.294  20.152  0.00  0.00    +0.000 F 
ATOM     28  F   UNL     1       3.985   2.746  20.470  0.00  0.00    +0.000 F 
ENDBRANCH  20  25
ENDBRANCH   2  17
TORSDOF 4
ENDMDL
MODEL 2
REMARK VINA RESULT:      -7.6      1.307      1.800
REMARK  Name = 
REMARK  4 active torsions:
REMARK  status: ('A' for Active; 'I' for Inactive)
REMARK    1  A    between atoms: C_2  and  C_3
REMARK    2  A    between atoms: C_12  and  N_13
REMARK    3  A    between atoms: C_14  and  C_16
REMARK    4  A    between atoms: C_19  and  C_20
REMARK                            x       y       z     vdW  Elec       q    Type
REMARK                         _______ _______ _______ _____ _____    ______ ____
ROOT
ATOM      1  N   UNL     1      -0.015  10.377  18.785  0.00  0.00    +0.000 N 
ATOM      2  C   UNL     1       1.300  10.061  18.558  0.00  0.00    +0.000 C 
ATOM      3  O   UNL     1       2.093  10.845  18.041  0.00  0.00    +0.000 OA
ATOM      4  H   UNL     1      -0.609   9.695  19.258  0.00  0.00    +0.000 HD
ENDROOT
BRANCH   1  14
ATOM      5  C   UNL     1      -4.416  11.841  18.540  0.00  0.00    +0.000 A 
ATOM      6  C   UNL     1      -4.685  11.368  17.250  0.00  0.00    +0.000 A 
ATOM      7  C   UNL     1      -3.645  10.988  16.407  0.00  0.00    +0.000 A 
ATOM      8  C   UNL     1      -2.327  11.093  16.844  0.00  0.00    +0.000 A 
ATOM      9  C   UNL     1      -2.027  11.581  18.126  0.00  0.00    +0.000 A 
ATOM     10  C   UNL     1      -3.083  11.938  19.000  0.00  0.00    +0.000 A 
ATOM     11  C   UNL     1      -2.792  12.488  20.381  0.00  0.00    +0.000 C 
ATOM     12  C   UNL     1      -1.360  12.247  20.851  0.00  0.00    +0.000 C 
ATOM     13  C   UNL     1      -0.379  12.618  19.746  0.00  0.00    +0.000 C 
ATOM     14  C   UNL     1      -0.565  11.700  18.531  0.00  0.00    +0.000 C 
BRANCH   5  16
ATOM     15  N   UNL     1      -6.426  12.559  20.027  0.00  0.00    +0.000 NA
ATOM     16  C   UNL     1      -5.527  12.240  19.362  0.00  0.00    +0.000 C 
ENDBRANCH   5  16
ENDBRANCH   1  14
BRANCH   2  17
ATOM     17  C   UNL     1       1.720   8.690  18.979  0.00  0.00    +0.000 A 
ATOM     18  C   UNL     1       2.251   7.865  18.054  0.00  0.00    +0.000 A 
ATOM     19  C   UNL     1       2.669   6.519  18.382  0.00  0.00    +0.000 A 
ATOM     20  C   UNL     1       2.500   6.033  19.624  0.00  0.00    +0.000 A 
ATOM     21  N   UNL     1       1.953   6.866  20.586  0.00  0.00    +0.000 N 
ATOM     22  C   UNL     1       1.584   8.173  20.374  0.00  0.00    +0.000 A 
ATOM     23  O   UNL     1       1.164   8.869  21.294  0.00  0.00    +0.000 OA
ATOM     24  H   UNL     1       1.832   6.519  21.535  0.00  0.00    +0.000 HD
BRANCH  20  25
ATOM     25  C   UNL     1       2.887   4.625  20.018  0.00  0.00    +0.000 C 
ATOM     26  F   UNL     1       2.200   3.701  19.294  0.00  0.00    +0.000 F 
ATOM     27  F   UNL     1       4.206   4.386  19.813  0.00  0.00    +0.000 F 
ATOM     28  F   UNL     1       2.630   4.373  21.325  0.00  0.00    +0.000 F 
ENDBRANCH  20  25
ENDBRANCH   2  17
TORSDOF 4
ENDMDL
MODEL 3
REMARK VINA RESULT:      -7.2      1.001      1.178
REMARK  Name = 
REMARK  4 active torsions:
REMARK  status: ('A' for Active; 'I' for Inactive)
REMARK    1  A    between atoms: C_2  and  C_3
REMARK    2  A    between atoms: C_12  and  N_13
REMARK    3  A    between atoms: C_14  and  C_16
REMARK    4  A    between atoms: C_19  and  C_20
REMARK                            x       y       z     vdW  Elec       q    Type
REMARK                         _______ _______ _______ _____ _____    ______ ____
ROOT
ATOM      1  N   UNL     1       0.487  10.118  19.018  0.00  0.00    +0.000 N 
ATOM      2  C   UNL     1       1.587   9.576  18.404  0.00  0.00    +0.000 C 
ATOM      3  O   UNL     1       2.266  10.194  17.588  0.00  0.00    +0.000 OA
ATOM      4  H   UNL     1      -0.007   9.565  19.719  0.00  0.00    +0.000 HD
ENDROOT
BRANCH   1  14
ATOM      5  C   UNL     1      -3.637  12.184  19.574  0.00  0.00    +0.000 A 
ATOM      6  C   UNL     1      -4.211  11.752  18.371  0.00  0.00    +0.000 A 
ATOM      7  C   UNL     1      -3.413  11.230  17.357  0.00  0.00    +0.000 A 
ATOM      8  C   UNL     1      -2.035  11.149  17.532  0.00  0.00    +0.000 A 
ATOM      9  C   UNL     1      -1.430  11.592  18.720  0.00  0.00    +0.000 A 
ATOM     10  C   UNL     1      -2.239  12.093  19.769  0.00  0.00    +0.000 A 
ATOM     11  C   UNL     1      -1.617  12.598  21.054  0.00  0.00    +0.000 C 
ATOM     12  C   UNL     1      -0.168  12.159  21.250  0.00  0.00    +0.000 C 
ATOM     13  C   UNL     1       0.624  12.389  19.969  0.00  0.00    +0.000 C 
ATOM     14  C   UNL     1       0.085  11.505  18.837  0.00  0.00    +0.000 C 
BRANCH   5  16
ATOM     15  N   UNL     1      -5.201  13.180  21.397  0.00  0.00    +0.000 NA
ATOM     16  C   UNL     1      -4.503  12.735  20.580  0.00  0.00    +0.000 C 
ENDBRANCH   5  16
ENDBRANCH   1  14
BRANCH   2  17
ATOM     17  C   UNL     1       1.917   8.170  18.790  0.00  0.00    +0.000 A 
ATOM     18  C   UNL     1       2.310   7.313  17.827  0.00  0.00    +0.000 A 
ATOM     19  C   UNL     1       2.635   5.932  18.118  0.00  0.00    +0.000 A 
ATOM     20  C   UNL     1       2.511   5.450  19.368  0.00  0.00    +0.000 A 
ATOM     21  N   UNL     1       2.104   6.317  20.369  0.00  0.00    +0.000 N 
ATOM     22  C   UNL     1       1.834   7.652  20.189  0.00  0.00    +0.000 A 
ATOM     23  O   UNL     1       1.539   8.372  21.139  0.00  0.00    +0.000 OA
ATOM     24  H   UNL     1       2.021   5.972  21.322  0.00  0.00    +0.000 HD
BRANCH  20  25
ATOM     25  C   UNL     1       2.803   4.010  19.727  0.00  0.00    +0.000 C 
ATOM     26  F   UNL     1       3.974   3.897  20.409  0.00  0.00    +0.000 F 
ATOM     27  F   UNL     1       1.835   3.477  20.513  0.00  0.00    +0.000 F 
ATOM     28  F   UNL     1       2.909   3.223  18.628  0.00  0.00    +0.000 F 
ENDBRANCH  20  25
ENDBRANCH   2  17
TORSDOF 4
ENDMDL
MODEL 4
REMARK VINA RESULT:      -7.1      1.772      2.617
REMARK  Name = 
REMARK  4 active torsions:
REMARK  status: ('A' for Active; 'I' for Inactive)
REMARK    1  A    between atoms: C_2  and  C_3
REMARK    2  A    between atoms: C_12  and  N_13
REMARK    3  A    between atoms: C_14  and  C_16
REMARK    4  A    between atoms: C_19  and  C_20
REMARK                            x       y       z     vdW  Elec       q    Type
REMARK                         _______ _______ _______ _____ _____    ______ ____
ROOT
ATOM      1  N   UNL     1      -0.615  11.018  19.356  0.00  0.00    +0.000 N 
ATOM      2  C   UNL     1       0.677  10.839  18.933  0.00  0.00    +0.000 C 
ATOM      3  O   UNL     1       1.318  11.717  18.360  0.00  0.00    +0.000 OA
ATOM      4  H   UNL     1      -1.074  10.262  19.865  0.00  0.00    +0.000 HD
ENDROOT
BRANCH   1  14
ATOM      5  C   UNL     1      -5.143  12.036  19.542  0.00  0.00    +0.000 A 
ATOM      6  C   UNL     1      -5.463  11.643  18.236  0.00  0.00    +0.000 A 
ATOM      7  C   UNL     1      -4.458  11.442  17.294  0.00  0.00    +0.000 A 
ATOM      8  C   UNL     1      -3.128  11.646  17.647  0.00  0.00    +0.000 A 
ATOM      9  C   UNL     1      -2.779  12.058  18.944  0.00  0.00    +0.000 A 
ATOM     10  C   UNL     1      -3.794  12.232  19.916  0.00  0.00    +0.000 A 
ATOM     11  C   UNL     1      -3.454  12.696  21.317  0.00  0.00    +0.000 C 
ATOM     12  C   UNL     1      -1.973  12.566  21.666  0.00  0.00    +0.000 C 
ATOM     13  C   UNL     1      -1.120  13.125  20.534  0.00  0.00    +0.000 C 
ATOM     14  C   UNL     1      -1.308  12.293  19.257  0.00  0.00    +0.000 C 
BRANCH   5  16
ATOM     15  N   UNL     1      -7.094  12.420  21.218  0.00  0.00    +0.000 NA
ATOM     16  C   UNL     1      -6.221  12.251  20.469  0.00  0.00    +0.000 C 
ENDBRANCH   5  16
ENDBRANCH   1  14
BRANCH   2  17
ATOM     17  C   UNL     1       1.271   9.496  19.212  0.00  0.00    +0.000 A 
ATOM     18  C   UNL     1       1.870   8.833  18.203  0.00  0.00    +0.000 A 
ATOM     19  C   UNL     1       2.457   7.523  18.391  0.00  0.00    +0.000 A 
ATOM     20  C   UNL     1       2.381   6.905  19.582  0.00  0.00    +0.000 A 
ATOM     21  N   UNL     1       1.765   7.570  20.630  0.00  0.00    +0.000 N 
ATOM     22  C   UNL     1       1.236   8.836  20.552  0.00  0.00    +0.000 A 
ATOM     23  O   UNL     1       0.761   9.385  21.542  0.00  0.00    +0.000 OA
ATOM     24  H   UNL     1       1.714   7.122  21.542  0.00  0.00    +0.000 HD
BRANCH  20  25
ATOM     25  C   UNL     1       2.946   5.523  19.831  0.00  0.00    +0.000 C 
ATOM     26  F   UNL     1       2.635   4.671  18.817  0.00  0.00    +0.000 F 
ATOM     27  F   UNL     1       4.298   5.539  19.934  0.00  0.00    +0.000 F 
ATOM     28  F   UNL     1       2.461   4.974  20.971  0.00  0.00    +0.000 F 
ENDBRANCH  20  25
ENDBRANCH   2  17
TORSDOF 4
ENDMDL
MODEL 5
REMARK VINA RESULT:      -7.1      1.369      1.831
REMARK  Name = 
REMARK  4 active torsions:
REMARK  status: ('A' for Active; 'I' for Inactive)
REMARK    1  A    between atoms: C_2  and  C_3
REMARK    2  A    between atoms: C_12  and  N_13
REMARK    3  A    between atoms: C_14  and  C_16
REMARK    4  A    between atoms: C_19  and  C_20
REMARK                            x       y       z     vdW  Elec       q    Type
REMARK                         _______ _______ _______ _____ _____    ______ ____
ROOT
ATOM      1  N   UNL     1       0.136  10.666  19.792  0.00  0.00    +0.000 N 
ATOM      2  C   UNL     1       1.185  10.200  19.042  0.00  0.00    +0.000 C 
ATOM      3  O   UNL     1       1.743  10.880  18.183  0.00  0.00    +0.000 OA
ATOM      4  H   UNL     1      -0.253  10.064  20.519  0.00  0.00    +0.000 HD
ENDROOT
BRANCH   1  14
ATOM      5  C   UNL     1      -4.137  12.419  20.282  0.00  0.00    +0.000 A 
ATOM      6  C   UNL     1      -4.615  12.070  19.012  0.00  0.00    +0.000 A 
ATOM      7  C   UNL     1      -3.731  11.693  18.005  0.00  0.00    +0.000 A 
ATOM      8  C   UNL     1      -2.362  11.679  18.256  0.00  0.00    +0.000 A 
ATOM      9  C   UNL     1      -1.853  12.043  19.514  0.00  0.00    +0.000 A 
ATOM     10  C   UNL     1      -2.750  12.395  20.552  0.00  0.00    +0.000 A 
ATOM     11  C   UNL     1      -2.233  12.813  21.913  0.00  0.00    +0.000 C 
ATOM     12  C   UNL     1      -0.772  12.444  22.156  0.00  0.00    +0.000 C 
ATOM     13  C   UNL     1       0.073  12.841  20.952  0.00  0.00    +0.000 C 
ATOM     14  C   UNL     1      -0.345  12.036  19.713  0.00  0.00    +0.000 C 
BRANCH   5  16
ATOM     15  N   UNL     1      -5.868  13.144  22.083  0.00  0.00    +0.000 NA
ATOM     16  C   UNL     1      -5.092  12.820  21.280  0.00  0.00    +0.000 C 
ENDBRANCH   5  16
ENDBRANCH   1  14
BRANCH   2  17
ATOM     17  C   UNL     1       1.618   8.799  19.331  0.00  0.00    +0.000 A 
ATOM     18  C   UNL     1       2.136   8.064  18.326  0.00  0.00    +0.000 A 
ATOM     19  C   UNL     1       2.566   6.696  18.523  0.00  0.00    +0.000 A 
ATOM     20  C   UNL     1       2.420   6.099  19.719  0.00  0.00    +0.000 A 
ATOM     21  N   UNL     1       1.886   6.839  20.762  0.00  0.00    +0.000 N 
ATOM     22  C   UNL     1       1.508   8.158  20.675  0.00  0.00    +0.000 A 
ATOM     23  O   UNL     1       1.101   8.765  21.661  0.00  0.00    +0.000 OA
ATOM     24  H   UNL     1       1.784   6.407  21.677  0.00  0.00    +0.000 HD
BRANCH  20  25
ATOM     25  C   UNL     1       2.819   4.663  19.977  0.00  0.00    +0.000 C 
ATOM     26  F   UNL     1       2.586   4.308  21.269  0.00  0.00    +0.000 F 
ATOM     27  F   UNL     1       2.127   3.796  19.197  0.00  0.00    +0.000 F 
ATOM     28  F   UNL     1       4.138   4.452  19.743  0.00  0.00    +0.000 F 
ENDBRANCH  20  25
ENDBRANCH   2  17
TORSDOF 4
ENDMDL
MODEL 6
REMARK VINA RESULT:      -7.0      4.729      8.653
REMARK  Name = 
REMARK  4 active torsions:
REMARK  status: ('A' for Active; 'I' for Inactive)
REMARK    1  A    between atoms: C_2  and  C_3
REMARK    2  A    between atoms: C_12  and  N_13
REMARK    3  A    between atoms: C_14  and  C_16
REMARK    4  A    between atoms: C_19  and  C_20
REMARK                            x       y       z     vdW  Elec       q    Type
REMARK                         _______ _______ _______ _____ _____    ______ ____
ROOT
ATOM      1  N   UNL     1       4.405   6.223  18.773  0.00  0.00    +0.000 N 
ATOM      2  C   UNL     1       3.217   5.957  19.405  0.00  0.00    +0.000 C 
ATOM      3  O   UNL     1       2.879   4.823  19.735  0.00  0.00    +0.000 OA
ATOM      4  H   UNL     1       4.644   7.194  18.566  0.00  0.00    +0.000 HD
ENDROOT
BRANCH   1  14
ATOM      5  C   UNL     1       6.553   4.957  14.854  0.00  0.00    +0.000 A 
ATOM      6  C   UNL     1       5.507   4.194  14.321  0.00  0.00    +0.000 A 
ATOM      7  C   UNL     1       4.445   3.793  15.127  0.00  0.00    +0.000 A 
ATOM      8  C   UNL     1       4.431   4.138  16.475  0.00  0.00    +0.000 A 
ATOM      9  C   UNL     1       5.476   4.887  17.041  0.00  0.00    +0.000 A 
ATOM     10  C   UNL     1       6.542   5.327  16.218  0.00  0.00    +0.000 A 
ATOM     11  C   UNL     1       7.695   6.117  16.802  0.00  0.00    +0.000 C 
ATOM     12  C   UNL     1       7.404   6.701  18.182  0.00  0.00    +0.000 C 
ATOM     13  C   UNL     1       6.781   5.639  19.077  0.00  0.00    +0.000 C 
ATOM     14  C   UNL     1       5.415   5.205  18.527  0.00  0.00    +0.000 C 
BRANCH   5  16
ATOM     15  N   UNL     1       8.509   5.631  13.277  0.00  0.00    +0.000 NA
ATOM     16  C   UNL     1       7.636   5.327  13.982  0.00  0.00    +0.000 C 
ENDBRANCH   5  16
ENDBRANCH   1  14
BRANCH   2  17
ATOM     17  C   UNL     1       2.346   7.141  19.674  0.00  0.00    +0.000 A 
ATOM     18  C   UNL     1       1.700   7.212  20.855  0.00  0.00    +0.000 A 
ATOM     19  C   UNL     1       0.828   8.319  21.185  0.00  0.00    +0.000 A 
ATOM     20  C   UNL     1       0.602   9.300  20.293  0.00  0.00    +0.000 A 
ATOM     21  N   UNL     1       1.254   9.241  19.072  0.00  0.00    +0.000 N 
ATOM     22  C   UNL     1       2.141   8.258  18.703  0.00  0.00    +0.000 A 
ATOM     23  O   UNL     1       2.728   8.308  17.626  0.00  0.00    +0.000 OA
ATOM     24  H   UNL     1       1.105   9.983  18.392  0.00  0.00    +0.000 HD
BRANCH  20  25
ATOM     25  C   UNL     1      -0.324  10.464  20.567  0.00  0.00    +0.000 C 
ATOM     26  F   UNL     1      -1.332  10.522  19.656  0.00  0.00    +0.000 F 
ATOM     27  F   UNL     1      -0.901  10.376  21.791  0.00  0.00    +0.000 F 
ATOM     28  F   UNL     1       0.326  11.653  20.513  0.00  0.00    +0.000 F 
ENDBRANCH  20  25
ENDBRANCH   2  17
TORSDOF 4
ENDMDL
MODEL 7
REMARK VINA RESULT:      -7.0      2.202      3.137
REMARK  Name = 
REMARK  4 active torsions:
REMARK  status: ('A' for Active; 'I' for Inactive)
REMARK    1  A    between atoms: C_2  and  C_3
REMARK    2  A    between atoms: C_12  and  N_13
REMARK    3  A    between atoms: C_14  and  C_16
REMARK    4  A    between atoms: C_19  and  C_20
REMARK                            x       y       z     vdW  Elec       q    Type
REMARK                         _______ _______ _______ _____ _____    ______ ____
ROOT
ATOM      1  N   UNL     1      -0.467  11.420  20.479  0.00  0.00    +0.000 N 
ATOM      2  C   UNL     1       0.502  11.117  19.557  0.00  0.00    +0.000 C 
ATOM      3  O   UNL     1       0.870  11.910  18.694  0.00  0.00    +0.000 OA
ATOM      4  H   UNL     1      -0.694  10.730  21.197  0.00  0.00    +0.000 HD
ENDROOT
BRANCH   1  14
ATOM      5  C   UNL     1      -4.766  12.701  21.683  0.00  0.00    +0.000 A 
ATOM      6  C   UNL     1      -5.385  12.402  20.463  0.00  0.00    +0.000 A 
ATOM      7  C   UNL     1      -4.621  12.191  19.318  0.00  0.00    +0.000 A 
ATOM      8  C   UNL     1      -3.235  12.294  19.383  0.00  0.00    +0.000 A 
ATOM      9  C   UNL     1      -2.588  12.611  20.589  0.00  0.00    +0.000 A 
ATOM     10  C   UNL     1      -3.358  12.794  21.764  0.00  0.00    +0.000 A 
ATOM     11  C   UNL     1      -2.693  13.158  23.075  0.00  0.00    +0.000 C 
ATOM     12  C   UNL     1      -1.186  12.919  23.089  0.00  0.00    +0.000 C 
ATOM     13  C   UNL     1      -0.556  13.485  21.823  0.00  0.00    +0.000 C 
ATOM     14  C   UNL     1      -1.072  12.739  20.585  0.00  0.00    +0.000 C 
BRANCH   5  16
ATOM     15  N   UNL     1      -6.278  13.121  23.757  0.00  0.00    +0.000 NA
ATOM     16  C   UNL     1      -5.603  12.931  22.830  0.00  0.00    +0.000 C 
ENDBRANCH   5  16
ENDBRANCH   1  14
BRANCH   2  17
ATOM     17  C   UNL     1       1.093   9.748  19.662  0.00  0.00    +0.000 A 
ATOM     18  C   UNL     1       1.585   9.171  18.548  0.00  0.00    +0.000 A 
ATOM     19  C   UNL     1       2.162   7.843  18.566  0.00  0.00    +0.000 A 
ATOM     20  C   UNL     1       2.183   7.122  19.701  0.00  0.00    +0.000 A 
ATOM     21  N   UNL     1       1.677   7.699  20.855  0.00  0.00    +0.000 N 
ATOM     22  C   UNL     1       1.167   8.973  20.936  0.00  0.00    +0.000 A 
ATOM     23  O   UNL     1       0.794   9.437  22.010  0.00  0.00    +0.000 OA
ATOM     24  H   UNL     1       1.700   7.173  21.725  0.00  0.00    +0.000 HD
BRANCH  20  25
ATOM     25  C   UNL     1       2.741   5.719  19.775  0.00  0.00    +0.000 C 
ATOM     26  F   UNL     1       4.101   5.727  19.811  0.00  0.00    +0.000 F 
ATOM     27  F   UNL     1       2.320   5.063  20.885  0.00  0.00    +0.000 F 
ATOM     28  F   UNL     1       2.379   4.971  18.703  0.00  0.00    +0.000 F 
ENDBRANCH  20  25
ENDBRANCH   2  17
TORSDOF 4
ENDMDL
MODEL 8
REMARK VINA RESULT:      -7.0      1.001      1.561
REMARK  Name = 
REMARK  4 active torsions:
REMARK  status: ('A' for Active; 'I' for Inactive)
REMARK    1  A    between atoms: C_2  and  C_3
REMARK    2  A    between atoms: C_12  and  N_13
REMARK    3  A    between atoms: C_14  and  C_16
REMARK    4  A    between atoms: C_19  and  C_20
REMARK                            x       y       z     vdW  Elec       q    Type
REMARK                         _______ _______ _______ _____ _____    ______ ____
ROOT
ATOM      1  N   UNL     1       1.082   8.915  18.829  0.00  0.00    +0.000 N 
ATOM      2  C   UNL     1       2.175   8.188  18.432  0.00  0.00    +0.000 C 
ATOM      3  O   UNL     1       3.003   8.616  17.631  0.00  0.00    +0.000 OA
ATOM      4  H   UNL     1       0.457   8.516  19.531  0.00  0.00    +0.000 HD
ENDROOT
BRANCH   1  14
ATOM      5  C   UNL     1      -2.724  11.569  19.047  0.00  0.00    +0.000 A 
ATOM      6  C   UNL     1      -3.379  11.024  17.935  0.00  0.00    +0.000 A 
ATOM      7  C   UNL     1      -2.682  10.241  17.020  0.00  0.00    +0.000 A 
ATOM      8  C   UNL     1      -1.322  10.009  17.201  0.00  0.00    +0.000 A 
ATOM      9  C   UNL     1      -0.635  10.558  18.297  0.00  0.00    +0.000 A 
ATOM     10  C   UNL     1      -1.345  11.328  19.250  0.00  0.00    +0.000 A 
ATOM     11  C   UNL     1      -0.630  11.952  20.430  0.00  0.00    +0.000 C 
ATOM     12  C   UNL     1       0.754  11.364  20.692  0.00  0.00    +0.000 C 
ATOM     13  C   UNL     1       1.537  11.273  19.388  0.00  0.00    +0.000 C 
ATOM     14  C   UNL     1       0.859  10.293  18.420  0.00  0.00    +0.000 C 
BRANCH   5  16
ATOM     15  N   UNL     1      -4.099  13.049  20.684  0.00  0.00    +0.000 NA
ATOM     16  C   UNL     1      -3.486  12.388  19.950  0.00  0.00    +0.000 C 
ENDBRANCH   5  16
ENDBRANCH   1  14
BRANCH   2  17
ATOM     17  C   UNL     1       2.304   6.827  19.036  0.00  0.00    +0.000 A 
ATOM     18  C   UNL     1       1.670   6.575  20.198  0.00  0.00    +0.000 A 
ATOM     19  C   UNL     1       1.757   5.286  20.852  0.00  0.00    +0.000 A 
ATOM     20  C   UNL     1       2.516   4.305  20.333  0.00  0.00    +0.000 A 
ATOM     21  N   UNL     1       3.178   4.548  19.140  0.00  0.00    +0.000 N 
ATOM     22  C   UNL     1       3.102   5.721  18.426  0.00  0.00    +0.000 A 
ATOM     23  O   UNL     1       3.668   5.839  17.343  0.00  0.00    +0.000 OA
ATOM     24  H   UNL     1       3.743   3.812  18.725  0.00  0.00    +0.000 HD
BRANCH  20  25
ATOM     25  C   UNL     1       2.672   2.950  20.986  0.00  0.00    +0.000 C 
ATOM     26  F   UNL     1       1.755   2.063  20.514  0.00  0.00    +0.000 F 
ATOM     27  F   UNL     1       3.896   2.414  20.756  0.00  0.00    +0.000 F 
ATOM     28  F   UNL     1       2.506   3.012  22.330  0.00  0.00    +0.000 F 
ENDBRANCH  20  25
ENDBRANCH   2  17
TORSDOF 4
ENDMDL
MODEL 9
REMARK VINA RESULT:      -6.8      2.510      3.425
REMARK  Name = 
REMARK  4 active torsions:
REMARK  status: ('A' for Active; 'I' for Inactive)
REMARK    1  A    between atoms: C_2  and  C_3
REMARK    2  A    between atoms: C_12  and  N_13
REMARK    3  A    between atoms: C_14  and  C_16
REMARK    4  A    between atoms: C_19  and  C_20
REMARK                            x       y       z     vdW  Elec       q    Type
REMARK                         _______ _______ _______ _____ _____    ______ ____
ROOT
ATOM      1  N   UNL     1       0.840  11.349  19.820  0.00  0.00    +0.000 N 
ATOM      2  C   UNL     1       0.501  10.307  18.994  0.00  0.00    +0.000 C 
ATOM      3  O   UNL     1      -0.407  10.381  18.170  0.00  0.00    +0.000 OA
ATOM      4  H   UNL     1       1.634  11.235  20.452  0.00  0.00    +0.000 HD
ENDROOT
BRANCH   1  14
ATOM      5  C   UNL     1      -1.204  13.990  23.048  0.00  0.00    +0.000 A 
ATOM      6  C   UNL     1      -2.428  13.309  23.080  0.00  0.00    +0.000 A 
ATOM      7  C   UNL     1      -2.768  12.422  22.062  0.00  0.00    +0.000 A 
ATOM      8  C   UNL     1      -1.894  12.222  20.998  0.00  0.00    +0.000 A 
ATOM      9  C   UNL     1      -0.669  12.905  20.930  0.00  0.00    +0.000 A 
ATOM     10  C   UNL     1      -0.302  13.783  21.979  0.00  0.00    +0.000 A 
ATOM     11  C   UNL     1       1.002  14.552  21.926  0.00  0.00    +0.000 C 
ATOM     12  C   UNL     1       1.996  14.008  20.902  0.00  0.00    +0.000 C 
ATOM     13  C   UNL     1       1.292  13.760  19.574  0.00  0.00    +0.000 C 
ATOM     14  C   UNL     1       0.228  12.665  19.724  0.00  0.00    +0.000 C 
BRANCH   5  16
ATOM     15  N   UNL     1      -0.674  15.651  24.977  0.00  0.00    +0.000 NA
ATOM     16  C   UNL     1      -0.912  14.910  24.113  0.00  0.00    +0.000 C 
ENDBRANCH   5  16
ENDBRANCH   1  14
BRANCH   2  17
ATOM     17  C   UNL     1       1.308   9.060  19.157  0.00  0.00    +0.000 A 
ATOM     18  C   UNL     1       1.937   8.553  18.077  0.00  0.00    +0.000 A 
ATOM     19  C   UNL     1       2.727   7.342  18.152  0.00  0.00    +0.000 A 
ATOM     20  C   UNL     1       2.822   6.658  19.305  0.00  0.00    +0.000 A 
ATOM     21  N   UNL     1       2.180   7.163  20.424  0.00  0.00    +0.000 N 
ATOM     22  C   UNL     1       1.460   8.334  20.453  0.00  0.00    +0.000 A 
ATOM     23  O   UNL     1       0.971   8.749  21.500  0.00  0.00    +0.000 OA
ATOM     24  H   UNL     1       2.255   6.666  21.308  0.00  0.00    +0.000 HD
BRANCH  20  25
ATOM     25  C   UNL     1       3.605   5.370  19.436  0.00  0.00    +0.000 C 
ATOM     26  F   UNL     1       3.130   4.602  20.453  0.00  0.00    +0.000 F 
ATOM     27  F   UNL     1       3.538   4.619  18.309  0.00  0.00    +0.000 F 
ATOM     28  F   UNL     1       4.917   5.597  19.693  0.00  0.00    +0.000 F 
ENDBRANCH  20  25
ENDBRANCH   2  17
TORSDOF 4
ENDMDL
