MODEL 1
REMARK VINA RESULT:      -7.7      0.000      0.000
REMARK  Name = 
REMARK  1 active torsions:
REMARK  status: ('A' for Active; 'I' for Inactive)
REMARK    1  A    between atoms: C_4  and  C_5
REMARK                            x       y       z     vdW  Elec       q    Type
REMARK                         _______ _______ _______ _____ _____    ______ ____
ROOT
ATOM      1  O   UNL     1       6.323   3.653  14.228  0.00  0.00    +0.000 OA
ATOM      2  C   UNL     1       6.352   4.325  15.256  0.00  0.00    +0.000 C 
ATOM      3  C   UNL     1       5.359   5.444  15.509  0.00  0.00    +0.000 C 
ATOM      4  C   UNL     1       4.958   5.586  16.983  0.00  0.00    +0.000 C 
ATOM      5  N   UNL     1       6.121   5.373  17.836  0.00  0.00    +0.000 N 
ATOM      6  C   UNL     1       6.313   5.762  19.133  0.00  0.00    +0.000 A 
ATOM      7  C   UNL     1       7.564   5.275  19.455  0.00  0.00    +0.000 A 
ATOM      8  N   UNL     1       8.128   4.622  18.389  0.00  0.00    +0.000 NA
ATOM      9  C   UNL     1       7.243   4.708  17.426  0.00  0.00    +0.000 A 
ATOM     10  N   UNL     1       7.341   4.161  16.183  0.00  0.00    +0.000 N 
ATOM     11  H   UNL     1       8.106   3.525  16.002  0.00  0.00    +0.000 HD
ENDROOT
BRANCH   4  12
ATOM     12  C   UNL     1       3.796   4.685  17.400  0.00  0.00    +0.000 A 
ATOM     13  C   UNL     1       3.912   3.287  17.273  0.00  0.00    +0.000 A 
ATOM     14  C   UNL     1       2.890   2.425  17.677  0.00  0.00    +0.000 A 
ATOM     15  C   UNL     1       1.726   2.937  18.231  0.00  0.00    +0.000 A 
ATOM     16  C   UNL     1       1.572   4.314  18.356  0.00  0.00    +0.000 A 
ATOM     17  C   UNL     1       2.588   5.185  17.931  0.00  0.00    +0.000 A 
ATOM     18 CL   UNL     1       2.260   6.876  18.072  0.00  0.00    +0.000 Cl
ENDBRANCH   4  12
TORSDOF 1
ENDMDL
MODEL 2
REMARK VINA RESULT:      -7.5      2.473      3.531
REMARK  Name = 
REMARK  1 active torsions:
REMARK  status: ('A' for Active; 'I' for Inactive)
REMARK    1  A    between atoms: C_4  and  C_5
REMARK                            x       y       z     vdW  Elec       q    Type
REMARK                         _______ _______ _______ _____ _____    ______ ____
ROOT
ATOM      1  O   UNL     1       7.954   7.770  18.190  0.00  0.00    +0.000 OA
ATOM      2  C   UNL     1       7.623   6.700  17.684  0.00  0.00    +0.000 C 
ATOM      3  C   UNL     1       7.331   5.473  18.527  0.00  0.00    +0.000 C 
ATOM      4  C   UNL     1       6.210   4.593  17.960  0.00  0.00    +0.000 C 
ATOM      5  N   UNL     1       6.316   4.529  16.507  0.00  0.00    +0.000 N 
ATOM      6  C   UNL     1       5.794   3.600  15.651  0.00  0.00    +0.000 A 
ATOM      7  C   UNL     1       6.168   4.038  14.397  0.00  0.00    +0.000 A 
ATOM      8  N   UNL     1       6.908   5.191  14.480  0.00  0.00    +0.000 NA
ATOM      9  C   UNL     1       6.991   5.455  15.761  0.00  0.00    +0.000 A 
ATOM     10  N   UNL     1       7.594   6.535  16.329  0.00  0.00    +0.000 N 
ATOM     11  H   UNL     1       7.911   7.278  15.721  0.00  0.00    +0.000 HD
ENDROOT
BRANCH   4  12
ATOM     12  C   UNL     1       4.807   5.018  18.392  0.00  0.00    +0.000 A 
ATOM     13  C   UNL     1       4.294   6.263  17.978  0.00  0.00    +0.000 A 
ATOM     14  C   UNL     1       3.004   6.676  18.319  0.00  0.00    +0.000 A 
ATOM     15  C   UNL     1       2.184   5.850  19.073  0.00  0.00    +0.000 A 
ATOM     16  C   UNL     1       2.666   4.620  19.512  0.00  0.00    +0.000 A 
ATOM     17  C   UNL     1       3.970   4.211  19.191  0.00  0.00    +0.000 A 
ATOM     18 CL   UNL     1       4.484   2.696  19.846  0.00  0.00    +0.000 Cl
ENDBRANCH   4  12
TORSDOF 1
ENDMDL
MODEL 3
REMARK VINA RESULT:      -7.3      3.316      5.229
REMARK  Name = 
REMARK  1 active torsions:
REMARK  status: ('A' for Active; 'I' for Inactive)
REMARK    1  A    between atoms: C_4  and  C_5
REMARK                            x       y       z     vdW  Elec       q    Type
REMARK                         _______ _______ _______ _____ _____    ______ ____
ROOT
ATOM      1  O   UNL     1       2.280   7.855  19.442  0.00  0.00    +0.000 OA
ATOM      2  C   UNL     1       2.340   6.628  19.439  0.00  0.00    +0.000 C 
ATOM      3  C   UNL     1       2.560   5.840  18.161  0.00  0.00    +0.000 C 
ATOM      4  C   UNL     1       3.410   4.579  18.356  0.00  0.00    +0.000 C 
ATOM      5  N   UNL     1       3.056   3.933  19.615  0.00  0.00    +0.000 N 
ATOM      6  C   UNL     1       3.268   2.638  20.001  0.00  0.00    +0.000 A 
ATOM      7  C   UNL     1       2.770   2.577  21.287  0.00  0.00    +0.000 A 
ATOM      8  N   UNL     1       2.256   3.789  21.673  0.00  0.00    +0.000 NA
ATOM      9  C   UNL     1       2.431   4.580  20.643  0.00  0.00    +0.000 A 
ATOM     10  N   UNL     1       2.117   5.904  20.576  0.00  0.00    +0.000 N 
ATOM     11  H   UNL     1       1.833   6.369  21.426  0.00  0.00    +0.000 HD
ENDROOT
BRANCH   4  12
ATOM     12  C   UNL     1       4.915   4.823  18.267  0.00  0.00    +0.000 A 
ATOM     13  C   UNL     1       5.618   5.290  19.395  0.00  0.00    +0.000 A 
ATOM     14  C   UNL     1       6.999   5.493  19.369  0.00  0.00    +0.000 A 
ATOM     15  C   UNL     1       7.721   5.222  18.216  0.00  0.00    +0.000 A 
ATOM     16  C   UNL     1       7.056   4.775  17.078  0.00  0.00    +0.000 A 
ATOM     17  C   UNL     1       5.664   4.592  17.094  0.00  0.00    +0.000 A 
ATOM     18 CL   UNL     1       4.937   4.099  15.605  0.00  0.00    +0.000 Cl
ENDBRANCH   4  12
TORSDOF 1
ENDMDL
MODEL 4
REMARK VINA RESULT:      -7.2      3.101      5.173
REMARK  Name = 
REMARK  1 active torsions:
REMARK  status: ('A' for Active; 'I' for Inactive)
REMARK    1  A    between atoms: C_4  and  C_5
REMARK                            x       y       z     vdW  Elec       q    Type
REMARK                         _______ _______ _______ _____ _____    ______ ____
ROOT
ATOM      1  O   UNL     1       2.005   7.069  20.439  0.00  0.00    +0.000 OA
ATOM      2  C   UNL     1       2.210   6.101  19.709  0.00  0.00    +0.000 C 
ATOM      3  C   UNL     1       2.551   6.265  18.240  0.00  0.00    +0.000 C 
ATOM      4  C   UNL     1       3.539   5.214  17.719  0.00  0.00    +0.000 C 
ATOM      5  N   UNL     1       3.236   3.914  18.305  0.00  0.00    +0.000 N 
ATOM      6  C   UNL     1       3.590   2.671  17.860  0.00  0.00    +0.000 A 
ATOM      7  C   UNL     1       3.073   1.807  18.804  0.00  0.00    +0.000 A 
ATOM      8  N   UNL     1       2.410   2.495  19.789  0.00  0.00    +0.000 NA
ATOM      9  C   UNL     1       2.514   3.758  19.456  0.00  0.00    +0.000 A 
ATOM     10  N   UNL     1       2.048   4.824  20.163  0.00  0.00    +0.000 N 
ATOM     11  H   UNL     1       1.691   4.658  21.094  0.00  0.00    +0.000 HD
ENDROOT
BRANCH   4  12
ATOM     12  C   UNL     1       5.007   5.583  17.929  0.00  0.00    +0.000 A 
ATOM     13  C   UNL     1       5.634   5.295  19.158  0.00  0.00    +0.000 A 
ATOM     14  C   UNL     1       6.982   5.582  19.380  0.00  0.00    +0.000 A 
ATOM     15  C   UNL     1       7.748   6.154  18.375  0.00  0.00    +0.000 A 
ATOM     16  C   UNL     1       7.156   6.466  17.154  0.00  0.00    +0.000 A 
ATOM     17  C   UNL     1       5.796   6.201  16.935  0.00  0.00    +0.000 A 
ATOM     18 CL   UNL     1       5.153   6.692  15.407  0.00  0.00    +0.000 Cl
ENDBRANCH   4  12
TORSDOF 1
ENDMDL
MODEL 5
REMARK VINA RESULT:      -6.7      2.304      3.627
REMARK  Name = 
REMARK  1 active torsions:
REMARK  status: ('A' for Active; 'I' for Inactive)
REMARK    1  A    between atoms: C_4  and  C_5
REMARK                            x       y       z     vdW  Elec       q    Type
REMARK                         _______ _______ _______ _____ _____    ______ ____
ROOT
ATOM      1  O   UNL     1       7.655   5.502  20.119  0.00  0.00    +0.000 OA
ATOM      2  C   UNL     1       7.099   5.075  19.110  0.00  0.00    +0.000 C 
ATOM      3  C   UNL     1       5.786   4.319  19.179  0.00  0.00    +0.000 C 
ATOM      4  C   UNL     1       4.856   4.593  17.990  0.00  0.00    +0.000 C 
ATOM      5  N   UNL     1       5.637   4.683  16.762  0.00  0.00    +0.000 N 
ATOM      6  C   UNL     1       5.215   4.539  15.469  0.00  0.00    +0.000 A 
ATOM      7  C   UNL     1       6.349   4.755  14.712  0.00  0.00    +0.000 A 
ATOM      8  N   UNL     1       7.435   5.008  15.513  0.00  0.00    +0.000 NA
ATOM      9  C   UNL     1       6.978   4.946  16.739  0.00  0.00    +0.000 A 
ATOM     10  N   UNL     1       7.684   5.177  17.880  0.00  0.00    +0.000 N 
ATOM     11  H   UNL     1       8.620   5.550  17.793  0.00  0.00    +0.000 HD
ENDROOT
BRANCH   4  12
ATOM     12  C   UNL     1       3.966   5.823  18.168  0.00  0.00    +0.000 A 
ATOM     13  C   UNL     1       4.156   6.951  17.347  0.00  0.00    +0.000 A 
ATOM     14  C   UNL     1       3.343   8.081  17.450  0.00  0.00    +0.000 A 
ATOM     15  C   UNL     1       2.306   8.111  18.372  0.00  0.00    +0.000 A 
ATOM     16  C   UNL     1       2.100   7.019  19.210  0.00  0.00    +0.000 A 
ATOM     17  C   UNL     1       2.930   5.891  19.124  0.00  0.00    +0.000 A 
ATOM     18 CL   UNL     1       2.625   4.624  20.260  0.00  0.00    +0.000 Cl
ENDBRANCH   4  12
TORSDOF 1
ENDMDL
MODEL 6
REMARK VINA RESULT:      -6.7      2.504      3.348
REMARK  Name = 
REMARK  1 active torsions:
REMARK  status: ('A' for Active; 'I' for Inactive)
REMARK    1  A    between atoms: C_4  and  C_5
REMARK                            x       y       z     vdW  Elec       q    Type
REMARK                         _______ _______ _______ _____ _____    ______ ____
ROOT
ATOM      1  O   UNL     1       3.344   1.873  19.117  0.00  0.00    +0.000 OA
ATOM      2  C   UNL     1       3.874   2.854  18.602  0.00  0.00    +0.000 C 
ATOM      3  C   UNL     1       3.123   3.758  17.643  0.00  0.00    +0.000 C 
ATOM      4  C   UNL     1       3.515   5.237  17.759  0.00  0.00    +0.000 C 
ATOM      5  N   UNL     1       4.953   5.353  17.971  0.00  0.00    +0.000 N 
ATOM      6  C   UNL     1       5.764   6.432  17.756  0.00  0.00    +0.000 A 
ATOM      7  C   UNL     1       7.016   6.005  18.151  0.00  0.00    +0.000 A 
ATOM      8  N   UNL     1       6.979   4.702  18.579  0.00  0.00    +0.000 NA
ATOM      9  C   UNL     1       5.728   4.333  18.448  0.00  0.00    +0.000 A 
ATOM     10  N   UNL     1       5.198   3.128  18.794  0.00  0.00    +0.000 N 
ATOM     11  H   UNL     1       5.779   2.484  19.313  0.00  0.00    +0.000 HD
ENDROOT
BRANCH   4  12
ATOM     12  C   UNL     1       2.737   6.003  18.828  0.00  0.00    +0.000 A 
ATOM     13  C   UNL     1       2.276   5.331  19.977  0.00  0.00    +0.000 A 
ATOM     14  C   UNL     1       1.593   6.000  20.995  0.00  0.00    +0.000 A 
ATOM     15  C   UNL     1       1.364   7.365  20.900  0.00  0.00    +0.000 A 
ATOM     16  C   UNL     1       1.792   8.057  19.771  0.00  0.00    +0.000 A 
ATOM     17  C   UNL     1       2.458   7.384  18.735  0.00  0.00    +0.000 A 
ATOM     18 CL   UNL     1       2.884   8.330  17.352  0.00  0.00    +0.000 Cl
ENDBRANCH   4  12
TORSDOF 1
ENDMDL
MODEL 7
REMARK VINA RESULT:      -6.5      2.700      4.294
REMARK  Name = 
REMARK  1 active torsions:
REMARK  status: ('A' for Active; 'I' for Inactive)
REMARK    1  A    between atoms: C_4  and  C_5
REMARK                            x       y       z     vdW  Elec       q    Type
REMARK                         _______ _______ _______ _____ _____    ______ ____
ROOT
ATOM      1  O   UNL     1       6.541   4.513  17.349  0.00  0.00    +0.000 OA
ATOM      2  C   UNL     1       5.521   4.218  17.966  0.00  0.00    +0.000 C 
ATOM      3  C   UNL     1       5.193   4.838  19.312  0.00  0.00    +0.000 C 
ATOM      4  C   UNL     1       3.692   5.067  19.531  0.00  0.00    +0.000 C 
ATOM      5  N   UNL     1       2.934   3.947  18.987  0.00  0.00    +0.000 N 
ATOM      6  C   UNL     1       1.658   3.553  19.282  0.00  0.00    +0.000 A 
ATOM      7  C   UNL     1       1.435   2.466  18.461  0.00  0.00    +0.000 A 
ATOM      8  N   UNL     1       2.542   2.192  17.697  0.00  0.00    +0.000 NA
ATOM      9  C   UNL     1       3.430   3.090  18.044  0.00  0.00    +0.000 A 
ATOM     10  N   UNL     1       4.676   3.245  17.516  0.00  0.00    +0.000 N 
ATOM     11  H   UNL     1       4.916   2.704  16.696  0.00  0.00    +0.000 HD
ENDROOT
BRANCH   4  12
ATOM     12  C   UNL     1       3.180   6.397  18.981  0.00  0.00    +0.000 A 
ATOM     13  C   UNL     1       3.706   6.908  17.778  0.00  0.00    +0.000 A 
ATOM     14  C   UNL     1       3.242   8.101  17.220  0.00  0.00    +0.000 A 
ATOM     15  C   UNL     1       2.226   8.813  17.843  0.00  0.00    +0.000 A 
ATOM     16  C   UNL     1       1.695   8.344  19.041  0.00  0.00    +0.000 A 
ATOM     17  C   UNL     1       2.175   7.158  19.617  0.00  0.00    +0.000 A 
ATOM     18 CL   UNL     1       1.489   6.709  21.139  0.00  0.00    +0.000 Cl
ENDBRANCH   4  12
TORSDOF 1
ENDMDL
MODEL 8
REMARK VINA RESULT:      -6.4      2.656      3.536
REMARK  Name = 
REMARK  1 active torsions:
REMARK  status: ('A' for Active; 'I' for Inactive)
REMARK    1  A    between atoms: C_4  and  C_5
REMARK                            x       y       z     vdW  Elec       q    Type
REMARK                         _______ _______ _______ _____ _____    ______ ____
ROOT
ATOM      1  O   UNL     1       3.430   8.026  17.822  0.00  0.00    +0.000 OA
ATOM      2  C   UNL     1       4.139   7.051  17.584  0.00  0.00    +0.000 C 
ATOM      3  C   UNL     1       4.639   6.137  18.686  0.00  0.00    +0.000 C 
ATOM      4  C   UNL     1       4.729   4.664  18.269  0.00  0.00    +0.000 C 
ATOM      5  N   UNL     1       5.217   4.566  16.898  0.00  0.00    +0.000 N 
ATOM      6  C   UNL     1       5.793   3.497  16.270  0.00  0.00    +0.000 A 
ATOM      7  C   UNL     1       6.029   3.940  14.984  0.00  0.00    +0.000 A 
ATOM      8  N   UNL     1       5.625   5.243  14.831  0.00  0.00    +0.000 NA
ATOM      9  C   UNL     1       5.153   5.596  16.001  0.00  0.00    +0.000 A 
ATOM     10  N   UNL     1       4.591   6.795  16.321  0.00  0.00    +0.000 N 
ATOM     11  H   UNL     1       4.401   7.446  15.572  0.00  0.00    +0.000 HD
ENDROOT
BRANCH   4  12
ATOM     12  C   UNL     1       3.425   3.888  18.445  0.00  0.00    +0.000 A 
ATOM     13  C   UNL     1       2.252   4.330  17.801  0.00  0.00    +0.000 A 
ATOM     14  C   UNL     1       1.048   3.631  17.906  0.00  0.00    +0.000 A 
ATOM     15  C   UNL     1       0.984   2.460  18.648  0.00  0.00    +0.000 A 
ATOM     16  C   UNL     1       2.120   2.004  19.311  0.00  0.00    +0.000 A 
ATOM     17  C   UNL     1       3.326   2.716  19.227  0.00  0.00    +0.000 A 
ATOM     18 CL   UNL     1       4.652   2.093  20.145  0.00  0.00    +0.000 Cl
ENDBRANCH   4  12
TORSDOF 1
ENDMDL
MODEL 9
REMARK VINA RESULT:      -6.4      2.613      3.387
REMARK  Name = 
REMARK  1 active torsions:
REMARK  status: ('A' for Active; 'I' for Inactive)
REMARK    1  A    between atoms: C_4  and  C_5
REMARK                            x       y       z     vdW  Elec       q    Type
REMARK                         _______ _______ _______ _____ _____    ______ ____
ROOT
ATOM      1  O   UNL     1       1.926   7.981  17.692  0.00  0.00    +0.000 OA
ATOM      2  C   UNL     1       2.964   7.412  18.022  0.00  0.00    +0.000 C 
ATOM      3  C   UNL     1       3.126   6.770  19.387  0.00  0.00    +0.000 C 
ATOM      4  C   UNL     1       3.971   5.491  19.367  0.00  0.00    +0.000 C 
ATOM      5  N   UNL     1       5.091   5.651  18.446  0.00  0.00    +0.000 N 
ATOM      6  C   UNL     1       6.264   4.950  18.397  0.00  0.00    +0.000 A 
ATOM      7  C   UNL     1       6.941   5.489  17.321  0.00  0.00    +0.000 A 
ATOM      8  N   UNL     1       6.214   6.496  16.738  0.00  0.00    +0.000 NA
ATOM      9  C   UNL     1       5.113   6.578  17.443  0.00  0.00    +0.000 A 
ATOM     10  N   UNL     1       4.061   7.411  17.209  0.00  0.00    +0.000 N 
ATOM     11  H   UNL     1       4.054   7.938  16.347  0.00  0.00    +0.000 HD
ENDROOT
BRANCH   4  12
ATOM     12  C   UNL     1       3.175   4.225  19.050  0.00  0.00    +0.000 A 
ATOM     13  C   UNL     1       3.153   3.721  17.735  0.00  0.00    +0.000 A 
ATOM     14  C   UNL     1       2.469   2.548  17.409  0.00  0.00    +0.000 A 
ATOM     15  C   UNL     1       1.797   1.837  18.393  0.00  0.00    +0.000 A 
ATOM     16  C   UNL     1       1.784   2.316  19.699  0.00  0.00    +0.000 A 
ATOM     17  C   UNL     1       2.452   3.507  20.026  0.00  0.00    +0.000 A 
ATOM     18 CL   UNL     1       2.312   4.041  21.665  0.00  0.00    +0.000 Cl
ENDBRANCH   4  12
TORSDOF 1
ENDMDL
