MODEL 1
REMARK VINA RESULT:      -8.4      0.000      0.000
REMARK  Name = 
REMARK  11 active torsions:
REMARK  status: ('A' for Active; 'I' for Inactive)
REMARK    1  A    between atoms: C_1  and  N_2
REMARK    2  A    between atoms: C_3  and  C_5
REMARK    3  A    between atoms: C_5  and  O_6
REMARK    4  A    between atoms: O_6  and  C_7
REMARK    5  A    between atoms: C_13  and  C_14
REMARK    6  A    between atoms: N_16  and  C_17
REMARK    7  A    between atoms: C_21  and  C_22
REMARK    8  A    between atoms: C_22  and  C_23
REMARK    9  A    between atoms: C_22  and  S_24
REMARK   10  A    between atoms: S_24  and  C_25
REMARK   11  A    between atoms: N_29  and  C_30
REMARK                            x       y       z     vdW  Elec       q    Type
REMARK                         _______ _______ _______ _____ _____    ______ ____
ROOT
ATOM      1  C   UNL     1       0.650  10.342  21.138  0.00  0.00    +0.000 C 
ATOM      2  O   UNL     1       1.496  10.033  21.974  0.00  0.00    +0.000 OA
ATOM      3  N   UNL     1       0.608   9.918  19.815  0.00  0.00    +0.000 N 
ATOM      4  H   UNL     1      -0.076  10.378  19.221  0.00  0.00    +0.000 HD
ENDROOT
BRANCH   1  11
ATOM      5  C   UNL     1      -4.615  13.514  20.596  0.00  0.00    +0.000 A 
ATOM      6  C   UNL     1      -4.521  14.195  21.808  0.00  0.00    +0.000 A 
ATOM      7  C   UNL     1      -3.425  13.973  22.657  0.00  0.00    +0.000 A 
ATOM      8  C   UNL     1      -2.405  13.067  22.303  0.00  0.00    +0.000 A 
ATOM      9  C   UNL     1      -1.283  12.785  23.101  0.00  0.00    +0.000 A 
ATOM     10  N   UNL     1      -0.289  11.913  22.777  0.00  0.00    +0.000 NA
ATOM     11  C   UNL     1      -0.419  11.294  21.576  0.00  0.00    +0.000 A 
ATOM     12  C   UNL     1      -1.494  11.500  20.713  0.00  0.00    +0.000 A 
ATOM     13  C   UNL     1      -2.504  12.390  21.078  0.00  0.00    +0.000 A 
ATOM     14  C   UNL     1      -3.610  12.617  20.241  0.00  0.00    +0.000 A 
BRANCH   5  15
ATOM     15  O   UNL     1      -5.646  13.592  19.704  0.00  0.00    +0.000 OA
BRANCH  15  16
ATOM     16  C   UNL     1      -6.948  13.244  20.174  0.00  0.00    +0.000 C 
BRANCH  16  19
ATOM     17  C   UNL     1      -7.000   9.498  19.460  0.00  0.00    +0.000 C 
ATOM     18  N   UNL     1      -6.973  10.933  19.359  0.00  0.00    +0.000 N 
ATOM     19  C   UNL     1      -7.026  11.744  20.472  0.00  0.00    +0.000 C 
ATOM     20  O   UNL     1      -7.112  11.313  21.619  0.00  0.00    +0.000 OA
ATOM     21  H   UNL     1      -6.885  11.383  18.453  0.00  0.00    +0.000 HD
ENDBRANCH  16  19
ENDBRANCH  15  16
ENDBRANCH   5  15
ENDBRANCH   1  11
BRANCH   3  22
ATOM     22  C   UNL     1       1.501   8.981  19.231  0.00  0.00    +0.000 A 
ATOM     23  C   UNL     1       2.104   9.218  17.991  0.00  0.00    +0.000 A 
ATOM     24  C   UNL     1       2.938   8.276  17.400  0.00  0.00    +0.000 A 
ATOM     25  C   UNL     1       3.199   7.079  18.051  0.00  0.00    +0.000 A 
ATOM     26  C   UNL     1       2.653   6.813  19.320  0.00  0.00    +0.000 A 
ATOM     27  C   UNL     1       1.803   7.782  19.906  0.00  0.00    +0.000 A 
BRANCH  26  28
ATOM     28  C   UNL     1       2.985   5.489  20.020  0.00  0.00    +0.000 C 
ATOM     29  C   UNL     1       1.739   4.949  20.734  0.00  0.00    +0.000 C 
BRANCH  28  30
ATOM     30  S   UNL     1       3.629   4.297  18.764  0.00  0.00    +0.000 S 
BRANCH  30  31
ATOM     31  C   UNL     1       5.321   4.620  18.690  0.00  0.00    +0.000 A 
ATOM     32  N   UNL     1       6.110   5.010  19.662  0.00  0.00    +0.000 NA
ATOM     33  N   UNL     1       7.381   5.147  19.146  0.00  0.00    +0.000 NA
ATOM     34  C   UNL     1       7.325   4.846  17.869  0.00  0.00    +0.000 A 
ATOM     35  N   UNL     1       6.052   4.489  17.541  0.00  0.00    +0.000 N 
ATOM     36  C   UNL     1       5.613   4.067  16.237  0.00  0.00    +0.000 C 
ENDBRANCH  30  31
ENDBRANCH  28  30
ENDBRANCH  26  28
ENDBRANCH   3  22
TORSDOF 8
ENDMDL
MODEL 2
REMARK VINA RESULT:      -8.4      3.546     11.080
REMARK  Name = 
REMARK  11 active torsions:
REMARK  status: ('A' for Active; 'I' for Inactive)
REMARK    1  A    between atoms: C_1  and  N_2
REMARK    2  A    between atoms: C_3  and  C_5
REMARK    3  A    between atoms: C_5  and  O_6
REMARK    4  A    between atoms: O_6  and  C_7
REMARK    5  A    between atoms: C_13  and  C_14
REMARK    6  A    between atoms: N_16  and  C_17
REMARK    7  A    between atoms: C_21  and  C_22
REMARK    8  A    between atoms: C_22  and  C_23
REMARK    9  A    between atoms: C_22  and  S_24
REMARK   10  A    between atoms: S_24  and  C_25
REMARK   11  A    between atoms: N_29  and  C_30
REMARK                            x       y       z     vdW  Elec       q    Type
REMARK                         _______ _______ _______ _____ _____    ______ ____
ROOT
ATOM      1  C   UNL     1       1.352   8.463  20.569  0.00  0.00    +0.000 C 
ATOM      2  O   UNL     1       1.550   8.817  21.730  0.00  0.00    +0.000 OA
ATOM      3  N   UNL     1       0.705   9.201  19.586  0.00  0.00    +0.000 N 
ATOM      4  H   UNL     1       0.500   8.708  18.721  0.00  0.00    +0.000 HD
ENDROOT
BRANCH   1  11
ATOM      5  C   UNL     1       4.215   4.288  17.043  0.00  0.00    +0.000 A 
ATOM      6  C   UNL     1       3.889   3.173  17.812  0.00  0.00    +0.000 A 
ATOM      7  C   UNL     1       3.132   3.325  18.985  0.00  0.00    +0.000 A 
ATOM      8  C   UNL     1       2.688   4.595  19.402  0.00  0.00    +0.000 A 
ATOM      9  C   UNL     1       1.934   4.829  20.566  0.00  0.00    +0.000 A 
ATOM     10  N   UNL     1       1.496   6.047  20.986  0.00  0.00    +0.000 NA
ATOM     11  C   UNL     1       1.823   7.095  20.188  0.00  0.00    +0.000 A 
ATOM     12  C   UNL     1       2.568   6.971  19.017  0.00  0.00    +0.000 A 
ATOM     13  C   UNL     1       3.014   5.712  18.618  0.00  0.00    +0.000 A 
ATOM     14  C   UNL     1       3.778   5.546  17.451  0.00  0.00    +0.000 A 
BRANCH   5  15
ATOM     15  O   UNL     1       4.986   4.293  15.915  0.00  0.00    +0.000 OA
BRANCH  15  16
ATOM     16  C   UNL     1       5.549   5.541  15.511  0.00  0.00    +0.000 C 
BRANCH  16  19
ATOM     17  C   UNL     1       7.840   7.669  17.696  0.00  0.00    +0.000 C 
ATOM     18  N   UNL     1       6.789   7.185  16.839  0.00  0.00    +0.000 N 
ATOM     19  C   UNL     1       6.761   5.886  16.381  0.00  0.00    +0.000 C 
ATOM     20  O   UNL     1       7.624   5.055  16.652  0.00  0.00    +0.000 OA
ATOM     21  H   UNL     1       6.021   7.794  16.573  0.00  0.00    +0.000 HD
ENDBRANCH  16  19
ENDBRANCH  15  16
ENDBRANCH   5  15
ENDBRANCH   1  11
BRANCH   3  22
ATOM     22  C   UNL     1       0.235  10.532  19.742  0.00  0.00    +0.000 A 
ATOM     23  C   UNL     1       0.753  11.586  18.981  0.00  0.00    +0.000 A 
ATOM     24  C   UNL     1       0.326  12.895  19.171  0.00  0.00    +0.000 A 
ATOM     25  C   UNL     1      -0.646  13.173  20.121  0.00  0.00    +0.000 A 
ATOM     26  C   UNL     1      -1.231  12.143  20.880  0.00  0.00    +0.000 A 
ATOM     27  C   UNL     1      -0.781  10.815  20.674  0.00  0.00    +0.000 A 
BRANCH  26  28
ATOM     28  C   UNL     1      -2.321  12.486  21.902  0.00  0.00    +0.000 C 
ATOM     29  C   UNL     1      -1.691  13.145  23.136  0.00  0.00    +0.000 C 
BRANCH  28  30
ATOM     30  S   UNL     1      -3.568  13.585  21.096  0.00  0.00    +0.000 S 
BRANCH  30  31
ATOM     31  C   UNL     1      -5.010  12.642  21.052  0.00  0.00    +0.000 A 
ATOM     32  N   UNL     1      -5.829  12.374  22.042  0.00  0.00    +0.000 NA
ATOM     33  N   UNL     1      -6.845  11.583  21.549  0.00  0.00    +0.000 NA
ATOM     34  C   UNL     1      -6.608  11.383  20.273  0.00  0.00    +0.000 A 
ATOM     35  N   UNL     1      -5.474  12.047  19.911  0.00  0.00    +0.000 N 
ATOM     36  C   UNL     1      -4.916  12.084  18.585  0.00  0.00    +0.000 C 
ENDBRANCH  30  31
ENDBRANCH  28  30
ENDBRANCH  26  28
ENDBRANCH   3  22
TORSDOF 8
ENDMDL
MODEL 3
REMARK VINA RESULT:      -8.4      4.160     11.790
REMARK  Name = 
REMARK  11 active torsions:
REMARK  status: ('A' for Active; 'I' for Inactive)
REMARK    1  A    between atoms: C_1  and  N_2
REMARK    2  A    between atoms: C_3  and  C_5
REMARK    3  A    between atoms: C_5  and  O_6
REMARK    4  A    between atoms: O_6  and  C_7
REMARK    5  A    between atoms: C_13  and  C_14
REMARK    6  A    between atoms: N_16  and  C_17
REMARK    7  A    between atoms: C_21  and  C_22
REMARK    8  A    between atoms: C_22  and  C_23
REMARK    9  A    between atoms: C_22  and  S_24
REMARK   10  A    between atoms: S_24  and  C_25
REMARK   11  A    between atoms: N_29  and  C_30
REMARK                            x       y       z     vdW  Elec       q    Type
REMARK                         _______ _______ _______ _____ _____    ______ ____
ROOT
ATOM      1  C   UNL     1       1.289   9.468  18.762  0.00  0.00    +0.000 C 
ATOM      2  O   UNL     1       1.555  10.368  17.968  0.00  0.00    +0.000 OA
ATOM      3  N   UNL     1       0.277   9.486  19.715  0.00  0.00    +0.000 N 
ATOM      4  H   UNL     1       0.282   8.721  20.384  0.00  0.00    +0.000 HD
ENDROOT
BRANCH   1  11
ATOM      5  C   UNL     1       5.673   5.767  16.492  0.00  0.00    +0.000 A 
ATOM      6  C   UNL     1       5.535   4.752  17.436  0.00  0.00    +0.000 A 
ATOM      7  C   UNL     1       4.589   4.874  18.467  0.00  0.00    +0.000 A 
ATOM      8  C   UNL     1       3.765   6.012  18.565  0.00  0.00    +0.000 A 
ATOM      9  C   UNL     1       2.802   6.211  19.570  0.00  0.00    +0.000 A 
ATOM     10  N   UNL     1       1.998   7.303  19.681  0.00  0.00    +0.000 NA
ATOM     11  C   UNL     1       2.158   8.251  18.722  0.00  0.00    +0.000 A 
ATOM     12  C   UNL     1       3.086   8.152  17.687  0.00  0.00    +0.000 A 
ATOM     13  C   UNL     1       3.905   7.027  17.605  0.00  0.00    +0.000 A 
ATOM     14  C   UNL     1       4.861   6.896  16.584  0.00  0.00    +0.000 A 
BRANCH   5  15
ATOM     15  O   UNL     1       6.583   5.805  15.475  0.00  0.00    +0.000 OA
BRANCH  15  16
ATOM     16  C   UNL     1       7.176   4.568  15.079  0.00  0.00    +0.000 C 
BRANCH  16  19
ATOM     17  C   UNL     1       5.518   3.114  11.968  0.00  0.00    +0.000 C 
ATOM     18  N   UNL     1       5.903   3.441  13.316  0.00  0.00    +0.000 N 
ATOM     19  C   UNL     1       6.934   4.312  13.589  0.00  0.00    +0.000 C 
ATOM     20  O   UNL     1       7.605   4.859  12.719  0.00  0.00    +0.000 OA
ATOM     21  H   UNL     1       5.395   3.051  14.104  0.00  0.00    +0.000 HD
ENDBRANCH  16  19
ENDBRANCH  15  16
ENDBRANCH   5  15
ENDBRANCH   1  11
BRANCH   3  22
ATOM     22  C   UNL     1      -0.677  10.526  19.871  0.00  0.00    +0.000 A 
ATOM     23  C   UNL     1      -1.612  10.820  18.872  0.00  0.00    +0.000 A 
ATOM     24  C   UNL     1      -2.511  11.870  19.008  0.00  0.00    +0.000 A 
ATOM     25  C   UNL     1      -2.502  12.641  20.162  0.00  0.00    +0.000 A 
ATOM     26  C   UNL     1      -1.613  12.358  21.214  0.00  0.00    +0.000 A 
ATOM     27  C   UNL     1      -0.702  11.285  21.057  0.00  0.00    +0.000 A 
BRANCH  26  28
ATOM     28  C   UNL     1      -1.652  13.216  22.485  0.00  0.00    +0.000 C 
ATOM     29  C   UNL     1      -0.375  14.062  22.583  0.00  0.00    +0.000 C 
BRANCH  28  30
ATOM     30  S   UNL     1      -3.171  14.266  22.448  0.00  0.00    +0.000 S 
BRANCH  30  31
ATOM     31  C   UNL     1      -4.346  13.356  23.323  0.00  0.00    +0.000 A 
ATOM     32  N   UNL     1      -4.151  12.294  24.068  0.00  0.00    +0.000 NA
ATOM     33  N   UNL     1      -5.373  11.899  24.569  0.00  0.00    +0.000 NA
ATOM     34  C   UNL     1      -6.279  12.728  24.104  0.00  0.00    +0.000 A 
ATOM     35  N   UNL     1      -5.676  13.675  23.331  0.00  0.00    +0.000 N 
ATOM     36  C   UNL     1      -6.346  14.767  22.676  0.00  0.00    +0.000 C 
ENDBRANCH  30  31
ENDBRANCH  28  30
ENDBRANCH  26  28
ENDBRANCH   3  22
TORSDOF 8
ENDMDL
MODEL 4
REMARK VINA RESULT:      -8.3      3.915     11.275
REMARK  Name = 
REMARK  11 active torsions:
REMARK  status: ('A' for Active; 'I' for Inactive)
REMARK    1  A    between atoms: C_1  and  N_2
REMARK    2  A    between atoms: C_3  and  C_5
REMARK    3  A    between atoms: C_5  and  O_6
REMARK    4  A    between atoms: O_6  and  C_7
REMARK    5  A    between atoms: C_13  and  C_14
REMARK    6  A    between atoms: N_16  and  C_17
REMARK    7  A    between atoms: C_21  and  C_22
REMARK    8  A    between atoms: C_22  and  C_23
REMARK    9  A    between atoms: C_22  and  S_24
REMARK   10  A    between atoms: S_24  and  C_25
REMARK   11  A    between atoms: N_29  and  C_30
REMARK                            x       y       z     vdW  Elec       q    Type
REMARK                         _______ _______ _______ _____ _____    ______ ____
ROOT
ATOM      1  C   UNL     1       1.360   8.634  20.682  0.00  0.00    +0.000 C 
ATOM      2  O   UNL     1       1.548   8.909  21.866  0.00  0.00    +0.000 OA
ATOM      3  N   UNL     1       0.773   9.458  19.731  0.00  0.00    +0.000 N 
ATOM      4  H   UNL     1       0.565   9.027  18.834  0.00  0.00    +0.000 HD
ENDROOT
BRANCH   1  11
ATOM      5  C   UNL     1       4.137   4.533  17.003  0.00  0.00    +0.000 A 
ATOM      6  C   UNL     1       3.720   3.392  17.686  0.00  0.00    +0.000 A 
ATOM      7  C   UNL     1       2.926   3.512  18.837  0.00  0.00    +0.000 A 
ATOM      8  C   UNL     1       2.533   4.777  19.319  0.00  0.00    +0.000 A 
ATOM      9  C   UNL     1       1.747   4.979  20.466  0.00  0.00    +0.000 A 
ATOM     10  N   UNL     1       1.358   6.192  20.948  0.00  0.00    +0.000 NA
ATOM     11  C   UNL     1       1.772   7.268  20.231  0.00  0.00    +0.000 A 
ATOM     12  C   UNL     1       2.557   7.176  19.083  0.00  0.00    +0.000 A 
ATOM     13  C   UNL     1       2.951   5.920  18.621  0.00  0.00    +0.000 A 
ATOM     14  C   UNL     1       3.752   5.786  17.474  0.00  0.00    +0.000 A 
BRANCH   5  15
ATOM     15  O   UNL     1       4.952   4.565  15.907  0.00  0.00    +0.000 OA
BRANCH  15  16
ATOM     16  C   UNL     1       6.307   4.156  16.086  0.00  0.00    +0.000 C 
BRANCH  16  19
ATOM     17  C   UNL     1       7.972   5.689  19.156  0.00  0.00    +0.000 C 
ATOM     18  N   UNL     1       7.247   4.848  18.240  0.00  0.00    +0.000 N 
ATOM     19  C   UNL     1       7.072   5.190  16.917  0.00  0.00    +0.000 C 
ATOM     20  O   UNL     1       7.503   6.229  16.425  0.00  0.00    +0.000 OA
ATOM     21  H   UNL     1       6.868   3.958  18.550  0.00  0.00    +0.000 HD
ENDBRANCH  16  19
ENDBRANCH  15  16
ENDBRANCH   5  15
ENDBRANCH   1  11
BRANCH   3  22
ATOM     22  C   UNL     1       0.365  10.800  19.954  0.00  0.00    +0.000 A 
ATOM     23  C   UNL     1       1.120  11.883  19.489  0.00  0.00    +0.000 A 
ATOM     24  C   UNL     1       0.744  13.194  19.753  0.00  0.00    +0.000 A 
ATOM     25  C   UNL     1      -0.411  13.449  20.478  0.00  0.00    +0.000 A 
ATOM     26  C   UNL     1      -1.228  12.396  20.928  0.00  0.00    +0.000 A 
ATOM     27  C   UNL     1      -0.828  11.066  20.653  0.00  0.00    +0.000 A 
BRANCH  26  28
ATOM     28  C   UNL     1      -2.512  12.718  21.704  0.00  0.00    +0.000 C 
ATOM     29  C   UNL     1      -2.480  12.029  23.075  0.00  0.00    +0.000 C 
BRANCH  28  30
ATOM     30  S   UNL     1      -2.669  14.552  21.860  0.00  0.00    +0.000 S 
BRANCH  30  31
ATOM     31  C   UNL     1      -2.021  14.909  23.418  0.00  0.00    +0.000 A 
ATOM     32  N   UNL     1      -0.766  14.858  23.799  0.00  0.00    +0.000 NA
ATOM     33  N   UNL     1      -0.714  15.222  25.128  0.00  0.00    +0.000 NA
ATOM     34  C   UNL     1      -1.942  15.474  25.519  0.00  0.00    +0.000 A 
ATOM     35  N   UNL     1      -2.797  15.309  24.471  0.00  0.00    +0.000 N 
ATOM     36  C   UNL     1      -4.219  15.525  24.512  0.00  0.00    +0.000 C 
ENDBRANCH  30  31
ENDBRANCH  28  30
ENDBRANCH  26  28
ENDBRANCH   3  22
TORSDOF 8
ENDMDL
MODEL 5
REMARK VINA RESULT:      -8.2      4.914     10.500
REMARK  Name = 
REMARK  11 active torsions:
REMARK  status: ('A' for Active; 'I' for Inactive)
REMARK    1  A    between atoms: C_1  and  N_2
REMARK    2  A    between atoms: C_3  and  C_5
REMARK    3  A    between atoms: C_5  and  O_6
REMARK    4  A    between atoms: O_6  and  C_7
REMARK    5  A    between atoms: C_13  and  C_14
REMARK    6  A    between atoms: N_16  and  C_17
REMARK    7  A    between atoms: C_21  and  C_22
REMARK    8  A    between atoms: C_22  and  C_23
REMARK    9  A    between atoms: C_22  and  S_24
REMARK   10  A    between atoms: S_24  and  C_25
REMARK   11  A    between atoms: N_29  and  C_30
REMARK                            x       y       z     vdW  Elec       q    Type
REMARK                         _______ _______ _______ _____ _____    ______ ____
ROOT
ATOM      1  C   UNL     1       1.302   9.007  20.027  0.00  0.00    +0.000 C 
ATOM      2  O   UNL     1       1.002   9.369  21.163  0.00  0.00    +0.000 OA
ATOM      3  N   UNL     1       1.187   9.764  18.868  0.00  0.00    +0.000 N 
ATOM      4  H   UNL     1       1.345   9.267  17.995  0.00  0.00    +0.000 HD
ENDROOT
BRANCH   1  11
ATOM      5  C   UNL     1       4.228   4.370  17.198  0.00  0.00    +0.000 A 
ATOM      6  C   UNL     1       3.950   3.394  18.153  0.00  0.00    +0.000 A 
ATOM      7  C   UNL     1       3.210   3.723  19.300  0.00  0.00    +0.000 A 
ATOM      8  C   UNL     1       2.734   5.033  19.505  0.00  0.00    +0.000 A 
ATOM      9  C   UNL     1       1.994   5.442  20.629  0.00  0.00    +0.000 A 
ATOM     10  N   UNL     1       1.527   6.701  20.846  0.00  0.00    +0.000 NA
ATOM     11  C   UNL     1       1.807   7.607  19.873  0.00  0.00    +0.000 A 
ATOM     12  C   UNL     1       2.535   7.305  18.724  0.00  0.00    +0.000 A 
ATOM     13  C   UNL     1       3.012   6.008  18.535  0.00  0.00    +0.000 A 
ATOM     14  C   UNL     1       3.760   5.667  17.396  0.00  0.00    +0.000 A 
BRANCH   5  15
ATOM     15  O   UNL     1       4.978   4.203  16.069  0.00  0.00    +0.000 OA
BRANCH  15  16
ATOM     16  C   UNL     1       5.629   5.357  15.538  0.00  0.00    +0.000 C 
BRANCH  16  19
ATOM     17  C   UNL     1       7.819   7.623  17.686  0.00  0.00    +0.000 C 
ATOM     18  N   UNL     1       6.803   7.082  16.822  0.00  0.00    +0.000 N 
ATOM     19  C   UNL     1       6.808   5.763  16.426  0.00  0.00    +0.000 C 
ATOM     20  O   UNL     1       7.673   4.959  16.765  0.00  0.00    +0.000 OA
ATOM     21  H   UNL     1       6.035   7.666  16.503  0.00  0.00    +0.000 HD
ENDBRANCH  16  19
ENDBRANCH  15  16
ENDBRANCH   5  15
ENDBRANCH   1  11
BRANCH   3  22
ATOM     22  C   UNL     1       0.777  11.122  18.818  0.00  0.00    +0.000 A 
ATOM     23  C   UNL     1      -0.573  11.484  18.889  0.00  0.00    +0.000 A 
ATOM     24  C   UNL     1      -0.973  12.811  18.790  0.00  0.00    +0.000 A 
ATOM     25  C   UNL     1      -0.022  13.809  18.633  0.00  0.00    +0.000 A 
ATOM     26  C   UNL     1       1.350  13.501  18.602  0.00  0.00    +0.000 A 
ATOM     27  C   UNL     1       1.740  12.144  18.701  0.00  0.00    +0.000 A 
BRANCH  26  28
ATOM     28  C   UNL     1       2.373  14.635  18.454  0.00  0.00    +0.000 C 
ATOM     29  C   UNL     1       1.650  15.988  18.408  0.00  0.00    +0.000 C 
BRANCH  28  30
ATOM     30  S   UNL     1       3.571  14.543  19.856  0.00  0.00    +0.000 S 
BRANCH  30  31
ATOM     31  C   UNL     1       4.636  15.875  19.602  0.00  0.00    +0.000 A 
ATOM     32  N   UNL     1       4.588  17.063  20.157  0.00  0.00    +0.000 NA
ATOM     33  N   UNL     1       5.634  17.807  19.655  0.00  0.00    +0.000 NA
ATOM     34  C   UNL     1       6.283  17.052  18.799  0.00  0.00    +0.000 A 
ATOM     35  N   UNL     1       5.703  15.820  18.747  0.00  0.00    +0.000 N 
ATOM     36  C   UNL     1       6.156  14.717  17.942  0.00  0.00    +0.000 C 
ENDBRANCH  30  31
ENDBRANCH  28  30
ENDBRANCH  26  28
ENDBRANCH   3  22
TORSDOF 8
ENDMDL
MODEL 6
REMARK VINA RESULT:      -8.2      4.473     10.812
REMARK  Name = 
REMARK  11 active torsions:
REMARK  status: ('A' for Active; 'I' for Inactive)
REMARK    1  A    between atoms: C_1  and  N_2
REMARK    2  A    between atoms: C_3  and  C_5
REMARK    3  A    between atoms: C_5  and  O_6
REMARK    4  A    between atoms: O_6  and  C_7
REMARK    5  A    between atoms: C_13  and  C_14
REMARK    6  A    between atoms: N_16  and  C_17
REMARK    7  A    between atoms: C_21  and  C_22
REMARK    8  A    between atoms: C_22  and  C_23
REMARK    9  A    between atoms: C_22  and  S_24
REMARK   10  A    between atoms: S_24  and  C_25
REMARK   11  A    between atoms: N_29  and  C_30
REMARK                            x       y       z     vdW  Elec       q    Type
REMARK                         _______ _______ _______ _____ _____    ______ ____
ROOT
ATOM      1  C   UNL     1       1.352   8.693  20.066  0.00  0.00    +0.000 C 
ATOM      2  O   UNL     1       1.341   9.410  19.068  0.00  0.00    +0.000 OA
ATOM      3  N   UNL     1       0.952   9.062  21.345  0.00  0.00    +0.000 N 
ATOM      4  H   UNL     1       1.157   8.395  22.085  0.00  0.00    +0.000 HD
ENDROOT
BRANCH   1  11
ATOM      5  C   UNL     1       4.380   4.141  17.207  0.00  0.00    +0.000 A 
ATOM      6  C   UNL     1       4.098   3.146  18.140  0.00  0.00    +0.000 A 
ATOM      7  C   UNL     1       3.335   3.446  19.280  0.00  0.00    +0.000 A 
ATOM      8  C   UNL     1       2.840   4.747  19.500  0.00  0.00    +0.000 A 
ATOM      9  C   UNL     1       2.077   5.127  20.618  0.00  0.00    +0.000 A 
ATOM     10  N   UNL     1       1.591   6.377  20.848  0.00  0.00    +0.000 NA
ATOM     11  C   UNL     1       1.876   7.302  19.897  0.00  0.00    +0.000 A 
ATOM     12  C   UNL     1       2.627   7.029  18.754  0.00  0.00    +0.000 A 
ATOM     13  C   UNL     1       3.123   5.742  18.552  0.00  0.00    +0.000 A 
ATOM     14  C   UNL     1       3.894   5.430  17.419  0.00  0.00    +0.000 A 
BRANCH   5  15
ATOM     15  O   UNL     1       5.151   4.004  16.088  0.00  0.00    +0.000 OA
BRANCH  15  16
ATOM     16  C   UNL     1       5.933   5.129  15.687  0.00  0.00    +0.000 C 
BRANCH  16  19
ATOM     17  C   UNL     1       6.581   3.544  12.279  0.00  0.00    +0.000 C 
ATOM     18  N   UNL     1       6.042   3.916  13.561  0.00  0.00    +0.000 N 
ATOM     19  C   UNL     1       6.670   4.828  14.380  0.00  0.00    +0.000 C 
ATOM     20  O   UNL     1       7.730   5.378  14.091  0.00  0.00    +0.000 OA
ATOM     21  H   UNL     1       5.159   3.528  13.880  0.00  0.00    +0.000 HD
ENDBRANCH  16  19
ENDBRANCH  15  16
ENDBRANCH   5  15
ENDBRANCH   1  11
BRANCH   3  22
ATOM     22  C   UNL     1       0.383  10.315  21.692  0.00  0.00    +0.000 A 
ATOM     23  C   UNL     1      -0.658  10.415  22.623  0.00  0.00    +0.000 A 
ATOM     24  C   UNL     1      -1.246  11.638  22.923  0.00  0.00    +0.000 A 
ATOM     25  C   UNL     1      -0.791  12.793  22.305  0.00  0.00    +0.000 A 
ATOM     26  C   UNL     1       0.282  12.752  21.396  0.00  0.00    +0.000 A 
ATOM     27  C   UNL     1       0.868  11.497  21.100  0.00  0.00    +0.000 A 
BRANCH  26  28
ATOM     28  C   UNL     1       0.775  14.054  20.753  0.00  0.00    +0.000 C 
ATOM     29  C   UNL     1       1.512  14.905  21.796  0.00  0.00    +0.000 C 
BRANCH  28  30
ATOM     30  S   UNL     1       1.858  13.636  19.316  0.00  0.00    +0.000 S 
BRANCH  30  31
ATOM     31  C   UNL     1       2.274  15.163  18.631  0.00  0.00    +0.000 A 
ATOM     32  N   UNL     1       1.511  16.222  18.500  0.00  0.00    +0.000 NA
ATOM     33  N   UNL     1       2.259  17.210  17.896  0.00  0.00    +0.000 NA
ATOM     34  C   UNL     1       3.454  16.718  17.667  0.00  0.00    +0.000 A 
ATOM     35  N   UNL     1       3.517  15.439  18.130  0.00  0.00    +0.000 N 
ATOM     36  C   UNL     1       4.677  14.589  18.081  0.00  0.00    +0.000 C 
ENDBRANCH  30  31
ENDBRANCH  28  30
ENDBRANCH  26  28
ENDBRANCH   3  22
TORSDOF 8
ENDMDL
MODEL 7
REMARK VINA RESULT:      -8.2      4.613     10.968
REMARK  Name = 
REMARK  11 active torsions:
REMARK  status: ('A' for Active; 'I' for Inactive)
REMARK    1  A    between atoms: C_1  and  N_2
REMARK    2  A    between atoms: C_3  and  C_5
REMARK    3  A    between atoms: C_5  and  O_6
REMARK    4  A    between atoms: O_6  and  C_7
REMARK    5  A    between atoms: C_13  and  C_14
REMARK    6  A    between atoms: N_16  and  C_17
REMARK    7  A    between atoms: C_21  and  C_22
REMARK    8  A    between atoms: C_22  and  C_23
REMARK    9  A    between atoms: C_22  and  S_24
REMARK   10  A    between atoms: S_24  and  C_25
REMARK   11  A    between atoms: N_29  and  C_30
REMARK                            x       y       z     vdW  Elec       q    Type
REMARK                         _______ _______ _______ _____ _____    ______ ____
ROOT
ATOM      1  C   UNL     1       1.704   9.132  18.505  0.00  0.00    +0.000 C 
ATOM      2  O   UNL     1       2.094   9.757  17.520  0.00  0.00    +0.000 OA
ATOM      3  N   UNL     1       0.761   9.564  19.430  0.00  0.00    +0.000 N 
ATOM      4  H   UNL     1       0.656   8.988  20.261  0.00  0.00    +0.000 HD
ENDROOT
BRANCH   1  11
ATOM      5  C   UNL     1       5.310   4.295  17.216  0.00  0.00    +0.000 A 
ATOM      6  C   UNL     1       4.985   3.544  18.344  0.00  0.00    +0.000 A 
ATOM      7  C   UNL     1       4.081   4.051  19.290  0.00  0.00    +0.000 A 
ATOM      8  C   UNL     1       3.486   5.317  19.119  0.00  0.00    +0.000 A 
ATOM      9  C   UNL     1       2.579   5.896  20.024  0.00  0.00    +0.000 A 
ATOM     10  N   UNL     1       1.995   7.116  19.877  0.00  0.00    +0.000 NA
ATOM     11  C   UNL     1       2.328   7.795  18.750  0.00  0.00    +0.000 A 
ATOM     12  C   UNL     1       3.219   7.312  17.793  0.00  0.00    +0.000 A 
ATOM     13  C   UNL     1       3.813   6.064  17.977  0.00  0.00    +0.000 A 
ATOM     14  C   UNL     1       4.725   5.547  17.041  0.00  0.00    +0.000 A 
BRANCH   5  15
ATOM     15  O   UNL     1       6.209   3.949  16.248  0.00  0.00    +0.000 OA
BRANCH  15  16
ATOM     16  C   UNL     1       6.928   5.007  15.613  0.00  0.00    +0.000 C 
BRANCH  16  19
ATOM     17  C   UNL     1       6.208   3.352  12.253  0.00  0.00    +0.000 C 
ATOM     18  N   UNL     1       6.267   3.701  13.649  0.00  0.00    +0.000 N 
ATOM     19  C   UNL     1       7.016   4.763  14.104  0.00  0.00    +0.000 C 
ATOM     20  O   UNL     1       7.692   5.478  13.369  0.00  0.00    +0.000 OA
ATOM     21  H   UNL     1       5.727   3.178  14.332  0.00  0.00    +0.000 HD
ENDBRANCH  16  19
ENDBRANCH  15  16
ENDBRANCH   5  15
ENDBRANCH   1  11
BRANCH   3  22
ATOM     22  C   UNL     1       0.026  10.775  19.340  0.00  0.00    +0.000 A 
ATOM     23  C   UNL     1      -1.239  10.823  18.741  0.00  0.00    +0.000 A 
ATOM     24  C   UNL     1      -1.934  12.019  18.610  0.00  0.00    +0.000 A 
ATOM     25  C   UNL     1      -1.380  13.195  19.095  0.00  0.00    +0.000 A 
ATOM     26  C   UNL     1      -0.133  13.193  19.745  0.00  0.00    +0.000 A 
ATOM     27  C   UNL     1       0.563  11.965  19.867  0.00  0.00    +0.000 A 
BRANCH  26  28
ATOM     28  C   UNL     1       0.435  14.510  20.291  0.00  0.00    +0.000 C 
ATOM     29  C   UNL     1      -0.382  14.966  21.508  0.00  0.00    +0.000 C 
BRANCH  28  30
ATOM     30  S   UNL     1       2.216  14.261  20.712  0.00  0.00    +0.000 S 
BRANCH  30  31
ATOM     31  C   UNL     1       3.074  15.016  19.421  0.00  0.00    +0.000 A 
ATOM     32  N   UNL     1       3.728  14.437  18.442  0.00  0.00    +0.000 NA
ATOM     33  N   UNL     1       4.260  15.428  17.645  0.00  0.00    +0.000 NA
ATOM     34  C   UNL     1       3.922  16.584  18.170  0.00  0.00    +0.000 A 
ATOM     35  N   UNL     1       3.158  16.373  19.279  0.00  0.00    +0.000 N 
ATOM     36  C   UNL     1       2.580  17.403  20.101  0.00  0.00    +0.000 C 
ENDBRANCH  30  31
ENDBRANCH  28  30
ENDBRANCH  26  28
ENDBRANCH   3  22
TORSDOF 8
ENDMDL
MODEL 8
REMARK VINA RESULT:      -8.2      4.262     11.055
REMARK  Name = 
REMARK  11 active torsions:
REMARK  status: ('A' for Active; 'I' for Inactive)
REMARK    1  A    between atoms: C_1  and  N_2
REMARK    2  A    between atoms: C_3  and  C_5
REMARK    3  A    between atoms: C_5  and  O_6
REMARK    4  A    between atoms: O_6  and  C_7
REMARK    5  A    between atoms: C_13  and  C_14
REMARK    6  A    between atoms: N_16  and  C_17
REMARK    7  A    between atoms: C_21  and  C_22
REMARK    8  A    between atoms: C_22  and  C_23
REMARK    9  A    between atoms: C_22  and  S_24
REMARK   10  A    between atoms: S_24  and  C_25
REMARK   11  A    between atoms: N_29  and  C_30
REMARK                            x       y       z     vdW  Elec       q    Type
REMARK                         _______ _______ _______ _____ _____    ______ ____
ROOT
ATOM      1  C   UNL     1       1.624   8.554  19.415  0.00  0.00    +0.000 C 
ATOM      2  O   UNL     1       1.451   9.421  18.561  0.00  0.00    +0.000 OA
ATOM      3  N   UNL     1       1.149   8.582  20.721  0.00  0.00    +0.000 N 
ATOM      4  H   UNL     1       1.499   7.854  21.338  0.00  0.00    +0.000 HD
ENDROOT
BRANCH   1  11
ATOM      5  C   UNL     1       5.594   5.391  15.908  0.00  0.00    +0.000 A 
ATOM      6  C   UNL     1       5.552   4.207  16.641  0.00  0.00    +0.000 A 
ATOM      7  C   UNL     1       4.748   4.118  17.788  0.00  0.00    +0.000 A 
ATOM      8  C   UNL     1       3.970   5.212  18.216  0.00  0.00    +0.000 A 
ATOM      9  C   UNL     1       3.147   5.203  19.356  0.00  0.00    +0.000 A 
ATOM     10  N   UNL     1       2.390   6.250  19.785  0.00  0.00    +0.000 NA
ATOM     11  C   UNL     1       2.451   7.371  19.022  0.00  0.00    +0.000 A 
ATOM     12  C   UNL     1       3.237   7.484  17.877  0.00  0.00    +0.000 A 
ATOM     13  C   UNL     1       4.013   6.399  17.468  0.00  0.00    +0.000 A 
ATOM     14  C   UNL     1       4.828   6.477  16.326  0.00  0.00    +0.000 A 
BRANCH   5  15
ATOM     15  O   UNL     1       6.369   5.634  14.810  0.00  0.00    +0.000 OA
BRANCH  15  16
ATOM     16  C   UNL     1       7.130   4.544  14.291  0.00  0.00    +0.000 C 
BRANCH  16  19
ATOM     17  C   UNL     1       4.725   3.171  11.668  0.00  0.00    +0.000 C 
ATOM     18  N   UNL     1       5.370   3.572  12.892  0.00  0.00    +0.000 N 
ATOM     19  C   UNL     1       6.620   4.149  12.902  0.00  0.00    +0.000 C 
ATOM     20  O   UNL     1       7.279   4.353  11.886  0.00  0.00    +0.000 OA
ATOM     21  H   UNL     1       4.896   3.460  13.783  0.00  0.00    +0.000 HD
ENDBRANCH  16  19
ENDBRANCH  15  16
ENDBRANCH   5  15
ENDBRANCH   1  11
BRANCH   3  22
ATOM     22  C   UNL     1       0.309   9.591  21.262  0.00  0.00    +0.000 A 
ATOM     23  C   UNL     1       0.006   9.638  22.628  0.00  0.00    +0.000 A 
ATOM     24  C   UNL     1      -0.856  10.597  23.145  0.00  0.00    +0.000 A 
ATOM     25  C   UNL     1      -1.422  11.543  22.303  0.00  0.00    +0.000 A 
ATOM     26  C   UNL     1      -1.113  11.567  20.931  0.00  0.00    +0.000 A 
ATOM     27  C   UNL     1      -0.235  10.580  20.420  0.00  0.00    +0.000 A 
BRANCH  26  28
ATOM     28  C   UNL     1      -1.737  12.645  20.036  0.00  0.00    +0.000 C 
ATOM     29  C   UNL     1      -1.952  13.932  20.843  0.00  0.00    +0.000 C 
BRANCH  28  30
ATOM     30  S   UNL     1      -0.636  12.922  18.580  0.00  0.00    +0.000 S 
BRANCH  30  31
ATOM     31  C   UNL     1       0.189  14.393  18.937  0.00  0.00    +0.000 A 
ATOM     32  N   UNL     1      -0.160  15.614  18.604  0.00  0.00    +0.000 NA
ATOM     33  N   UNL     1       0.797  16.476  19.097  0.00  0.00    +0.000 NA
ATOM     34  C   UNL     1       1.707  15.752  19.706  0.00  0.00    +0.000 A 
ATOM     35  N   UNL     1       1.356  14.436  19.648  0.00  0.00    +0.000 N 
ATOM     36  C   UNL     1       2.096  13.349  20.233  0.00  0.00    +0.000 C 
ENDBRANCH  30  31
ENDBRANCH  28  30
ENDBRANCH  26  28
ENDBRANCH   3  22
TORSDOF 8
ENDMDL
MODEL 9
REMARK VINA RESULT:      -8.2      3.788     11.448
REMARK  Name = 
REMARK  11 active torsions:
REMARK  status: ('A' for Active; 'I' for Inactive)
REMARK    1  A    between atoms: C_1  and  N_2
REMARK    2  A    between atoms: C_3  and  C_5
REMARK    3  A    between atoms: C_5  and  O_6
REMARK    4  A    between atoms: O_6  and  C_7
REMARK    5  A    between atoms: C_13  and  C_14
REMARK    6  A    between atoms: N_16  and  C_17
REMARK    7  A    between atoms: C_21  and  C_22
REMARK    8  A    between atoms: C_22  and  C_23
REMARK    9  A    between atoms: C_22  and  S_24
REMARK   10  A    between atoms: S_24  and  C_25
REMARK   11  A    between atoms: N_29  and  C_30
REMARK                            x       y       z     vdW  Elec       q    Type
REMARK                         _______ _______ _______ _____ _____    ______ ____
ROOT
ATOM      1  C   UNL     1       1.316   9.398  19.085  0.00  0.00    +0.000 C 
ATOM      2  O   UNL     1       1.766  10.130  18.206  0.00  0.00    +0.000 OA
ATOM      3  N   UNL     1       0.328   9.731  20.004  0.00  0.00    +0.000 N 
ATOM      4  H   UNL     1       0.172   9.061  20.752  0.00  0.00    +0.000 HD
ENDROOT
BRANCH   1  11
ATOM      5  C   UNL     1       4.618   4.535  17.211  0.00  0.00    +0.000 A 
ATOM      6  C   UNL     1       4.371   3.731  18.323  0.00  0.00    +0.000 A 
ATOM      7  C   UNL     1       3.575   4.212  19.375  0.00  0.00    +0.000 A 
ATOM      8  C   UNL     1       3.012   5.502  19.327  0.00  0.00    +0.000 A 
ATOM      9  C   UNL     1       2.212   6.056  20.342  0.00  0.00    +0.000 A 
ATOM     10  N   UNL     1       1.659   7.300  20.316  0.00  0.00    +0.000 NA
ATOM     11  C   UNL     1       1.913   8.031  19.200  0.00  0.00    +0.000 A 
ATOM     12  C   UNL     1       2.696   7.576  18.140  0.00  0.00    +0.000 A 
ATOM     13  C   UNL     1       3.259   6.302  18.202  0.00  0.00    +0.000 A 
ATOM     14  C   UNL     1       4.064   5.812  17.159  0.00  0.00    +0.000 A 
BRANCH   5  15
ATOM     15  O   UNL     1       5.413   4.218  16.147  0.00  0.00    +0.000 OA
BRANCH  15  16
ATOM     16  C   UNL     1       6.375   5.188  15.735  0.00  0.00    +0.000 C 
BRANCH  16  19
ATOM     17  C   UNL     1       6.496   3.501  12.317  0.00  0.00    +0.000 C 
ATOM     18  N   UNL     1       6.171   3.900  13.661  0.00  0.00    +0.000 N 
ATOM     19  C   UNL     1       6.888   4.869  14.328  0.00  0.00    +0.000 C 
ATOM     20  O   UNL     1       7.854   5.451  13.841  0.00  0.00    +0.000 OA
ATOM     21  H   UNL     1       5.377   3.487  14.142  0.00  0.00    +0.000 HD
ENDBRANCH  16  19
ENDBRANCH  15  16
ENDBRANCH   5  15
ENDBRANCH   1  11
BRANCH   3  22
ATOM     22  C   UNL     1      -0.389  10.956  20.022  0.00  0.00    +0.000 A 
ATOM     23  C   UNL     1      -0.225  11.916  19.018  0.00  0.00    +0.000 A 
ATOM     24  C   UNL     1      -0.891  13.135  19.065  0.00  0.00    +0.000 A 
ATOM     25  C   UNL     1      -1.752  13.410  20.118  0.00  0.00    +0.000 A 
ATOM     26  C   UNL     1      -1.986  12.460  21.128  0.00  0.00    +0.000 A 
ATOM     27  C   UNL     1      -1.297  11.225  21.065  0.00  0.00    +0.000 A 
BRANCH  26  28
ATOM     28  C   UNL     1      -2.965  12.791  22.261  0.00  0.00    +0.000 C 
ATOM     29  C   UNL     1      -2.241  13.571  23.366  0.00  0.00    +0.000 C 
BRANCH  28  30
ATOM     30  S   UNL     1      -4.384  13.745  21.563  0.00  0.00    +0.000 S 
BRANCH  30  31
ATOM     31  C   UNL     1      -5.588  12.554  21.238  0.00  0.00    +0.000 A 
ATOM     32  N   UNL     1      -6.477  12.060  22.067  0.00  0.00    +0.000 NA
ATOM     33  N   UNL     1      -7.229  11.133  21.377  0.00  0.00    +0.000 NA
ATOM     34  C   UNL     1      -6.767  11.083  20.148  0.00  0.00    +0.000 A 
ATOM     35  N   UNL     1      -5.746  11.975  20.009  0.00  0.00    +0.000 N 
ATOM     36  C   UNL     1      -5.014  12.221  18.795  0.00  0.00    +0.000 C 
ENDBRANCH  30  31
ENDBRANCH  28  30
ENDBRANCH  26  28
ENDBRANCH   3  22
TORSDOF 8
ENDMDL
