MODEL 1
REMARK VINA RESULT:      -6.9      0.000      0.000
REMARK  Name = 
REMARK  5 active torsions:
REMARK  status: ('A' for Active; 'I' for Inactive)
REMARK    1  A    between atoms: C_1  and  O_2
REMARK    2  A    between atoms: O_2  and  C_3
REMARK    3  A    between atoms: C_6  and  N_7
REMARK    4  A    between atoms: N_10  and  C_11
REMARK    5  A    between atoms: C_11  and  C_12
REMARK                            x       y       z     vdW  Elec       q    Type
REMARK                         _______ _______ _______ _____ _____    ______ ____
ROOT
ATOM      1  N   UNL     1       3.117   6.658  18.497  0.00  0.00    +0.000 N 
ATOM      2  C   UNL     1       3.877   7.080  17.309  0.00  0.00    +0.000 C 
ATOM      3  C   UNL     1       5.349   6.609  17.409  0.00  0.00    +0.000 C 
ATOM      4  N   UNL     1       5.535   5.173  17.753  0.00  0.00    +0.000 NA
ATOM      5  C   UNL     1       4.804   4.945  19.025  0.00  0.00    +0.000 C 
ATOM      6  C   UNL     1       3.303   5.280  18.954  0.00  0.00    +0.000 C 
ENDROOT
BRANCH   1  10
ATOM      7  C   UNL     1       0.625   9.360  20.537  0.00  0.00    +0.000 A 
ATOM      8  C   UNL     1       1.096   8.209  21.169  0.00  0.00    +0.000 A 
ATOM      9  C   UNL     1       1.926   7.324  20.495  0.00  0.00    +0.000 A 
ATOM     10  C   UNL     1       2.307   7.543  19.165  0.00  0.00    +0.000 A 
ATOM     11  C   UNL     1       1.811   8.699  18.543  0.00  0.00    +0.000 A 
ATOM     12  C   UNL     1       0.975   9.592  19.210  0.00  0.00    +0.000 A 
BRANCH   7  14
ATOM     13  C   UNL     1      -0.228   9.832  22.678  0.00  0.00    +0.000 C 
ATOM     14  O   UNL     1      -0.161  10.173  21.298  0.00  0.00    +0.000 OA
ENDBRANCH   7  14
ENDBRANCH   1  10
BRANCH   4  15
ATOM     15  C   UNL     1       5.069   4.322  16.639  0.00  0.00    +0.000 C 
BRANCH  15  16
ATOM     16  C   UNL     1       5.866   4.457  15.362  0.00  0.00    +0.000 A 
ATOM     17  C   UNL     1       5.475   3.843  14.173  0.00  0.00    +0.000 A 
ATOM     18  C   UNL     1       6.291   3.922  13.042  0.00  0.00    +0.000 A 
ATOM     19  C   UNL     1       7.459   4.661  13.136  0.00  0.00    +0.000 A 
ATOM     20  N   UNL     1       7.852   5.311  14.249  0.00  0.00    +0.000 NA
ATOM     21  C   UNL     1       7.051   5.188  15.337  0.00  0.00    +0.000 A 
ENDBRANCH  15  16
ENDBRANCH   4  15
TORSDOF 4
ENDMDL
MODEL 2
REMARK VINA RESULT:      -6.8      1.552      2.456
REMARK  Name = 
REMARK  5 active torsions:
REMARK  status: ('A' for Active; 'I' for Inactive)
REMARK    1  A    between atoms: C_1  and  O_2
REMARK    2  A    between atoms: O_2  and  C_3
REMARK    3  A    between atoms: C_6  and  N_7
REMARK    4  A    between atoms: N_10  and  C_11
REMARK    5  A    between atoms: C_11  and  C_12
REMARK                            x       y       z     vdW  Elec       q    Type
REMARK                         _______ _______ _______ _____ _____    ______ ____
ROOT
ATOM      1  N   UNL     1       2.172   7.027  19.931  0.00  0.00    +0.000 N 
ATOM      2  C   UNL     1       2.108   5.747  20.654  0.00  0.00    +0.000 C 
ATOM      3  C   UNL     1       1.844   4.580  19.671  0.00  0.00    +0.000 C 
ATOM      4  N   UNL     1       2.729   4.543  18.474  0.00  0.00    +0.000 NA
ATOM      5  C   UNL     1       2.588   5.860  17.804  0.00  0.00    +0.000 C 
ATOM      6  C   UNL     1       2.957   7.060  18.695  0.00  0.00    +0.000 C 
ENDROOT
BRANCH   1  10
ATOM      7  C   UNL     1       0.048  10.383  21.310  0.00  0.00    +0.000 A 
ATOM      8  C   UNL     1       0.325   9.316  22.164  0.00  0.00    +0.000 A 
ATOM      9  C   UNL     1       1.034   8.214  21.707  0.00  0.00    +0.000 A 
ATOM     10  C   UNL     1       1.481   8.126  20.383  0.00  0.00    +0.000 A 
ATOM     11  C   UNL     1       1.180   9.204  19.536  0.00  0.00    +0.000 A 
ATOM     12  C   UNL     1       0.466  10.313  19.985  0.00  0.00    +0.000 A 
BRANCH   7  14
ATOM     13  C   UNL     1      -1.319  11.122  23.077  0.00  0.00    +0.000 C 
ATOM     14  O   UNL     1      -0.632  11.425  21.867  0.00  0.00    +0.000 OA
ENDBRANCH   7  14
ENDBRANCH   1  10
BRANCH   4  15
ATOM     15  C   UNL     1       4.113   4.228  18.880  0.00  0.00    +0.000 C 
BRANCH  15  16
ATOM     16  C   UNL     1       5.140   4.346  17.776  0.00  0.00    +0.000 A 
ATOM     17  C   UNL     1       4.940   3.790  16.514  0.00  0.00    +0.000 A 
ATOM     18  C   UNL     1       5.955   3.847  15.554  0.00  0.00    +0.000 A 
ATOM     19  C   UNL     1       7.127   4.507  15.889  0.00  0.00    +0.000 A 
ATOM     20  N   UNL     1       7.343   5.100  17.079  0.00  0.00    +0.000 NA
ATOM     21  C   UNL     1       6.349   4.999  17.997  0.00  0.00    +0.000 A 
ENDBRANCH  15  16
ENDBRANCH   4  15
TORSDOF 4
ENDMDL
MODEL 3
REMARK VINA RESULT:      -6.8      0.384      1.111
REMARK  Name = 
REMARK  5 active torsions:
REMARK  status: ('A' for Active; 'I' for Inactive)
REMARK    1  A    between atoms: C_1  and  O_2
REMARK    2  A    between atoms: O_2  and  C_3
REMARK    3  A    between atoms: C_6  and  N_7
REMARK    4  A    between atoms: N_10  and  C_11
REMARK    5  A    between atoms: C_11  and  C_12
REMARK                            x       y       z     vdW  Elec       q    Type
REMARK                         _______ _______ _______ _____ _____    ______ ____
ROOT
ATOM      1  N   UNL     1       3.069   6.782  18.509  0.00  0.00    +0.000 N 
ATOM      2  C   UNL     1       3.879   7.113  17.326  0.00  0.00    +0.000 C 
ATOM      3  C   UNL     1       5.345   6.656  17.526  0.00  0.00    +0.000 C 
ATOM      4  N   UNL     1       5.517   5.252  17.990  0.00  0.00    +0.000 NA
ATOM      5  C   UNL     1       4.732   5.123  19.243  0.00  0.00    +0.000 C 
ATOM      6  C   UNL     1       3.235   5.445  19.081  0.00  0.00    +0.000 C 
ENDROOT
BRANCH   1  10
ATOM      7  C   UNL     1       0.511   9.640  20.230  0.00  0.00    +0.000 A 
ATOM      8  C   UNL     1       0.916   9.756  18.900  0.00  0.00    +0.000 A 
ATOM      9  C   UNL     1       1.753   8.806  18.333  0.00  0.00    +0.000 A 
ATOM     10  C   UNL     1       2.229   7.714  19.070  0.00  0.00    +0.000 A 
ATOM     11  C   UNL     1       1.821   7.624  20.410  0.00  0.00    +0.000 A 
ATOM     12  C   UNL     1       0.984   8.574  20.988  0.00  0.00    +0.000 A 
BRANCH   7  14
ATOM     13  C   UNL     1      -0.512  10.658  22.089  0.00  0.00    +0.000 C 
ATOM     14  O   UNL     1      -0.332  10.614  20.677  0.00  0.00    +0.000 OA
ENDBRANCH   7  14
ENDBRANCH   1  10
BRANCH   4  15
ATOM     15  C   UNL     1       5.100   4.315  16.928  0.00  0.00    +0.000 C 
BRANCH  15  16
ATOM     16  C   UNL     1       5.849   4.461  15.623  0.00  0.00    +0.000 A 
ATOM     17  C   UNL     1       5.408   3.866  14.442  0.00  0.00    +0.000 A 
ATOM     18  C   UNL     1       6.182   3.954  13.282  0.00  0.00    +0.000 A 
ATOM     19  C   UNL     1       7.360   4.682  13.342  0.00  0.00    +0.000 A 
ATOM     20  N   UNL     1       7.800   5.312  14.447  0.00  0.00    +0.000 NA
ATOM     21  C   UNL     1       7.039   5.181  15.564  0.00  0.00    +0.000 A 
ENDBRANCH  15  16
ENDBRANCH   4  15
TORSDOF 4
ENDMDL
MODEL 4
REMARK VINA RESULT:      -6.8      1.181      2.083
REMARK  Name = 
REMARK  5 active torsions:
REMARK  status: ('A' for Active; 'I' for Inactive)
REMARK    1  A    between atoms: C_1  and  O_2
REMARK    2  A    between atoms: O_2  and  C_3
REMARK    3  A    between atoms: C_6  and  N_7
REMARK    4  A    between atoms: N_10  and  C_11
REMARK    5  A    between atoms: C_11  and  C_12
REMARK                            x       y       z     vdW  Elec       q    Type
REMARK                         _______ _______ _______ _____ _____    ______ ____
ROOT
ATOM      1  N   UNL     1       2.679   6.774  19.437  0.00  0.00    +0.000 N 
ATOM      2  C   UNL     1       3.106   5.682  20.326  0.00  0.00    +0.000 C 
ATOM      3  C   UNL     1       2.951   4.313  19.618  0.00  0.00    +0.000 C 
ATOM      4  N   UNL     1       3.540   4.232  18.253  0.00  0.00    +0.000 NA
ATOM      5  C   UNL     1       2.923   5.326  17.461  0.00  0.00    +0.000 C 
ATOM      6  C   UNL     1       3.148   6.730  18.051  0.00  0.00    +0.000 C 
ENDROOT
BRANCH   1  10
ATOM      7  C   UNL     1       0.121   9.806  20.829  0.00  0.00    +0.000 A 
ATOM      8  C   UNL     1       0.683   9.878  19.554  0.00  0.00    +0.000 A 
ATOM      9  C   UNL     1       1.520   8.871  19.095  0.00  0.00    +0.000 A 
ATOM     10  C   UNL     1       1.840   7.763  19.890  0.00  0.00    +0.000 A 
ATOM     11  C   UNL     1       1.275   7.717  21.174  0.00  0.00    +0.000 A 
ATOM     12  C   UNL     1       0.436   8.724  21.645  0.00  0.00    +0.000 A 
BRANCH   7  14
ATOM     13  C   UNL     1      -0.854  11.057  22.568  0.00  0.00    +0.000 C 
ATOM     14  O   UNL     1      -0.706  10.834  21.169  0.00  0.00    +0.000 OA
ENDBRANCH   7  14
ENDBRANCH   1  10
BRANCH   4  15
ATOM     15  C   UNL     1       5.012   4.315  18.333  0.00  0.00    +0.000 C 
BRANCH  15  16
ATOM     16  C   UNL     1       5.709   4.517  17.006  0.00  0.00    +0.000 A 
ATOM     17  C   UNL     1       5.432   3.725  15.893  0.00  0.00    +0.000 A 
ATOM     18  C   UNL     1       6.165   3.891  14.715  0.00  0.00    +0.000 A 
ATOM     19  C   UNL     1       7.128   4.887  14.686  0.00  0.00    +0.000 A 
ATOM     20  N   UNL     1       7.395   5.707  15.721  0.00  0.00    +0.000 NA
ATOM     21  C   UNL     1       6.685   5.498  16.859  0.00  0.00    +0.000 A 
ENDBRANCH  15  16
ENDBRANCH   4  15
TORSDOF 4
ENDMDL
MODEL 5
REMARK VINA RESULT:      -6.7      1.093      1.606
REMARK  Name = 
REMARK  5 active torsions:
REMARK  status: ('A' for Active; 'I' for Inactive)
REMARK    1  A    between atoms: C_1  and  O_2
REMARK    2  A    between atoms: O_2  and  C_3
REMARK    3  A    between atoms: C_6  and  N_7
REMARK    4  A    between atoms: N_10  and  C_11
REMARK    5  A    between atoms: C_11  and  C_12
REMARK                            x       y       z     vdW  Elec       q    Type
REMARK                         _______ _______ _______ _____ _____    ______ ____
ROOT
ATOM      1  N   UNL     1       3.055   6.535  19.008  0.00  0.00    +0.000 N 
ATOM      2  C   UNL     1       3.583   5.601  20.015  0.00  0.00    +0.000 C 
ATOM      3  C   UNL     1       3.436   4.138  19.530  0.00  0.00    +0.000 C 
ATOM      4  N   UNL     1       3.934   3.870  18.153  0.00  0.00    +0.000 NA
ATOM      5  C   UNL     1       3.222   4.814  17.255  0.00  0.00    +0.000 C 
ATOM      6  C   UNL     1       3.431   6.297  17.613  0.00  0.00    +0.000 C 
ENDROOT
BRANCH   1  10
ATOM      7  C   UNL     1       0.457   9.652  20.109  0.00  0.00    +0.000 A 
ATOM      8  C   UNL     1       0.750   8.620  21.001  0.00  0.00    +0.000 A 
ATOM      9  C   UNL     1       1.615   7.598  20.636  0.00  0.00    +0.000 A 
ATOM     10  C   UNL     1       2.209   7.556  19.369  0.00  0.00    +0.000 A 
ATOM     11  C   UNL     1       1.891   8.596  18.482  0.00  0.00    +0.000 A 
ATOM     12  C   UNL     1       1.022   9.624  18.837  0.00  0.00    +0.000 A 
BRANCH   7  14
ATOM     13  C   UNL     1      -0.193  10.976  21.942  0.00  0.00    +0.000 C 
ATOM     14  O   UNL     1      -0.383  10.617  20.577  0.00  0.00    +0.000 OA
ENDBRANCH   7  14
ENDBRANCH   1  10
BRANCH   4  15
ATOM     15  C   UNL     1       5.404   4.006  18.113  0.00  0.00    +0.000 C 
BRANCH  15  16
ATOM     16  C   UNL     1       5.972   4.348  16.754  0.00  0.00    +0.000 A 
ATOM     17  C   UNL     1       5.662   3.610  15.613  0.00  0.00    +0.000 A 
ATOM     18  C   UNL     1       6.281   3.909  14.396  0.00  0.00    +0.000 A 
ATOM     19  C   UNL     1       7.164   4.976  14.363  0.00  0.00    +0.000 A 
ATOM     20  N   UNL     1       7.455   5.746  15.429  0.00  0.00    +0.000 NA
ATOM     21  C   UNL     1       6.859   5.409  16.601  0.00  0.00    +0.000 A 
ENDBRANCH  15  16
ENDBRANCH   4  15
TORSDOF 4
ENDMDL
MODEL 6
REMARK VINA RESULT:      -6.7      1.770      2.781
REMARK  Name = 
REMARK  5 active torsions:
REMARK  status: ('A' for Active; 'I' for Inactive)
REMARK    1  A    between atoms: C_1  and  O_2
REMARK    2  A    between atoms: O_2  and  C_3
REMARK    3  A    between atoms: C_6  and  N_7
REMARK    4  A    between atoms: N_10  and  C_11
REMARK    5  A    between atoms: C_11  and  C_12
REMARK                            x       y       z     vdW  Elec       q    Type
REMARK                         _______ _______ _______ _____ _____    ______ ____
ROOT
ATOM      1  N   UNL     1       2.098   7.002  19.963  0.00  0.00    +0.000 N 
ATOM      2  C   UNL     1       1.918   5.729  20.680  0.00  0.00    +0.000 C 
ATOM      3  C   UNL     1       1.667   4.573  19.682  0.00  0.00    +0.000 C 
ATOM      4  N   UNL     1       2.633   4.487  18.552  0.00  0.00    +0.000 NA
ATOM      5  C   UNL     1       2.607   5.807  17.872  0.00  0.00    +0.000 C 
ATOM      6  C   UNL     1       2.971   6.990  18.788  0.00  0.00    +0.000 C 
ENDROOT
BRANCH   1  10
ATOM      7  C   UNL     1       0.052  10.465  21.185  0.00  0.00    +0.000 A 
ATOM      8  C   UNL     1       0.267   9.413  22.076  0.00  0.00    +0.000 A 
ATOM      9  C   UNL     1       0.950   8.276  21.671  0.00  0.00    +0.000 A 
ATOM     10  C   UNL     1       1.433   8.135  20.364  0.00  0.00    +0.000 A 
ATOM     11  C   UNL     1       1.194   9.198  19.480  0.00  0.00    +0.000 A 
ATOM     12  C   UNL     1       0.506  10.343  19.876  0.00  0.00    +0.000 A 
BRANCH   7  14
ATOM     13  C   UNL     1      -1.204  11.345  22.970  0.00  0.00    +0.000 C 
ATOM     14  O   UNL     1      -0.607  11.544  21.693  0.00  0.00    +0.000 OA
ENDBRANCH   7  14
ENDBRANCH   1  10
BRANCH   4  15
ATOM     15  C   UNL     1       3.967   4.104  19.056  0.00  0.00    +0.000 C 
BRANCH  15  16
ATOM     16  C   UNL     1       5.082   4.209  18.041  0.00  0.00    +0.000 A 
ATOM     17  C   UNL     1       6.290   4.841  18.327  0.00  0.00    +0.000 A 
ATOM     18  C   UNL     1       7.257   4.992  17.329  0.00  0.00    +0.000 A 
ATOM     19  C   UNL     1       6.987   4.456  16.080  0.00  0.00    +0.000 A 
ATOM     20  N   UNL     1       5.854   3.794  15.773  0.00  0.00    +0.000 NA
ATOM     21  C   UNL     1       4.925   3.693  16.757  0.00  0.00    +0.000 A 
ENDBRANCH  15  16
ENDBRANCH   4  15
TORSDOF 4
ENDMDL
MODEL 7
REMARK VINA RESULT:      -6.6      1.513      2.742
REMARK  Name = 
REMARK  5 active torsions:
REMARK  status: ('A' for Active; 'I' for Inactive)
REMARK    1  A    between atoms: C_1  and  O_2
REMARK    2  A    between atoms: O_2  and  C_3
REMARK    3  A    between atoms: C_6  and  N_7
REMARK    4  A    between atoms: N_10  and  C_11
REMARK    5  A    between atoms: C_11  and  C_12
REMARK                            x       y       z     vdW  Elec       q    Type
REMARK                         _______ _______ _______ _____ _____    ______ ____
ROOT
ATOM      1  N   UNL     1       2.117   7.219  19.948  0.00  0.00    +0.000 N 
ATOM      2  C   UNL     1       2.096   5.922  20.644  0.00  0.00    +0.000 C 
ATOM      3  C   UNL     1       1.866   4.768  19.637  0.00  0.00    +0.000 C 
ATOM      4  N   UNL     1       2.749   4.784  18.439  0.00  0.00    +0.000 NA
ATOM      5  C   UNL     1       2.565   6.110  17.796  0.00  0.00    +0.000 C 
ATOM      6  C   UNL     1       2.898   7.301  18.712  0.00  0.00    +0.000 C 
ENDROOT
BRANCH   1  10
ATOM      7  C   UNL     1      -0.085  10.488  21.408  0.00  0.00    +0.000 A 
ATOM      8  C   UNL     1       0.259  10.408  20.059  0.00  0.00    +0.000 A 
ATOM      9  C   UNL     1       0.979   9.322  19.579  0.00  0.00    +0.000 A 
ATOM     10  C   UNL     1       1.393   8.285  20.424  0.00  0.00    +0.000 A 
ATOM     11  C   UNL     1       1.049   8.393  21.780  0.00  0.00    +0.000 A 
ATOM     12  C   UNL     1       0.329   9.479  22.271  0.00  0.00    +0.000 A 
BRANCH   7  14
ATOM     13  C   UNL     1      -1.382  12.314  20.686  0.00  0.00    +0.000 C 
ATOM     14  O   UNL     1      -0.814  11.583  21.767  0.00  0.00    +0.000 OA
ENDBRANCH   7  14
ENDBRANCH   1  10
BRANCH   4  15
ATOM     15  C   UNL     1       4.143   4.504  18.835  0.00  0.00    +0.000 C 
BRANCH  15  16
ATOM     16  C   UNL     1       5.143   4.537  17.702  0.00  0.00    +0.000 A 
ATOM     17  C   UNL     1       4.912   3.892  16.488  0.00  0.00    +0.000 A 
ATOM     18  C   UNL     1       5.904   3.875  15.504  0.00  0.00    +0.000 A 
ATOM     19  C   UNL     1       7.085   4.552  15.762  0.00  0.00    +0.000 A 
ATOM     20  N   UNL     1       7.332   5.229  16.900  0.00  0.00    +0.000 NA
ATOM     21  C   UNL     1       6.360   5.199  17.847  0.00  0.00    +0.000 A 
ENDBRANCH  15  16
ENDBRANCH   4  15
TORSDOF 4
ENDMDL
MODEL 8
REMARK VINA RESULT:      -6.6      1.168      1.666
REMARK  Name = 
REMARK  5 active torsions:
REMARK  status: ('A' for Active; 'I' for Inactive)
REMARK    1  A    between atoms: C_1  and  O_2
REMARK    2  A    between atoms: O_2  and  C_3
REMARK    3  A    between atoms: C_6  and  N_7
REMARK    4  A    between atoms: N_10  and  C_11
REMARK    5  A    between atoms: C_11  and  C_12
REMARK                            x       y       z     vdW  Elec       q    Type
REMARK                         _______ _______ _______ _____ _____    ______ ____
ROOT
ATOM      1  N   UNL     1       2.806   6.633  18.637  0.00  0.00    +0.000 N 
ATOM      2  C   UNL     1       4.071   6.730  17.891  0.00  0.00    +0.000 C 
ATOM      3  C   UNL     1       5.162   5.852  18.553  0.00  0.00    +0.000 C 
ATOM      4  N   UNL     1       4.756   4.452  18.853  0.00  0.00    +0.000 NA
ATOM      5  C   UNL     1       3.539   4.537  19.701  0.00  0.00    +0.000 C 
ATOM      6  C   UNL     1       2.371   5.296  19.045  0.00  0.00    +0.000 C 
ENDROOT
BRANCH   1  10
ATOM      7  C   UNL     1       0.648  10.093  19.659  0.00  0.00    +0.000 A 
ATOM      8  C   UNL     1       1.085   9.887  18.351  0.00  0.00    +0.000 A 
ATOM      9  C   UNL     1       1.789   8.739  18.015  0.00  0.00    +0.000 A 
ATOM     10  C   UNL     1       2.097   7.761  18.970  0.00  0.00    +0.000 A 
ATOM     11  C   UNL     1       1.661   7.995  20.283  0.00  0.00    +0.000 A 
ATOM     12  C   UNL     1       0.956   9.145  20.630  0.00  0.00    +0.000 A 
BRANCH   7  14
ATOM     13  C   UNL     1       0.364  12.009  20.995  0.00  0.00    +0.000 C 
ATOM     14  O   UNL     1      -0.056  11.240  19.873  0.00  0.00    +0.000 OA
ENDBRANCH   7  14
ENDBRANCH   1  10
BRANCH   4  15
ATOM     15  C   UNL     1       4.553   3.704  17.596  0.00  0.00    +0.000 C 
BRANCH  15  16
ATOM     16  C   UNL     1       5.459   4.118  16.459  0.00  0.00    +0.000 A 
ATOM     17  C   UNL     1       4.995   4.261  15.153  0.00  0.00    +0.000 A 
ATOM     18  C   UNL     1       5.887   4.558  14.120  0.00  0.00    +0.000 A 
ATOM     19  C   UNL     1       7.221   4.745  14.450  0.00  0.00    +0.000 A 
ATOM     20  N   UNL     1       7.705   4.664  15.704  0.00  0.00    +0.000 NA
ATOM     21  C   UNL     1       6.815   4.345  16.678  0.00  0.00    +0.000 A 
ENDBRANCH  15  16
ENDBRANCH   4  15
TORSDOF 4
ENDMDL
MODEL 9
REMARK VINA RESULT:      -6.6      1.191      1.504
REMARK  Name = 
REMARK  5 active torsions:
REMARK  status: ('A' for Active; 'I' for Inactive)
REMARK    1  A    between atoms: C_1  and  O_2
REMARK    2  A    between atoms: O_2  and  C_3
REMARK    3  A    between atoms: C_6  and  N_7
REMARK    4  A    between atoms: N_10  and  C_11
REMARK    5  A    between atoms: C_11  and  C_12
REMARK                            x       y       z     vdW  Elec       q    Type
REMARK                         _______ _______ _______ _____ _____    ______ ____
ROOT
ATOM      1  N   UNL     1       2.809   6.668  18.669  0.00  0.00    +0.000 N 
ATOM      2  C   UNL     1       4.071   6.760  17.917  0.00  0.00    +0.000 C 
ATOM      3  C   UNL     1       5.169   5.899  18.589  0.00  0.00    +0.000 C 
ATOM      4  N   UNL     1       4.771   4.501  18.914  0.00  0.00    +0.000 NA
ATOM      5  C   UNL     1       3.557   4.595  19.765  0.00  0.00    +0.000 C 
ATOM      6  C   UNL     1       2.383   5.336  19.100  0.00  0.00    +0.000 C 
ENDROOT
BRANCH   1  10
ATOM      7  C   UNL     1       0.613  10.121  19.634  0.00  0.00    +0.000 A 
ATOM      8  C   UNL     1       0.916   9.173  20.612  0.00  0.00    +0.000 A 
ATOM      9  C   UNL     1       1.648   8.039  20.291  0.00  0.00    +0.000 A 
ATOM     10  C   UNL     1       2.095   7.799  18.986  0.00  0.00    +0.000 A 
ATOM     11  C   UNL     1       1.768   8.757  18.015  0.00  0.00    +0.000 A 
ATOM     12  C   UNL     1       1.031   9.897  18.326  0.00  0.00    +0.000 A 
BRANCH   7  14
ATOM     13  C   UNL     1       0.017  12.362  19.235  0.00  0.00    +0.000 C 
ATOM     14  O   UNL     1      -0.088  11.208  20.062  0.00  0.00    +0.000 OA
ENDBRANCH   7  14
ENDBRANCH   1  10
BRANCH   4  15
ATOM     15  C   UNL     1       4.568   3.732  17.671  0.00  0.00    +0.000 C 
BRANCH  15  16
ATOM     16  C   UNL     1       5.461   4.138  16.521  0.00  0.00    +0.000 A 
ATOM     17  C   UNL     1       4.979   4.287  15.222  0.00  0.00    +0.000 A 
ATOM     18  C   UNL     1       5.859   4.576  14.176  0.00  0.00    +0.000 A 
ATOM     19  C   UNL     1       7.199   4.750  14.486  0.00  0.00    +0.000 A 
ATOM     20  N   UNL     1       7.700   4.664  15.733  0.00  0.00    +0.000 NA
ATOM     21  C   UNL     1       6.822   4.352  16.720  0.00  0.00    +0.000 A 
ENDBRANCH  15  16
ENDBRANCH   4  15
TORSDOF 4
ENDMDL
