MODEL 1
REMARK VINA RESULT:      -9.1      0.000      0.000
REMARK  Name = 
REMARK  7 active torsions:
REMARK  status: ('A' for Active; 'I' for Inactive)
REMARK    1  A    between atoms: C_2  and  O_5
REMARK    2  A    between atoms: O_5  and  C_6
REMARK    3  A    between atoms: C_10  and  N_11
REMARK    4  A    between atoms: C_15  and  C_16
REMARK    5  A    between atoms: C_21  and  C_22
REMARK    6  A    between atoms: C_22  and  C_23
REMARK    7  A    between atoms: C_23  and  C_24
REMARK                            x       y       z     vdW  Elec       q    Type
REMARK                         _______ _______ _______ _____ _____    ______ ____
ROOT
ATOM      1  N   UNL     1       1.497   8.808  17.990  0.00  0.00    +0.000 N 
ATOM      2  C   UNL     1       2.230   7.757  18.404  0.00  0.00    +0.000 A 
ATOM      3  N   UNL     1       2.187   7.020  19.491  0.00  0.00    +0.000 NA
ATOM      4  N   UNL     1       3.215   6.110  19.405  0.00  0.00    +0.000 NA
ATOM      5  C   UNL     1       3.833   6.344  18.268  0.00  0.00    +0.000 A 
ATOM      6  O   UNL     1       3.238   7.362  17.561  0.00  0.00    +0.000 OA
ATOM      7  H   UNL     1       1.712   9.178  17.073  0.00  0.00    +0.000 HD
ENDROOT
BRANCH   1  12
ATOM      8  C   UNL     1       0.186  10.643  20.992  0.00  0.00    +0.000 A 
ATOM      9  C   UNL     1      -0.667  11.553  20.367  0.00  0.00    +0.000 A 
ATOM     10  C   UNL     1      -0.803  11.552  18.980  0.00  0.00    +0.000 A 
ATOM     11  C   UNL     1      -0.071  10.643  18.210  0.00  0.00    +0.000 A 
ATOM     12  C   UNL     1       0.790   9.711  18.813  0.00  0.00    +0.000 A 
ATOM     13  C   UNL     1       0.857   9.694  20.217  0.00  0.00    +0.000 A 
BRANCH   8  14
ATOM     14  O   UNL     1       0.263  10.767  22.347  0.00  0.00    +0.000 OA
BRANCH  14  16
ATOM     15  F   UNL     1       0.199   9.422  24.244  0.00  0.00    +0.000 F 
ATOM     16  C   UNL     1      -0.478   9.870  23.165  0.00  0.00    +0.000 C 
ATOM     17  F   UNL     1      -0.892   8.817  22.429  0.00  0.00    +0.000 F 
ATOM     18  F   UNL     1      -1.574  10.522  23.619  0.00  0.00    +0.000 F 
ENDBRANCH  14  16
ENDBRANCH   8  14
ENDBRANCH   1  12
BRANCH   5  19
ATOM     19  C   UNL     1       5.027   5.733  17.680  0.00  0.00    +0.000 A 
ATOM     20  C   UNL     1       6.259   6.414  17.764  0.00  0.00    +0.000 A 
ATOM     21  C   UNL     1       7.418   5.880  17.216  0.00  0.00    +0.000 A 
ATOM     22  C   UNL     1       7.323   4.663  16.582  0.00  0.00    +0.000 A 
ATOM     23  N   UNL     1       6.174   3.971  16.477  0.00  0.00    +0.000 NA
ATOM     24  C   UNL     1       5.038   4.483  17.030  0.00  0.00    +0.000 A 
BRANCH  24  25
ATOM     25  C   UNL     1       3.801   3.628  16.810  0.00  0.00    +0.000 C 
BRANCH  25  26
ATOM     26  C   UNL     1       3.732   2.411  17.754  0.00  0.00    +0.000 C 
BRANCH  26  27
ATOM     27  C   UNL     1       2.879   2.654  18.975  0.00  0.00    +0.000 A 
ATOM     28  C   UNL     1       1.517   2.943  18.845  0.00  0.00    +0.000 A 
ATOM     29  C   UNL     1       0.766   3.145  19.992  0.00  0.00    +0.000 A 
ATOM     30  N   UNL     1       1.271   3.083  21.243  0.00  0.00    +0.000 NA
ATOM     31  C   UNL     1       2.588   2.807  21.346  0.00  0.00    +0.000 A 
ATOM     32  C   UNL     1       3.422   2.588  20.260  0.00  0.00    +0.000 A 
ENDBRANCH  26  27
ENDBRANCH  25  26
ENDBRANCH  24  25
ENDBRANCH   5  19
TORSDOF 7
ENDMDL
MODEL 2
REMARK VINA RESULT:      -8.9      6.346      7.932
REMARK  Name = 
REMARK  7 active torsions:
REMARK  status: ('A' for Active; 'I' for Inactive)
REMARK    1  A    between atoms: C_2  and  O_5
REMARK    2  A    between atoms: O_5  and  C_6
REMARK    3  A    between atoms: C_10  and  N_11
REMARK    4  A    between atoms: C_15  and  C_16
REMARK    5  A    between atoms: C_21  and  C_22
REMARK    6  A    between atoms: C_22  and  C_23
REMARK    7  A    between atoms: C_23  and  C_24
REMARK                            x       y       z     vdW  Elec       q    Type
REMARK                         _______ _______ _______ _____ _____    ______ ____
ROOT
ATOM      1  N   UNL     1       8.235  10.117  17.950  0.00  0.00    +0.000 N 
ATOM      2  C   UNL     1       8.082   8.787  18.092  0.00  0.00    +0.000 A 
ATOM      3  N   UNL     1       8.569   7.927  18.959  0.00  0.00    +0.000 NA
ATOM      4  N   UNL     1       8.115   6.681  18.594  0.00  0.00    +0.000 NA
ATOM      5  C   UNL     1       7.375   6.849  17.518  0.00  0.00    +0.000 A 
ATOM      6  O   UNL     1       7.284   8.173  17.160  0.00  0.00    +0.000 OA
ATOM      7  H   UNL     1       7.706  10.557  17.207  0.00  0.00    +0.000 HD
ENDROOT
BRANCH   1  12
ATOM      8  C   UNL     1      11.083  12.560  18.064  0.00  0.00    +0.000 A 
ATOM      9  C   UNL     1      11.513  12.371  19.377  0.00  0.00    +0.000 A 
ATOM     10  C   UNL     1      10.870  11.452  20.203  0.00  0.00    +0.000 A 
ATOM     11  C   UNL     1       9.780  10.722  19.716  0.00  0.00    +0.000 A 
ATOM     12  C   UNL     1       9.331  10.887  18.395  0.00  0.00    +0.000 A 
ATOM     13  C   UNL     1      10.040  11.775  17.568  0.00  0.00    +0.000 A 
BRANCH   8  14
ATOM     14  O   UNL     1      11.767  13.512  17.369  0.00  0.00    +0.000 OA
BRANCH  14  16
ATOM     15  F   UNL     1      12.333  15.441  18.542  0.00  0.00    +0.000 F 
ATOM     16  C   UNL     1      11.502  14.885  17.634  0.00  0.00    +0.000 C 
ATOM     17  F   UNL     1      10.226  15.031  18.048  0.00  0.00    +0.000 F 
ATOM     18  F   UNL     1      11.651  15.573  16.478  0.00  0.00    +0.000 F 
ENDBRANCH  14  16
ENDBRANCH   8  14
ENDBRANCH   1  12
BRANCH   5  19
ATOM     19  C   UNL     1       6.690   5.878  16.663  0.00  0.00    +0.000 A 
ATOM     20  C   UNL     1       7.349   5.388  15.517  0.00  0.00    +0.000 A 
ATOM     21  C   UNL     1       6.739   4.471  14.670  0.00  0.00    +0.000 A 
ATOM     22  C   UNL     1       5.465   4.060  14.985  0.00  0.00    +0.000 A 
ATOM     23  N   UNL     1       4.793   4.495  16.067  0.00  0.00    +0.000 NA
ATOM     24  C   UNL     1       5.396   5.380  16.911  0.00  0.00    +0.000 A 
BRANCH  24  25
ATOM     25  C   UNL     1       4.521   5.824  18.072  0.00  0.00    +0.000 C 
BRANCH  25  26
ATOM     26  C   UNL     1       3.015   5.797  17.739  0.00  0.00    +0.000 C 
BRANCH  26  27
ATOM     27  C   UNL     1       2.236   4.825  18.591  0.00  0.00    +0.000 A 
ATOM     28  C   UNL     1       1.679   3.674  18.025  0.00  0.00    +0.000 A 
ATOM     29  C   UNL     1       0.982   2.799  18.844  0.00  0.00    +0.000 A 
ATOM     30  N   UNL     1       0.802   2.989  20.168  0.00  0.00    +0.000 NA
ATOM     31  C   UNL     1       1.345   4.109  20.693  0.00  0.00    +0.000 A 
ATOM     32  C   UNL     1       2.059   5.043  19.958  0.00  0.00    +0.000 A 
ENDBRANCH  26  27
ENDBRANCH  25  26
ENDBRANCH  24  25
ENDBRANCH   5  19
TORSDOF 7
ENDMDL
MODEL 3
REMARK VINA RESULT:      -8.8      1.004      1.424
REMARK  Name = 
REMARK  7 active torsions:
REMARK  status: ('A' for Active; 'I' for Inactive)
REMARK    1  A    between atoms: C_2  and  O_5
REMARK    2  A    between atoms: O_5  and  C_6
REMARK    3  A    between atoms: C_10  and  N_11
REMARK    4  A    between atoms: C_15  and  C_16
REMARK    5  A    between atoms: C_21  and  C_22
REMARK    6  A    between atoms: C_22  and  C_23
REMARK    7  A    between atoms: C_23  and  C_24
REMARK                            x       y       z     vdW  Elec       q    Type
REMARK                         _______ _______ _______ _____ _____    ______ ____
ROOT
ATOM      1  N   UNL     1       2.045   9.309  17.887  0.00  0.00    +0.000 N 
ATOM      2  C   UNL     1       2.381   8.006  17.846  0.00  0.00    +0.000 A 
ATOM      3  N   UNL     1       1.723   6.911  18.155  0.00  0.00    +0.000 NA
ATOM      4  N   UNL     1       2.581   5.853  17.963  0.00  0.00    +0.000 NA
ATOM      5  C   UNL     1       3.722   6.363  17.549  0.00  0.00    +0.000 A 
ATOM      6  O   UNL     1       3.656   7.730  17.420  0.00  0.00    +0.000 OA
ATOM      7  H   UNL     1       2.736   9.966  17.548  0.00  0.00    +0.000 HD
ENDROOT
BRANCH   1  12
ATOM      8  C   UNL     1       0.197  10.564  20.904  0.00  0.00    +0.000 A 
ATOM      9  C   UNL     1      -0.944  11.083  20.292  0.00  0.00    +0.000 A 
ATOM     10  C   UNL     1      -1.093  11.015  18.909  0.00  0.00    +0.000 A 
ATOM     11  C   UNL     1      -0.089  10.433  18.128  0.00  0.00    +0.000 A 
ATOM     12  C   UNL     1       1.067   9.896  18.718  0.00  0.00    +0.000 A 
ATOM     13  C   UNL     1       1.159   9.923  20.121  0.00  0.00    +0.000 A 
BRANCH   8  14
ATOM     14  O   UNL     1       0.244  10.724  22.257  0.00  0.00    +0.000 OA
BRANCH  14  16
ATOM     15  F   UNL     1      -1.643  10.312  23.554  0.00  0.00    +0.000 F 
ATOM     16  C   UNL     1      -0.476   9.819  23.086  0.00  0.00    +0.000 C 
ATOM     17  F   UNL     1       0.297   9.439  24.124  0.00  0.00    +0.000 F 
ATOM     18  F   UNL     1      -0.768   8.719  22.353  0.00  0.00    +0.000 F 
ENDBRANCH  14  16
ENDBRANCH   8  14
ENDBRANCH   1  12
BRANCH   5  19
ATOM     19  C   UNL     1       5.005   5.725  17.248  0.00  0.00    +0.000 A 
ATOM     20  C   UNL     1       5.587   5.920  15.979  0.00  0.00    +0.000 A 
ATOM     21  C   UNL     1       6.800   5.332  15.642  0.00  0.00    +0.000 A 
ATOM     22  C   UNL     1       7.413   4.546  16.590  0.00  0.00    +0.000 A 
ATOM     23  N   UNL     1       6.901   4.330  17.816  0.00  0.00    +0.000 NA
ATOM     24  C   UNL     1       5.721   4.921  18.156  0.00  0.00    +0.000 A 
BRANCH  24  25
ATOM     25  C   UNL     1       5.230   4.569  19.551  0.00  0.00    +0.000 C 
BRANCH  25  26
ATOM     26  C   UNL     1       4.708   3.122  19.661  0.00  0.00    +0.000 C 
BRANCH  26  27
ATOM     27  C   UNL     1       3.202   3.033  19.678  0.00  0.00    +0.000 A 
ATOM     28  C   UNL     1       2.521   2.309  18.694  0.00  0.00    +0.000 A 
ATOM     29  C   UNL     1       1.138   2.240  18.753  0.00  0.00    +0.000 A 
ATOM     30  N   UNL     1       0.396   2.836  19.710  0.00  0.00    +0.000 NA
ATOM     31  C   UNL     1       1.072   3.534  20.648  0.00  0.00    +0.000 A 
ATOM     32  C   UNL     1       2.453   3.661  20.675  0.00  0.00    +0.000 A 
ENDBRANCH  26  27
ENDBRANCH  25  26
ENDBRANCH  24  25
ENDBRANCH   5  19
TORSDOF 7
ENDMDL
MODEL 4
REMARK VINA RESULT:      -8.7      6.354      7.955
REMARK  Name = 
REMARK  7 active torsions:
REMARK  status: ('A' for Active; 'I' for Inactive)
REMARK    1  A    between atoms: C_2  and  O_5
REMARK    2  A    between atoms: O_5  and  C_6
REMARK    3  A    between atoms: C_10  and  N_11
REMARK    4  A    between atoms: C_15  and  C_16
REMARK    5  A    between atoms: C_21  and  C_22
REMARK    6  A    between atoms: C_22  and  C_23
REMARK    7  A    between atoms: C_23  and  C_24
REMARK                            x       y       z     vdW  Elec       q    Type
REMARK                         _______ _______ _______ _____ _____    ______ ____
ROOT
ATOM      1  N   UNL     1       8.257  10.188  17.916  0.00  0.00    +0.000 N 
ATOM      2  C   UNL     1       8.092   8.860  18.067  0.00  0.00    +0.000 A 
ATOM      3  N   UNL     1       8.564   8.002  18.944  0.00  0.00    +0.000 NA
ATOM      4  N   UNL     1       8.101   6.757  18.584  0.00  0.00    +0.000 NA
ATOM      5  C   UNL     1       7.372   6.924  17.501  0.00  0.00    +0.000 A 
ATOM      6  O   UNL     1       7.296   8.246  17.133  0.00  0.00    +0.000 OA
ATOM      7  H   UNL     1       7.739  10.627  17.166  0.00  0.00    +0.000 HD
ENDROOT
BRANCH   1  12
ATOM      8  C   UNL     1      11.109  12.626  18.045  0.00  0.00    +0.000 A 
ATOM      9  C   UNL     1      11.545  12.422  19.354  0.00  0.00    +0.000 A 
ATOM     10  C   UNL     1      10.904  11.493  20.172  0.00  0.00    +0.000 A 
ATOM     11  C   UNL     1       9.812  10.771  19.681  0.00  0.00    +0.000 A 
ATOM     12  C   UNL     1       9.357  10.951  18.365  0.00  0.00    +0.000 A 
ATOM     13  C   UNL     1      10.063  11.848  17.545  0.00  0.00    +0.000 A 
BRANCH   8  14
ATOM     14  O   UNL     1      11.791  13.585  17.357  0.00  0.00    +0.000 OA
BRANCH  14  16
ATOM     15  F   UNL     1      11.457  15.660  16.358  0.00  0.00    +0.000 F 
ATOM     16  C   UNL     1      11.403  14.947  17.503  0.00  0.00    +0.000 C 
ATOM     17  F   UNL     1      12.174  15.542  18.437  0.00  0.00    +0.000 F 
ATOM     18  F   UNL     1      10.121  14.975  17.935  0.00  0.00    +0.000 F 
ENDBRANCH  14  16
ENDBRANCH   8  14
ENDBRANCH   1  12
BRANCH   5  19
ATOM     19  C   UNL     1       6.686   5.953  16.647  0.00  0.00    +0.000 A 
ATOM     20  C   UNL     1       7.385   5.372  15.569  0.00  0.00    +0.000 A 
ATOM     21  C   UNL     1       6.776   4.451  14.726  0.00  0.00    +0.000 A 
ATOM     22  C   UNL     1       5.463   4.128  14.975  0.00  0.00    +0.000 A 
ATOM     23  N   UNL     1       4.752   4.650  15.991  0.00  0.00    +0.000 NA
ATOM     24  C   UNL     1       5.352   5.540  16.832  0.00  0.00    +0.000 A 
BRANCH  24  25
ATOM     25  C   UNL     1       4.434   6.087  17.913  0.00  0.00    +0.000 C 
BRANCH  25  26
ATOM     26  C   UNL     1       3.060   5.387  17.951  0.00  0.00    +0.000 C 
BRANCH  26  27
ATOM     27  C   UNL     1       2.893   4.472  19.140  0.00  0.00    +0.000 A 
ATOM     28  C   UNL     1       3.738   3.373  19.315  0.00  0.00    +0.000 A 
ATOM     29  C   UNL     1       3.560   2.565  20.427  0.00  0.00    +0.000 A 
ATOM     30  N   UNL     1       2.610   2.772  21.363  0.00  0.00    +0.000 NA
ATOM     31  C   UNL     1       1.802   3.837  21.173  0.00  0.00    +0.000 A 
ATOM     32  C   UNL     1       1.901   4.703  20.095  0.00  0.00    +0.000 A 
ENDBRANCH  26  27
ENDBRANCH  25  26
ENDBRANCH  24  25
ENDBRANCH   5  19
TORSDOF 7
ENDMDL
MODEL 5
REMARK VINA RESULT:      -8.6      4.530      9.388
REMARK  Name = 
REMARK  7 active torsions:
REMARK  status: ('A' for Active; 'I' for Inactive)
REMARK    1  A    between atoms: C_2  and  O_5
REMARK    2  A    between atoms: O_5  and  C_6
REMARK    3  A    between atoms: C_10  and  N_11
REMARK    4  A    between atoms: C_15  and  C_16
REMARK    5  A    between atoms: C_21  and  C_22
REMARK    6  A    between atoms: C_22  and  C_23
REMARK    7  A    between atoms: C_23  and  C_24
REMARK                            x       y       z     vdW  Elec       q    Type
REMARK                         _______ _______ _______ _____ _____    ______ ____
ROOT
ATOM      1  N   UNL     1       3.729   5.578  19.029  0.00  0.00    +0.000 N 
ATOM      2  C   UNL     1       3.057   6.738  18.908  0.00  0.00    +0.000 A 
ATOM      3  N   UNL     1       3.008   7.638  17.951  0.00  0.00    +0.000 NA
ATOM      4  N   UNL     1       2.189   8.653  18.389  0.00  0.00    +0.000 NA
ATOM      5  C   UNL     1       1.784   8.317  19.595  0.00  0.00    +0.000 A 
ATOM      6  O   UNL     1       2.274   7.091  19.978  0.00  0.00    +0.000 OA
ATOM      7  H   UNL     1       3.557   5.040  19.869  0.00  0.00    +0.000 HD
ENDROOT
BRANCH   1  12
ATOM      8  C   UNL     1       6.190   4.176  16.565  0.00  0.00    +0.000 A 
ATOM      9  C   UNL     1       7.385   4.599  17.147  0.00  0.00    +0.000 A 
ATOM     10  C   UNL     1       7.370   5.331  18.332  0.00  0.00    +0.000 A 
ATOM     11  C   UNL     1       6.150   5.654  18.934  0.00  0.00    +0.000 A 
ATOM     12  C   UNL     1       4.932   5.235  18.374  0.00  0.00    +0.000 A 
ATOM     13  C   UNL     1       4.983   4.444  17.214  0.00  0.00    +0.000 A 
BRANCH   8  14
ATOM     14  O   UNL     1       6.333   3.501  15.389  0.00  0.00    +0.000 OA
BRANCH  14  16
ATOM     15  F   UNL     1       7.352   5.129  14.077  0.00  0.00    +0.000 F 
ATOM     16  C   UNL     1       6.347   4.233  14.169  0.00  0.00    +0.000 C 
ATOM     17  F   UNL     1       5.167   4.867  14.005  0.00  0.00    +0.000 F 
ATOM     18  F   UNL     1       6.497   3.352  13.152  0.00  0.00    +0.000 F 
ENDBRANCH  14  16
ENDBRANCH   8  14
ENDBRANCH   1  12
BRANCH   5  19
ATOM     19  C   UNL     1       0.953   9.035  20.564  0.00  0.00    +0.000 A 
ATOM     20  C   UNL     1       1.173   8.831  21.941  0.00  0.00    +0.000 A 
ATOM     21  C   UNL     1       0.407   9.483  22.900  0.00  0.00    +0.000 A 
ATOM     22  C   UNL     1      -0.579  10.333  22.458  0.00  0.00    +0.000 A 
ATOM     23  N   UNL     1      -0.828  10.566  21.156  0.00  0.00    +0.000 NA
ATOM     24  C   UNL     1      -0.066   9.942  20.213  0.00  0.00    +0.000 A 
BRANCH  24  25
ATOM     25  C   UNL     1      -0.470  10.256  18.782  0.00  0.00    +0.000 C 
BRANCH  25  26
ATOM     26  C   UNL     1      -1.102  11.654  18.625  0.00  0.00    +0.000 C 
BRANCH  26  27
ATOM     27  C   UNL     1      -2.504  11.613  18.067  0.00  0.00    +0.000 A 
ATOM     28  C   UNL     1      -2.732  11.214  16.747  0.00  0.00    +0.000 A 
ATOM     29  C   UNL     1      -4.035  11.176  16.277  0.00  0.00    +0.000 A 
ATOM     30  N   UNL     1      -5.113  11.507  17.020  0.00  0.00    +0.000 NA
ATOM     31  C   UNL     1      -4.870  11.893  18.291  0.00  0.00    +0.000 A 
ATOM     32  C   UNL     1      -3.604  11.962  18.853  0.00  0.00    +0.000 A 
ENDBRANCH  26  27
ENDBRANCH  25  26
ENDBRANCH  24  25
ENDBRANCH   5  19
TORSDOF 7
ENDMDL
MODEL 6
REMARK VINA RESULT:      -8.6      2.978      4.831
REMARK  Name = 
REMARK  7 active torsions:
REMARK  status: ('A' for Active; 'I' for Inactive)
REMARK    1  A    between atoms: C_2  and  O_5
REMARK    2  A    between atoms: O_5  and  C_6
REMARK    3  A    between atoms: C_10  and  N_11
REMARK    4  A    between atoms: C_15  and  C_16
REMARK    5  A    between atoms: C_21  and  C_22
REMARK    6  A    between atoms: C_22  and  C_23
REMARK    7  A    between atoms: C_23  and  C_24
REMARK                            x       y       z     vdW  Elec       q    Type
REMARK                         _______ _______ _______ _____ _____    ______ ____
ROOT
ATOM      1  N   UNL     1       1.012   9.553  19.956  0.00  0.00    +0.000 N 
ATOM      2  C   UNL     1       1.728   8.590  19.344  0.00  0.00    +0.000 A 
ATOM      3  N   UNL     1       2.380   8.562  18.203  0.00  0.00    +0.000 NA
ATOM      4  N   UNL     1       2.890   7.292  18.059  0.00  0.00    +0.000 NA
ATOM      5  C   UNL     1       2.518   6.612  19.123  0.00  0.00    +0.000 A 
ATOM      6  O   UNL     1       1.800   7.388  20.002  0.00  0.00    +0.000 OA
ATOM      7  H   UNL     1       0.638   9.328  20.869  0.00  0.00    +0.000 HD
ENDROOT
BRANCH   1  12
ATOM      8  C   UNL     1      -1.562  11.671  18.229  0.00  0.00    +0.000 A 
ATOM      9  C   UNL     1      -0.847  12.860  18.094  0.00  0.00    +0.000 A 
ATOM     10  C   UNL     1       0.461  12.953  18.565  0.00  0.00    +0.000 A 
ATOM     11  C   UNL     1       1.056  11.851  19.188  0.00  0.00    +0.000 A 
ATOM     12  C   UNL     1       0.362  10.638  19.331  0.00  0.00    +0.000 A 
ATOM     13  C   UNL     1      -0.932  10.556  18.788  0.00  0.00    +0.000 A 
BRANCH   8  14
ATOM     14  O   UNL     1      -2.842  11.715  17.763  0.00  0.00    +0.000 OA
BRANCH  14  16
ATOM     15  F   UNL     1      -3.134   9.591  16.860  0.00  0.00    +0.000 F 
ATOM     16  C   UNL     1      -3.196  10.921  16.637  0.00  0.00    +0.000 C 
ATOM     17  F   UNL     1      -2.403  11.235  15.591  0.00  0.00    +0.000 F 
ATOM     18  F   UNL     1      -4.473  11.215  16.300  0.00  0.00    +0.000 F 
ENDBRANCH  14  16
ENDBRANCH   8  14
ENDBRANCH   1  12
BRANCH   5  19
ATOM     19  C   UNL     1       2.716   5.207  19.482  0.00  0.00    +0.000 A 
ATOM     20  C   UNL     1       2.350   4.770  20.771  0.00  0.00    +0.000 A 
ATOM     21  C   UNL     1       2.524   3.448  21.162  0.00  0.00    +0.000 A 
ATOM     22  C   UNL     1       3.073   2.579  20.249  0.00  0.00    +0.000 A 
ATOM     23  N   UNL     1       3.438   2.944  19.006  0.00  0.00    +0.000 NA
ATOM     24  C   UNL     1       3.250   4.236  18.612  0.00  0.00    +0.000 A 
BRANCH  24  25
ATOM     25  C   UNL     1       3.737   4.531  17.202  0.00  0.00    +0.000 C 
BRANCH  25  26
ATOM     26  C   UNL     1       5.209   4.131  16.975  0.00  0.00    +0.000 C 
BRANCH  26  27
ATOM     27  C   UNL     1       6.190   5.149  17.504  0.00  0.00    +0.000 A 
ATOM     28  C   UNL     1       6.365   6.373  16.852  0.00  0.00    +0.000 A 
ATOM     29  C   UNL     1       7.266   7.286  17.378  0.00  0.00    +0.000 A 
ATOM     30  N   UNL     1       7.995   7.066  18.492  0.00  0.00    +0.000 NA
ATOM     31  C   UNL     1       7.814   5.877  19.105  0.00  0.00    +0.000 A 
ATOM     32  C   UNL     1       6.937   4.900  18.657  0.00  0.00    +0.000 A 
ENDBRANCH  26  27
ENDBRANCH  25  26
ENDBRANCH  24  25
ENDBRANCH   5  19
TORSDOF 7
ENDMDL
MODEL 7
REMARK VINA RESULT:      -8.5      1.291      1.666
REMARK  Name = 
REMARK  7 active torsions:
REMARK  status: ('A' for Active; 'I' for Inactive)
REMARK    1  A    between atoms: C_2  and  O_5
REMARK    2  A    between atoms: O_5  and  C_6
REMARK    3  A    between atoms: C_10  and  N_11
REMARK    4  A    between atoms: C_15  and  C_16
REMARK    5  A    between atoms: C_21  and  C_22
REMARK    6  A    between atoms: C_22  and  C_23
REMARK    7  A    between atoms: C_23  and  C_24
REMARK                            x       y       z     vdW  Elec       q    Type
REMARK                         _______ _______ _______ _____ _____    ______ ____
ROOT
ATOM      1  N   UNL     1       1.169   9.451  18.208  0.00  0.00    +0.000 N 
ATOM      2  C   UNL     1       1.817   8.350  18.633  0.00  0.00    +0.000 A 
ATOM      3  N   UNL     1       1.890   7.763  19.806  0.00  0.00    +0.000 NA
ATOM      4  N   UNL     1       2.743   6.692  19.672  0.00  0.00    +0.000 NA
ATOM      5  C   UNL     1       3.148   6.686  18.420  0.00  0.00    +0.000 A 
ATOM      6  O   UNL     1       2.571   7.698  17.690  0.00  0.00    +0.000 OA
ATOM      7  H   UNL     1       1.246   9.671  17.223  0.00  0.00    +0.000 HD
ENDROOT
BRANCH   1  12
ATOM      8  C   UNL     1      -0.679  11.621  20.652  0.00  0.00    +0.000 A 
ATOM      9  C   UNL     1       0.064  12.797  20.543  0.00  0.00    +0.000 A 
ATOM     10  C   UNL     1       1.152  12.864  19.675  0.00  0.00    +0.000 A 
ATOM     11  C   UNL     1       1.508  11.744  18.918  0.00  0.00    +0.000 A 
ATOM     12  C   UNL     1       0.774  10.549  19.002  0.00  0.00    +0.000 A 
ATOM     13  C   UNL     1      -0.356  10.533  19.838  0.00  0.00    +0.000 A 
BRANCH   8  14
ATOM     14  O   UNL     1      -1.694  11.667  21.560  0.00  0.00    +0.000 OA
BRANCH  14  16
ATOM     15  F   UNL     1      -0.391  10.682  23.217  0.00  0.00    +0.000 F 
ATOM     16  C   UNL     1      -1.388  11.550  22.945  0.00  0.00    +0.000 C 
ATOM     17  F   UNL     1      -2.495  11.186  23.626  0.00  0.00    +0.000 F 
ATOM     18  F   UNL     1      -0.998  12.766  23.393  0.00  0.00    +0.000 F 
ENDBRANCH  14  16
ENDBRANCH   8  14
ENDBRANCH   1  12
BRANCH   5  19
ATOM     19  C   UNL     1       4.103   5.822  17.723  0.00  0.00    +0.000 A 
ATOM     20  C   UNL     1       5.449   6.227  17.625  0.00  0.00    +0.000 A 
ATOM     21  C   UNL     1       6.392   5.446  16.968  0.00  0.00    +0.000 A 
ATOM     22  C   UNL     1       5.966   4.264  16.411  0.00  0.00    +0.000 A 
ATOM     23  N   UNL     1       4.694   3.829  16.480  0.00  0.00    +0.000 NA
ATOM     24  C   UNL     1       3.770   4.584  17.140  0.00  0.00    +0.000 A 
BRANCH  24  25
ATOM     25  C   UNL     1       2.364   4.006  17.113  0.00  0.00    +0.000 C 
BRANCH  25  26
ATOM     26  C   UNL     1       2.276   2.600  17.738  0.00  0.00    +0.000 C 
BRANCH  26  27
ATOM     27  C   UNL     1       2.330   2.615  19.246  0.00  0.00    +0.000 A 
ATOM     28  C   UNL     1       3.529   2.354  19.917  0.00  0.00    +0.000 A 
ATOM     29  C   UNL     1       3.539   2.392  21.303  0.00  0.00    +0.000 A 
ATOM     30  N   UNL     1       2.453   2.667  22.056  0.00  0.00    +0.000 NA
ATOM     31  C   UNL     1       1.306   2.913  21.389  0.00  0.00    +0.000 A 
ATOM     32  C   UNL     1       1.194   2.899  20.007  0.00  0.00    +0.000 A 
ENDBRANCH  26  27
ENDBRANCH  25  26
ENDBRANCH  24  25
ENDBRANCH   5  19
TORSDOF 7
ENDMDL
MODEL 8
REMARK VINA RESULT:      -8.5      5.588      7.113
REMARK  Name = 
REMARK  7 active torsions:
REMARK  status: ('A' for Active; 'I' for Inactive)
REMARK    1  A    between atoms: C_2  and  O_5
REMARK    2  A    between atoms: O_5  and  C_6
REMARK    3  A    between atoms: C_10  and  N_11
REMARK    4  A    between atoms: C_15  and  C_16
REMARK    5  A    between atoms: C_21  and  C_22
REMARK    6  A    between atoms: C_22  and  C_23
REMARK    7  A    between atoms: C_23  and  C_24
REMARK                            x       y       z     vdW  Elec       q    Type
REMARK                         _______ _______ _______ _____ _____    ______ ____
ROOT
ATOM      1  N   UNL     1       8.242   9.978  17.838  0.00  0.00    +0.000 N 
ATOM      2  C   UNL     1       8.062   8.651  17.981  0.00  0.00    +0.000 A 
ATOM      3  N   UNL     1       8.437   7.802  18.912  0.00  0.00    +0.000 NA
ATOM      4  N   UNL     1       8.017   6.553  18.515  0.00  0.00    +0.000 NA
ATOM      5  C   UNL     1       7.408   6.709  17.358  0.00  0.00    +0.000 A 
ATOM      6  O   UNL     1       7.371   8.028  16.973  0.00  0.00    +0.000 OA
ATOM      7  H   UNL     1       7.807  10.410  17.033  0.00  0.00    +0.000 HD
ENDROOT
BRANCH   1  12
ATOM      8  C   UNL     1      10.277  12.079  20.191  0.00  0.00    +0.000 A 
ATOM      9  C   UNL     1      11.424  12.266  19.420  0.00  0.00    +0.000 A 
ATOM     10  C   UNL     1      11.515  11.706  18.148  0.00  0.00    +0.000 A 
ATOM     11  C   UNL     1      10.456  10.944  17.645  0.00  0.00    +0.000 A 
ATOM     12  C   UNL     1       9.286  10.746  18.396  0.00  0.00    +0.000 A 
ATOM     13  C   UNL     1       9.198  11.376  19.650  0.00  0.00    +0.000 A 
BRANCH   8  14
ATOM     14  O   UNL     1      10.322  12.643  21.431  0.00  0.00    +0.000 OA
BRANCH  14  16
ATOM     15  F   UNL     1      10.986  14.873  21.407  0.00  0.00    +0.000 F 
ATOM     16  C   UNL     1       9.961  14.011  21.582  0.00  0.00    +0.000 C 
ATOM     17  F   UNL     1       9.417  14.207  22.800  0.00  0.00    +0.000 F 
ATOM     18  F   UNL     1       9.024  14.304  20.650  0.00  0.00    +0.000 F 
ENDBRANCH  14  16
ENDBRANCH   8  14
ENDBRANCH   1  12
BRANCH   5  19
ATOM     19  C   UNL     1       6.818   5.730  16.444  0.00  0.00    +0.000 A 
ATOM     20  C   UNL     1       7.363   5.582  15.152  0.00  0.00    +0.000 A 
ATOM     21  C   UNL     1       6.835   4.672  14.245  0.00  0.00    +0.000 A 
ATOM     22  C   UNL     1       5.756   3.921  14.649  0.00  0.00    +0.000 A 
ATOM     23  N   UNL     1       5.201   4.021  15.870  0.00  0.00    +0.000 NA
ATOM     24  C   UNL     1       5.728   4.900  16.770  0.00  0.00    +0.000 A 
BRANCH  24  25
ATOM     25  C   UNL     1       4.989   4.947  18.097  0.00  0.00    +0.000 C 
BRANCH  25  26
ATOM     26  C   UNL     1       3.555   5.500  17.971  0.00  0.00    +0.000 C 
BRANCH  26  27
ATOM     27  C   UNL     1       2.518   4.616  18.621  0.00  0.00    +0.000 A 
ATOM     28  C   UNL     1       2.051   3.472  17.968  0.00  0.00    +0.000 A 
ATOM     29  C   UNL     1       1.109   2.679  18.605  0.00  0.00    +0.000 A 
ATOM     30  N   UNL     1       0.605   2.945  19.828  0.00  0.00    +0.000 NA
ATOM     31  C   UNL     1       1.067   4.057  20.439  0.00  0.00    +0.000 A 
ATOM     32  C   UNL     1       2.008   4.912  19.886  0.00  0.00    +0.000 A 
ENDBRANCH  26  27
ENDBRANCH  25  26
ENDBRANCH  24  25
ENDBRANCH   5  19
TORSDOF 7
ENDMDL
MODEL 9
REMARK VINA RESULT:      -8.5      6.074      7.555
REMARK  Name = 
REMARK  7 active torsions:
REMARK  status: ('A' for Active; 'I' for Inactive)
REMARK    1  A    between atoms: C_2  and  O_5
REMARK    2  A    between atoms: O_5  and  C_6
REMARK    3  A    between atoms: C_10  and  N_11
REMARK    4  A    between atoms: C_15  and  C_16
REMARK    5  A    between atoms: C_21  and  C_22
REMARK    6  A    between atoms: C_22  and  C_23
REMARK    7  A    between atoms: C_23  and  C_24
REMARK                            x       y       z     vdW  Elec       q    Type
REMARK                         _______ _______ _______ _____ _____    ______ ____
ROOT
ATOM      1  N   UNL     1       8.071  10.323  17.765  0.00  0.00    +0.000 N 
ATOM      2  C   UNL     1       7.998   8.994  17.970  0.00  0.00    +0.000 A 
ATOM      3  N   UNL     1       8.574   8.200  18.845  0.00  0.00    +0.000 NA
ATOM      4  N   UNL     1       8.171   6.916  18.555  0.00  0.00    +0.000 NA
ATOM      5  C   UNL     1       7.371   6.998  17.514  0.00  0.00    +0.000 A 
ATOM      6  O   UNL     1       7.190   8.299  17.107  0.00  0.00    +0.000 OA
ATOM      7  H   UNL     1       7.483  10.701  17.034  0.00  0.00    +0.000 HD
ENDROOT
BRANCH   1  12
ATOM      8  C   UNL     1      10.398  13.262  17.972  0.00  0.00    +0.000 A 
ATOM      9  C   UNL     1      11.323  12.775  18.894  0.00  0.00    +0.000 A 
ATOM     10  C   UNL     1      11.176  11.498  19.432  0.00  0.00    +0.000 A 
ATOM     11  C   UNL     1      10.088  10.705  19.054  0.00  0.00    +0.000 A 
ATOM     12  C   UNL     1       9.144  11.167  18.122  0.00  0.00    +0.000 A 
ATOM     13  C   UNL     1       9.355  12.434  17.549  0.00  0.00    +0.000 A 
BRANCH   8  14
ATOM     14  O   UNL     1      10.628  14.536  17.547  0.00  0.00    +0.000 OA
BRANCH  14  16
ATOM     15  F   UNL     1       8.782  15.931  17.304  0.00  0.00    +0.000 F 
ATOM     16  C   UNL     1       9.838  15.595  18.076  0.00  0.00    +0.000 C 
ATOM     17  F   UNL     1      10.610  16.683  18.275  0.00  0.00    +0.000 F 
ATOM     18  F   UNL     1       9.352  15.198  19.274  0.00  0.00    +0.000 F 
ENDBRANCH  14  16
ENDBRANCH   8  14
ENDBRANCH   1  12
BRANCH   5  19
ATOM     19  C   UNL     1       6.698   5.956  16.736  0.00  0.00    +0.000 A 
ATOM     20  C   UNL     1       7.352   5.408  15.614  0.00  0.00    +0.000 A 
ATOM     21  C   UNL     1       6.754   4.422  14.839  0.00  0.00    +0.000 A 
ATOM     22  C   UNL     1       5.496   4.001  15.201  0.00  0.00    +0.000 A 
ATOM     23  N   UNL     1       4.830   4.488  16.264  0.00  0.00    +0.000 NA
ATOM     24  C   UNL     1       5.422   5.442  17.038  0.00  0.00    +0.000 A 
BRANCH  24  25
ATOM     25  C   UNL     1       4.554   5.939  18.183  0.00  0.00    +0.000 C 
BRANCH  25  26
ATOM     26  C   UNL     1       3.049   5.937  17.845  0.00  0.00    +0.000 C 
BRANCH  26  27
ATOM     27  C   UNL     1       2.263   4.927  18.645  0.00  0.00    +0.000 A 
ATOM     28  C   UNL     1       1.676   3.824  18.016  0.00  0.00    +0.000 A 
ATOM     29  C   UNL     1       0.974   2.912  18.788  0.00  0.00    +0.000 A 
ATOM     30  N   UNL     1       0.816   3.021  20.125  0.00  0.00    +0.000 NA
ATOM     31  C   UNL     1       1.386   4.095  20.711  0.00  0.00    +0.000 A 
ATOM     32  C   UNL     1       2.108   5.061  20.026  0.00  0.00    +0.000 A 
ENDBRANCH  26  27
ENDBRANCH  25  26
ENDBRANCH  24  25
ENDBRANCH   5  19
TORSDOF 7
ENDMDL
