MODEL 1
REMARK VINA RESULT:      -7.3      0.000      0.000
REMARK  Name = 
REMARK  4 active torsions:
REMARK  status: ('A' for Active; 'I' for Inactive)
REMARK    1  A    between atoms: C_1  and  C_2
REMARK    2  A    between atoms: C_3  and  C_4
REMARK    3  A    between atoms: N_5  and  N_6
REMARK    4  A    between atoms: N_6  and  C_7
REMARK                            x       y       z     vdW  Elec       q    Type
REMARK                         _______ _______ _______ _____ _____    ______ ____
ROOT
ATOM      1  C   UNL     1       5.493   4.097  18.394  0.00  0.00    +0.000 C 
ATOM      2  N   UNL     1       5.455   3.504  19.541  0.00  0.00    +0.000 NA
ENDROOT
BRANCH   1   5
ATOM      3  C   UNL     1       5.349   6.704  16.263  0.00  0.00    +0.000 C 
ATOM      4  C   UNL     1       6.265   6.352  17.355  0.00  0.00    +0.000 A 
ATOM      5  C   UNL     1       6.345   5.266  18.262  0.00  0.00    +0.000 A 
ATOM      6  N   UNL     1       7.395   5.409  19.081  0.00  0.00    +0.000 NA
ATOM      7  O   UNL     1       8.020   6.600  18.719  0.00  0.00    +0.000 OA
ATOM      8  N   UNL     1       7.279   7.167  17.633  0.00  0.00    +0.000 N 
ATOM      9  O   UNL     1       7.698   8.251  17.166  0.00  0.00    +0.000 OA
ENDBRANCH   1   5
BRANCH   2  10
ATOM     10  N   UNL     1       4.637   2.428  19.662  0.00  0.00    +0.000 N 
ATOM     11  H   UNL     1       4.923   1.608  20.195  0.00  0.00    +0.000 HD
BRANCH  10  12
ATOM     12  C   UNL     1       3.245   2.676  19.669  0.00  0.00    +0.000 A 
ATOM     13  C   UNL     1       2.396   2.158  18.677  0.00  0.00    +0.000 A 
ATOM     14  C   UNL     1       1.015   2.342  18.726  0.00  0.00    +0.000 A 
ATOM     15  C   UNL     1       0.450   3.032  19.792  0.00  0.00    +0.000 A 
ATOM     16  C   UNL     1       1.269   3.531  20.803  0.00  0.00    +0.000 A 
ATOM     17  C   UNL     1       2.657   3.346  20.745  0.00  0.00    +0.000 A 
ENDBRANCH  10  12
ENDBRANCH   2  10
TORSDOF 3
ENDMDL
MODEL 2
REMARK VINA RESULT:      -7.3      0.190      1.212
REMARK  Name = 
REMARK  4 active torsions:
REMARK  status: ('A' for Active; 'I' for Inactive)
REMARK    1  A    between atoms: C_1  and  C_2
REMARK    2  A    between atoms: C_3  and  C_4
REMARK    3  A    between atoms: N_5  and  N_6
REMARK    4  A    between atoms: N_6  and  C_7
REMARK                            x       y       z     vdW  Elec       q    Type
REMARK                         _______ _______ _______ _____ _____    ______ ____
ROOT
ATOM      1  C   UNL     1       5.390   3.997  18.292  0.00  0.00    +0.000 C 
ATOM      2  N   UNL     1       5.440   3.318  19.389  0.00  0.00    +0.000 NA
ENDROOT
BRANCH   1   5
ATOM      3  C   UNL     1       5.221   6.657  16.228  0.00  0.00    +0.000 C 
ATOM      4  C   UNL     1       6.148   6.279  17.301  0.00  0.00    +0.000 A 
ATOM      5  C   UNL     1       6.239   5.171  18.180  0.00  0.00    +0.000 A 
ATOM      6  N   UNL     1       7.296   5.296  18.993  0.00  0.00    +0.000 NA
ATOM      7  O   UNL     1       7.917   6.496  18.654  0.00  0.00    +0.000 OA
ATOM      8  N   UNL     1       7.164   7.088  17.590  0.00  0.00    +0.000 N 
ATOM      9  O   UNL     1       7.577   8.185  17.146  0.00  0.00    +0.000 OA
ENDBRANCH   1   5
BRANCH   2  10
ATOM     10  N   UNL     1       4.626   2.237  19.494  0.00  0.00    +0.000 N 
ATOM     11  H   UNL     1       4.959   1.365  19.900  0.00  0.00    +0.000 HD
BRANCH  10  12
ATOM     12  C   UNL     1       3.249   2.488  19.694  0.00  0.00    +0.000 A 
ATOM     13  C   UNL     1       2.777   3.165  20.831  0.00  0.00    +0.000 A 
ATOM     14  C   UNL     1       1.427   3.476  20.992  0.00  0.00    +0.000 A 
ATOM     15  C   UNL     1       0.520   3.136  19.996  0.00  0.00    +0.000 A 
ATOM     16  C   UNL     1       0.967   2.489  18.846  0.00  0.00    +0.000 A 
ATOM     17  C   UNL     1       2.325   2.175  18.693  0.00  0.00    +0.000 A 
ENDBRANCH  10  12
ENDBRANCH   2  10
TORSDOF 3
ENDMDL
MODEL 3
REMARK VINA RESULT:      -7.0      1.975      2.189
REMARK  Name = 
REMARK  4 active torsions:
REMARK  status: ('A' for Active; 'I' for Inactive)
REMARK    1  A    between atoms: C_1  and  C_2
REMARK    2  A    between atoms: C_3  and  C_4
REMARK    3  A    between atoms: N_5  and  N_6
REMARK    4  A    between atoms: N_6  and  C_7
REMARK                            x       y       z     vdW  Elec       q    Type
REMARK                         _______ _______ _______ _____ _____    ______ ____
ROOT
ATOM      1  C   UNL     1       5.380   5.448  18.876  0.00  0.00    +0.000 C 
ATOM      2  N   UNL     1       4.207   5.987  18.901  0.00  0.00    +0.000 NA
ENDROOT
BRANCH   1   5
ATOM      3  C   UNL     1       5.565   3.788  15.948  0.00  0.00    +0.000 C 
ATOM      4  C   UNL     1       6.269   4.961  16.481  0.00  0.00    +0.000 A 
ATOM      5  C   UNL     1       6.208   5.675  17.704  0.00  0.00    +0.000 A 
ATOM      6  N   UNL     1       7.080   6.691  17.703  0.00  0.00    +0.000 NA
ATOM      7  O   UNL     1       7.728   6.657  16.471  0.00  0.00    +0.000 OA
ATOM      8  N   UNL     1       7.189   5.559  15.728  0.00  0.00    +0.000 N 
ATOM      9  O   UNL     1       7.657   5.366  14.582  0.00  0.00    +0.000 OA
ENDBRANCH   1   5
BRANCH   2  10
ATOM     10  N   UNL     1       3.433   5.749  19.990  0.00  0.00    +0.000 N 
ATOM     11  H   UNL     1       3.169   6.503  20.622  0.00  0.00    +0.000 HD
BRANCH  10  12
ATOM     12  C   UNL     1       2.477   4.712  19.883  0.00  0.00    +0.000 A 
ATOM     13  C   UNL     1       1.946   4.319  18.644  0.00  0.00    +0.000 A 
ATOM     14  C   UNL     1       1.060   3.248  18.533  0.00  0.00    +0.000 A 
ATOM     15  C   UNL     1       0.707   2.527  19.667  0.00  0.00    +0.000 A 
ATOM     16  C   UNL     1       1.243   2.879  20.904  0.00  0.00    +0.000 A 
ATOM     17  C   UNL     1       2.129   3.960  21.009  0.00  0.00    +0.000 A 
ENDBRANCH  10  12
ENDBRANCH   2  10
TORSDOF 3
ENDMDL
MODEL 4
REMARK VINA RESULT:      -7.0      1.607      1.704
REMARK  Name = 
REMARK  4 active torsions:
REMARK  status: ('A' for Active; 'I' for Inactive)
REMARK    1  A    between atoms: C_1  and  C_2
REMARK    2  A    between atoms: C_3  and  C_4
REMARK    3  A    between atoms: N_5  and  N_6
REMARK    4  A    between atoms: N_6  and  C_7
REMARK                            x       y       z     vdW  Elec       q    Type
REMARK                         _______ _______ _______ _____ _____    ______ ____
ROOT
ATOM      1  C   UNL     1       5.330   4.728  18.628  0.00  0.00    +0.000 C 
ATOM      2  N   UNL     1       5.495   3.510  19.020  0.00  0.00    +0.000 NA
ENDROOT
BRANCH   1   5
ATOM      3  C   UNL     1       5.753   3.579  15.488  0.00  0.00    +0.000 C 
ATOM      4  C   UNL     1       6.326   4.711  16.226  0.00  0.00    +0.000 A 
ATOM      5  C   UNL     1       6.164   5.212  17.541  0.00  0.00    +0.000 A 
ATOM      6  N   UNL     1       6.934   6.290  17.736  0.00  0.00    +0.000 NA
ATOM      7  O   UNL     1       7.617   6.511  16.542  0.00  0.00    +0.000 OA
ATOM      8  N   UNL     1       7.205   5.500  15.614  0.00  0.00    +0.000 N 
ATOM      9  O   UNL     1       7.721   5.535  14.473  0.00  0.00    +0.000 OA
ENDBRANCH   1   5
BRANCH   2  10
ATOM     10  N   UNL     1       4.729   3.074  20.052  0.00  0.00    +0.000 N 
ATOM     11  H   UNL     1       5.020   3.213  21.018  0.00  0.00    +0.000 HD
BRANCH  10  12
ATOM     12  C   UNL     1       3.328   3.074  19.856  0.00  0.00    +0.000 A 
ATOM     13  C   UNL     1       2.718   2.270  18.880  0.00  0.00    +0.000 A 
ATOM     14  C   UNL     1       1.332   2.216  18.737  0.00  0.00    +0.000 A 
ATOM     15  C   UNL     1       0.523   2.952  19.594  0.00  0.00    +0.000 A 
ATOM     16  C   UNL     1       1.104   3.736  20.589  0.00  0.00    +0.000 A 
ATOM     17  C   UNL     1       2.498   3.789  20.723  0.00  0.00    +0.000 A 
ENDBRANCH  10  12
ENDBRANCH   2  10
TORSDOF 3
ENDMDL
MODEL 5
REMARK VINA RESULT:      -6.9      2.840      3.014
REMARK  Name = 
REMARK  4 active torsions:
REMARK  status: ('A' for Active; 'I' for Inactive)
REMARK    1  A    between atoms: C_1  and  C_2
REMARK    2  A    between atoms: C_3  and  C_4
REMARK    3  A    between atoms: N_5  and  N_6
REMARK    4  A    between atoms: N_6  and  C_7
REMARK                            x       y       z     vdW  Elec       q    Type
REMARK                         _______ _______ _______ _____ _____    ______ ____
ROOT
ATOM      1  C   UNL     1       5.044   3.615  16.497  0.00  0.00    +0.000 C 
ATOM      2  N   UNL     1       3.843   4.088  16.520  0.00  0.00    +0.000 NA
ENDROOT
BRANCH   1   5
ATOM      3  C   UNL     1       6.037   3.641  13.276  0.00  0.00    +0.000 C 
ATOM      4  C   UNL     1       6.470   4.387  14.463  0.00  0.00    +0.000 A 
ATOM      5  C   UNL     1       6.069   4.394  15.823  0.00  0.00    +0.000 A 
ATOM      6  N   UNL     1       6.796   5.271  16.527  0.00  0.00    +0.000 NA
ATOM      7  O   UNL     1       7.690   5.854  15.632  0.00  0.00    +0.000 OA
ATOM      8  N   UNL     1       7.452   5.277  14.344  0.00  0.00    +0.000 N 
ATOM      9  O   UNL     1       8.171   5.680  13.400  0.00  0.00    +0.000 OA
ENDBRANCH   1   5
BRANCH   2  10
ATOM     10  N   UNL     1       2.889   3.341  17.131  0.00  0.00    +0.000 N 
ATOM     11  H   UNL     1       2.912   2.324  17.092  0.00  0.00    +0.000 HD
BRANCH  10  12
ATOM     12  C   UNL     1       2.319   3.870  18.312  0.00  0.00    +0.000 A 
ATOM     13  C   UNL     1       1.484   3.101  19.139  0.00  0.00    +0.000 A 
ATOM     14  C   UNL     1       0.982   3.600  20.341  0.00  0.00    +0.000 A 
ATOM     15  C   UNL     1       1.334   4.879  20.754  0.00  0.00    +0.000 A 
ATOM     16  C   UNL     1       2.184   5.651  19.966  0.00  0.00    +0.000 A 
ATOM     17  C   UNL     1       2.680   5.145  18.756  0.00  0.00    +0.000 A 
ENDBRANCH  10  12
ENDBRANCH   2  10
TORSDOF 3
ENDMDL
MODEL 6
REMARK VINA RESULT:      -6.9      1.527      1.986
REMARK  Name = 
REMARK  4 active torsions:
REMARK  status: ('A' for Active; 'I' for Inactive)
REMARK    1  A    between atoms: C_1  and  C_2
REMARK    2  A    between atoms: C_3  and  C_4
REMARK    3  A    between atoms: N_5  and  N_6
REMARK    4  A    between atoms: N_6  and  C_7
REMARK                            x       y       z     vdW  Elec       q    Type
REMARK                         _______ _______ _______ _____ _____    ______ ____
ROOT
ATOM      1  C   UNL     1       5.221   4.722  18.809  0.00  0.00    +0.000 C 
ATOM      2  N   UNL     1       5.452   3.528  19.242  0.00  0.00    +0.000 NA
ENDROOT
BRANCH   1   5
ATOM      3  C   UNL     1       5.683   3.648  15.648  0.00  0.00    +0.000 C 
ATOM      4  C   UNL     1       6.244   4.764  16.418  0.00  0.00    +0.000 A 
ATOM      5  C   UNL     1       6.065   5.234  17.743  0.00  0.00    +0.000 A 
ATOM      6  N   UNL     1       6.829   6.310  17.971  0.00  0.00    +0.000 NA
ATOM      7  O   UNL     1       7.524   6.561  16.790  0.00  0.00    +0.000 OA
ATOM      8  N   UNL     1       7.127   5.571  15.835  0.00  0.00    +0.000 N 
ATOM      9  O   UNL     1       7.654   5.634  14.701  0.00  0.00    +0.000 OA
ENDBRANCH   1   5
BRANCH   2  10
ATOM     10  N   UNL     1       4.674   3.068  20.254  0.00  0.00    +0.000 N 
ATOM     11  H   UNL     1       4.906   3.265  21.226  0.00  0.00    +0.000 HD
BRANCH  10  12
ATOM     12  C   UNL     1       3.290   2.945  19.995  0.00  0.00    +0.000 A 
ATOM     13  C   UNL     1       2.335   3.695  20.701  0.00  0.00    +0.000 A 
ATOM     14  C   UNL     1       0.976   3.627  20.394  0.00  0.00    +0.000 A 
ATOM     15  C   UNL     1       0.547   2.819  19.348  0.00  0.00    +0.000 A 
ATOM     16  C   UNL     1       1.478   2.087  18.614  0.00  0.00    +0.000 A 
ATOM     17  C   UNL     1       2.842   2.156  18.931  0.00  0.00    +0.000 A 
ENDBRANCH  10  12
ENDBRANCH   2  10
TORSDOF 3
ENDMDL
MODEL 7
REMARK VINA RESULT:      -6.9      2.889      3.177
REMARK  Name = 
REMARK  4 active torsions:
REMARK  status: ('A' for Active; 'I' for Inactive)
REMARK    1  A    between atoms: C_1  and  C_2
REMARK    2  A    between atoms: C_3  and  C_4
REMARK    3  A    between atoms: N_5  and  N_6
REMARK    4  A    between atoms: N_6  and  C_7
REMARK                            x       y       z     vdW  Elec       q    Type
REMARK                         _______ _______ _______ _____ _____    ______ ____
ROOT
ATOM      1  C   UNL     1       5.428   3.303  16.122  0.00  0.00    +0.000 C 
ATOM      2  N   UNL     1       4.967   3.724  17.252  0.00  0.00    +0.000 NA
ENDROOT
BRANCH   1   5
ATOM      3  C   UNL     1       6.038   3.537  12.815  0.00  0.00    +0.000 C 
ATOM      4  C   UNL     1       6.551   4.265  13.982  0.00  0.00    +0.000 A 
ATOM      5  C   UNL     1       6.310   4.185  15.376  0.00  0.00    +0.000 A 
ATOM      6  N   UNL     1       7.049   5.085  16.037  0.00  0.00    +0.000 NA
ATOM      7  O   UNL     1       7.790   5.772  15.077  0.00  0.00    +0.000 OA
ATOM      8  N   UNL     1       7.447   5.231  13.797  0.00  0.00    +0.000 N 
ATOM      9  O   UNL     1       8.021   5.727  12.800  0.00  0.00    +0.000 OA
ENDBRANCH   1   5
BRANCH   2  10
ATOM     10  N   UNL     1       4.126   2.903  17.929  0.00  0.00    +0.000 N 
ATOM     11  H   UNL     1       4.405   1.957  18.183  0.00  0.00    +0.000 HD
BRANCH  10  12
ATOM     12  C   UNL     1       3.226   3.512  18.835  0.00  0.00    +0.000 A 
ATOM     13  C   UNL     1       3.396   4.836  19.270  0.00  0.00    +0.000 A 
ATOM     14  C   UNL     1       2.468   5.458  20.105  0.00  0.00    +0.000 A 
ATOM     15  C   UNL     1       1.330   4.768  20.502  0.00  0.00    +0.000 A 
ATOM     16  C   UNL     1       1.124   3.463  20.061  0.00  0.00    +0.000 A 
ATOM     17  C   UNL     1       2.063   2.842  19.226  0.00  0.00    +0.000 A 
ENDBRANCH  10  12
ENDBRANCH   2  10
TORSDOF 3
ENDMDL
MODEL 8
REMARK VINA RESULT:      -6.8      3.097      3.372
REMARK  Name = 
REMARK  4 active torsions:
REMARK  status: ('A' for Active; 'I' for Inactive)
REMARK    1  A    between atoms: C_1  and  C_2
REMARK    2  A    between atoms: C_3  and  C_4
REMARK    3  A    between atoms: N_5  and  N_6
REMARK    4  A    between atoms: N_6  and  C_7
REMARK                            x       y       z     vdW  Elec       q    Type
REMARK                         _______ _______ _______ _____ _____    ______ ____
ROOT
ATOM      1  C   UNL     1       5.781   4.077  16.344  0.00  0.00    +0.000 C 
ATOM      2  N   UNL     1       6.303   4.159  17.523  0.00  0.00    +0.000 NA
ENDROOT
BRANCH   1   5
ATOM      3  C   UNL     1       5.517   3.460  13.041  0.00  0.00    +0.000 C 
ATOM      4  C   UNL     1       6.434   4.286  13.835  0.00  0.00    +0.000 A 
ATOM      5  C   UNL     1       6.563   4.561  15.220  0.00  0.00    +0.000 A 
ATOM      6  N   UNL     1       7.589   5.393  15.444  0.00  0.00    +0.000 NA
ATOM      7  O   UNL     1       8.148   5.676  14.200  0.00  0.00    +0.000 OA
ATOM      8  N   UNL     1       7.393   4.966  13.212  0.00  0.00    +0.000 N 
ATOM      9  O   UNL     1       7.754   5.097  12.020  0.00  0.00    +0.000 OA
ENDBRANCH   1   5
BRANCH   2  10
ATOM     10  N   UNL     1       5.554   3.727  18.569  0.00  0.00    +0.000 N 
ATOM     11  H   UNL     1       5.832   3.921  19.530  0.00  0.00    +0.000 HD
BRANCH  10  12
ATOM     12  C   UNL     1       4.157   3.645  18.369  0.00  0.00    +0.000 A 
ATOM     13  C   UNL     1       3.508   2.416  18.173  0.00  0.00    +0.000 A 
ATOM     14  C   UNL     1       2.121   2.330  18.050  0.00  0.00    +0.000 A 
ATOM     15  C   UNL     1       1.350   3.481  18.146  0.00  0.00    +0.000 A 
ATOM     16  C   UNL     1       1.968   4.710  18.368  0.00  0.00    +0.000 A 
ATOM     17  C   UNL     1       3.362   4.790  18.487  0.00  0.00    +0.000 A 
ENDBRANCH  10  12
ENDBRANCH   2  10
TORSDOF 3
ENDMDL
MODEL 9
REMARK VINA RESULT:      -6.8      2.247      2.719
REMARK  Name = 
REMARK  4 active torsions:
REMARK  status: ('A' for Active; 'I' for Inactive)
REMARK    1  A    between atoms: C_1  and  C_2
REMARK    2  A    between atoms: C_3  and  C_4
REMARK    3  A    between atoms: N_5  and  N_6
REMARK    4  A    between atoms: N_6  and  C_7
REMARK                            x       y       z     vdW  Elec       q    Type
REMARK                         _______ _______ _______ _____ _____    ______ ____
ROOT
ATOM      1  C   UNL     1       4.766   5.828  18.422  0.00  0.00    +0.000 C 
ATOM      2  N   UNL     1       3.675   6.488  18.221  0.00  0.00    +0.000 NA
ENDROOT
BRANCH   1   5
ATOM      3  C   UNL     1       5.337   3.952  15.681  0.00  0.00    +0.000 C 
ATOM      4  C   UNL     1       6.028   5.108  16.265  0.00  0.00    +0.000 A 
ATOM      5  C   UNL     1       5.807   5.911  17.412  0.00  0.00    +0.000 A 
ATOM      6  N   UNL     1       6.746   6.861  17.513  0.00  0.00    +0.000 NA
ATOM      7  O   UNL     1       7.600   6.692  16.426  0.00  0.00    +0.000 OA
ATOM      8  N   UNL     1       7.114   5.583  15.661  0.00  0.00    +0.000 N 
ATOM      9  O   UNL     1       7.763   5.275  14.635  0.00  0.00    +0.000 OA
ENDBRANCH   1   5
BRANCH   2  10
ATOM     10  N   UNL     1       2.700   6.385  19.159  0.00  0.00    +0.000 N 
ATOM     11  H   UNL     1       2.058   7.156  19.336  0.00  0.00    +0.000 HD
BRANCH  10  12
ATOM     12  C   UNL     1       2.147   5.101  19.372  0.00  0.00    +0.000 A 
ATOM     13  C   UNL     1       1.864   4.622  20.661  0.00  0.00    +0.000 A 
ATOM     14  C   UNL     1       1.251   3.386  20.865  0.00  0.00    +0.000 A 
ATOM     15  C   UNL     1       0.883   2.612  19.772  0.00  0.00    +0.000 A 
ATOM     16  C   UNL     1       1.128   3.078  18.482  0.00  0.00    +0.000 A 
ATOM     17  C   UNL     1       1.748   4.319  18.284  0.00  0.00    +0.000 A 
ENDBRANCH  10  12
ENDBRANCH   2  10
TORSDOF 3
ENDMDL
