MODEL 1
REMARK VINA RESULT:      -8.1      0.000      0.000
REMARK  Name = 
REMARK  8 active torsions:
REMARK  status: ('A' for Active; 'I' for Inactive)
REMARK    1  A    between atoms: O_1  and  C_2
REMARK    2  A    between atoms: C_2  and  C_3
REMARK    3  A    between atoms: C_3  and  C_4
REMARK    4  A    between atoms: C_4  and  N_5
REMARK    5  A    between atoms: C_8  and  C_9
REMARK    6  A    between atoms: C_9  and  O_10
REMARK    7  A    between atoms: C_9  and  C_11
REMARK    8  A    between atoms: C_9  and  C_17
REMARK                            x       y       z     vdW  Elec       q    Type
REMARK                         _______ _______ _______ _____ _____    ______ ____
ROOT
ATOM      1  C   UNL     1       3.321   5.728  19.137  0.00  0.00    +0.000 C 
ENDROOT
BRANCH   1   5
ATOM      2  N   UNL     1       6.263   5.063  16.166  0.00  0.00    +0.000 N 
ATOM      3  C   UNL     1       5.219   3.951  16.161  0.00  0.00    +0.000 C 
ATOM      4  C   UNL     1       4.113   4.268  17.156  0.00  0.00    +0.000 C 
ATOM      5  C   UNL     1       4.403   5.558  17.974  0.00  0.00    +0.000 C 
ATOM      6  C   UNL     1       4.531   6.710  16.953  0.00  0.00    +0.000 C 
ATOM      7  C   UNL     1       5.569   6.400  15.869  0.00  0.00    +0.000 C 
ATOM      8  C   UNL     1       5.829   5.384  18.589  0.00  0.00    +0.000 C 
ATOM      9  C   UNL     1       6.906   5.170  17.540  0.00  0.00    +0.000 C 
BRANCH   2  10
ATOM     10  C   UNL     1       7.341   4.823  15.081  0.00  0.00    +0.000 C 
BRANCH  10  11
ATOM     11  C   UNL     1       6.752   4.637  13.679  0.00  0.00    +0.000 C 
BRANCH  11  12
ATOM     12  C   UNL     1       7.727   5.081  12.600  0.00  0.00    +0.000 C 
BRANCH  12  13
ATOM     13  O   UNL     1       8.675   5.959  13.183  0.00  0.00    +0.000 OA
ATOM     14  H   UNL     1       8.300   6.859  13.143  0.00  0.00    +0.000 HD
ENDBRANCH  12  13
ENDBRANCH  11  12
ENDBRANCH  10  11
ENDBRANCH   2  10
ENDBRANCH   1   5
BRANCH   1  15
ATOM     15  C   UNL     1       2.575   7.093  19.039  0.00  0.00    +0.000 A 
ATOM     16  C   UNL     1       1.972   7.692  20.161  0.00  0.00    +0.000 A 
ATOM     17  C   UNL     1       1.216   8.869  20.066  0.00  0.00    +0.000 A 
ATOM     18  C   UNL     1       1.045   9.492  18.841  0.00  0.00    +0.000 A 
ATOM     19  C   UNL     1       1.631   8.945  17.711  0.00  0.00    +0.000 A 
ATOM     20  C   UNL     1       2.380   7.763  17.807  0.00  0.00    +0.000 A 
ENDBRANCH   1  15
BRANCH   1  21
ATOM     21  C   UNL     1       2.368   4.506  19.327  0.00  0.00    +0.000 A 
ATOM     22  C   UNL     1       2.372   3.762  20.527  0.00  0.00    +0.000 A 
ATOM     23  C   UNL     1       1.523   2.663  20.727  0.00  0.00    +0.000 A 
ATOM     24  C   UNL     1       0.633   2.272  19.736  0.00  0.00    +0.000 A 
ATOM     25  C   UNL     1       0.590   2.989  18.547  0.00  0.00    +0.000 A 
ATOM     26  C   UNL     1       1.449   4.076  18.349  0.00  0.00    +0.000 A 
ENDBRANCH   1  21
BRANCH   1  27
ATOM     27  O   UNL     1       4.174   5.711  20.314  0.00  0.00    +0.000 OA
ATOM     28  H   UNL     1       3.751   5.206  21.023  0.00  0.00    +0.000 HD
ENDBRANCH   1  27
TORSDOF 8
ENDMDL
MODEL 2
REMARK VINA RESULT:      -8.1      1.035      1.042
REMARK  Name = 
REMARK  8 active torsions:
REMARK  status: ('A' for Active; 'I' for Inactive)
REMARK    1  A    between atoms: O_1  and  C_2
REMARK    2  A    between atoms: C_2  and  C_3
REMARK    3  A    between atoms: C_3  and  C_4
REMARK    4  A    between atoms: C_4  and  N_5
REMARK    5  A    between atoms: C_8  and  C_9
REMARK    6  A    between atoms: C_9  and  O_10
REMARK    7  A    between atoms: C_9  and  C_11
REMARK    8  A    between atoms: C_9  and  C_17
REMARK                            x       y       z     vdW  Elec       q    Type
REMARK                         _______ _______ _______ _____ _____    ______ ____
ROOT
ATOM      1  C   UNL     1       3.423   5.809  19.180  0.00  0.00    +0.000 C 
ENDROOT
BRANCH   1   5
ATOM      2  N   UNL     1       5.854   4.806  15.862  0.00  0.00    +0.000 N 
ATOM      3  C   UNL     1       4.684   3.836  15.997  0.00  0.00    +0.000 C 
ATOM      4  C   UNL     1       3.763   4.281  17.123  0.00  0.00    +0.000 C 
ATOM      5  C   UNL     1       4.318   5.515  17.890  0.00  0.00    +0.000 C 
ATOM      6  C   UNL     1       4.461   6.652  16.855  0.00  0.00    +0.000 C 
ATOM      7  C   UNL     1       5.304   6.225  15.648  0.00  0.00    +0.000 C 
ATOM      8  C   UNL     1       5.776   5.154  18.318  0.00  0.00    +0.000 C 
ATOM      9  C   UNL     1       6.675   4.816  17.142  0.00  0.00    +0.000 C 
BRANCH   2  10
ATOM     10  C   UNL     1       6.745   4.442  14.649  0.00  0.00    +0.000 C 
BRANCH  10  11
ATOM     11  C   UNL     1       5.960   3.813  13.494  0.00  0.00    +0.000 C 
BRANCH  11  12
ATOM     12  C   UNL     1       6.817   3.679  12.244  0.00  0.00    +0.000 C 
BRANCH  12  13
ATOM     13  O   UNL     1       6.736   2.342  11.783  0.00  0.00    +0.000 OA
ATOM     14  H   UNL     1       6.574   1.776  12.562  0.00  0.00    +0.000 HD
ENDBRANCH  12  13
ENDBRANCH  11  12
ENDBRANCH  10  11
ENDBRANCH   2  10
ENDBRANCH   1   5
BRANCH   1  15
ATOM     15  C   UNL     1       2.642   7.151  19.050  0.00  0.00    +0.000 A 
ATOM     16  C   UNL     1       1.986   7.739  20.149  0.00  0.00    +0.000 A 
ATOM     17  C   UNL     1       1.200   8.893  20.021  0.00  0.00    +0.000 A 
ATOM     18  C   UNL     1       1.050   9.504  18.788  0.00  0.00    +0.000 A 
ATOM     19  C   UNL     1       1.687   8.967  17.680  0.00  0.00    +0.000 A 
ATOM     20  C   UNL     1       2.466   7.808  17.807  0.00  0.00    +0.000 A 
ENDBRANCH   1  15
BRANCH   1  21
ATOM     21  C   UNL     1       2.538   4.612  19.649  0.00  0.00    +0.000 A 
ATOM     22  C   UNL     1       2.752   3.996  20.901  0.00  0.00    +0.000 A 
ATOM     23  C   UNL     1       1.968   2.923  21.350  0.00  0.00    +0.000 A 
ATOM     24  C   UNL     1       0.935   2.429  20.564  0.00  0.00    +0.000 A 
ATOM     25  C   UNL     1       0.685   3.018  19.331  0.00  0.00    +0.000 A 
ATOM     26  C   UNL     1       1.480   4.081  18.884  0.00  0.00    +0.000 A 
ENDBRANCH   1  21
BRANCH   1  27
ATOM     27  O   UNL     1       4.447   5.927  20.206  0.00  0.00    +0.000 OA
ATOM     28  H   UNL     1       5.269   5.518  19.904  0.00  0.00    +0.000 HD
ENDBRANCH   1  27
TORSDOF 8
ENDMDL
MODEL 3
REMARK VINA RESULT:      -8.0      0.254      1.350
REMARK  Name = 
REMARK  8 active torsions:
REMARK  status: ('A' for Active; 'I' for Inactive)
REMARK    1  A    between atoms: O_1  and  C_2
REMARK    2  A    between atoms: C_2  and  C_3
REMARK    3  A    between atoms: C_3  and  C_4
REMARK    4  A    between atoms: C_4  and  N_5
REMARK    5  A    between atoms: C_8  and  C_9
REMARK    6  A    between atoms: C_9  and  O_10
REMARK    7  A    between atoms: C_9  and  C_11
REMARK    8  A    between atoms: C_9  and  C_17
REMARK                            x       y       z     vdW  Elec       q    Type
REMARK                         _______ _______ _______ _____ _____    ______ ____
ROOT
ATOM      1  C   UNL     1       3.301   5.711  19.148  0.00  0.00    +0.000 C 
ENDROOT
BRANCH   1   5
ATOM      2  N   UNL     1       6.137   5.082  16.068  0.00  0.00    +0.000 N 
ATOM      3  C   UNL     1       5.019   4.046  16.003  0.00  0.00    +0.000 C 
ATOM      4  C   UNL     1       3.955   4.358  17.044  0.00  0.00    +0.000 C 
ATOM      5  C   UNL     1       4.348   5.559  17.951  0.00  0.00    +0.000 C 
ATOM      6  C   UNL     1       4.537   6.775  17.018  0.00  0.00    +0.000 C 
ATOM      7  C   UNL     1       5.531   6.482  15.889  0.00  0.00    +0.000 C 
ATOM      8  C   UNL     1       5.769   5.243  18.518  0.00  0.00    +0.000 C 
ATOM      9  C   UNL     1       6.811   5.038  17.431  0.00  0.00    +0.000 C 
BRANCH   2  10
ATOM     10  C   UNL     1       7.176   4.854  14.943  0.00  0.00    +0.000 C 
BRANCH  10  11
ATOM     11  C   UNL     1       6.576   4.205  13.692  0.00  0.00    +0.000 C 
BRANCH  11  12
ATOM     12  C   UNL     1       7.316   4.630  12.433  0.00  0.00    +0.000 C 
BRANCH  12  13
ATOM     13  O   UNL     1       8.140   5.738  12.747  0.00  0.00    +0.000 OA
ATOM     14  H   UNL     1       8.613   5.989  11.931  0.00  0.00    +0.000 HD
ENDBRANCH  12  13
ENDBRANCH  11  12
ENDBRANCH  10  11
ENDBRANCH   2  10
ENDBRANCH   1   5
BRANCH   1  15
ATOM     15  C   UNL     1       2.483   7.033  19.038  0.00  0.00    +0.000 A 
ATOM     16  C   UNL     1       2.331   7.712  17.814  0.00  0.00    +0.000 A 
ATOM     17  C   UNL     1       1.681   8.952  17.723  0.00  0.00    +0.000 A 
ATOM     18  C   UNL     1       1.153   9.549  18.855  0.00  0.00    +0.000 A 
ATOM     19  C   UNL     1       1.269   8.910  20.079  0.00  0.00    +0.000 A 
ATOM     20  C   UNL     1       1.927   7.675  20.171  0.00  0.00    +0.000 A 
ENDBRANCH   1  15
BRANCH   1  21
ATOM     21  C   UNL     1       2.420   4.449  19.409  0.00  0.00    +0.000 A 
ATOM     22  C   UNL     1       1.472   4.014  18.457  0.00  0.00    +0.000 A 
ATOM     23  C   UNL     1       0.672   2.881  18.664  0.00  0.00    +0.000 A 
ATOM     24  C   UNL     1       0.794   2.135  19.828  0.00  0.00    +0.000 A 
ATOM     25  C   UNL     1       1.727   2.523  20.783  0.00  0.00    +0.000 A 
ATOM     26  C   UNL     1       2.513   3.663  20.576  0.00  0.00    +0.000 A 
ENDBRANCH   1  21
BRANCH   1  27
ATOM     27  O   UNL     1       4.195   5.772  20.293  0.00  0.00    +0.000 OA
ATOM     28  H   UNL     1       5.015   5.296  20.100  0.00  0.00    +0.000 HD
ENDBRANCH   1  27
TORSDOF 8
ENDMDL
MODEL 4
REMARK VINA RESULT:      -7.9      0.328      1.391
REMARK  Name = 
REMARK  8 active torsions:
REMARK  status: ('A' for Active; 'I' for Inactive)
REMARK    1  A    between atoms: O_1  and  C_2
REMARK    2  A    between atoms: C_2  and  C_3
REMARK    3  A    between atoms: C_3  and  C_4
REMARK    4  A    between atoms: C_4  and  N_5
REMARK    5  A    between atoms: C_8  and  C_9
REMARK    6  A    between atoms: C_9  and  O_10
REMARK    7  A    between atoms: C_9  and  C_11
REMARK    8  A    between atoms: C_9  and  C_17
REMARK                            x       y       z     vdW  Elec       q    Type
REMARK                         _______ _______ _______ _____ _____    ______ ____
ROOT
ATOM      1  C   UNL     1       3.318   5.652  19.191  0.00  0.00    +0.000 C 
ENDROOT
BRANCH   1   5
ATOM      2  N   UNL     1       6.339   5.167  16.266  0.00  0.00    +0.000 N 
ATOM      3  C   UNL     1       6.790   4.615  17.615  0.00  0.00    +0.000 C 
ATOM      4  C   UNL     1       5.650   4.696  18.620  0.00  0.00    +0.000 C 
ATOM      5  C   UNL     1       4.398   5.412  18.039  0.00  0.00    +0.000 C 
ATOM      6  C   UNL     1       3.950   4.594  16.809  0.00  0.00    +0.000 C 
ATOM      7  C   UNL     1       5.091   4.400  15.804  0.00  0.00    +0.000 C 
ATOM      8  C   UNL     1       4.891   6.782  17.472  0.00  0.00    +0.000 C 
ATOM      9  C   UNL     1       5.958   6.633  16.401  0.00  0.00    +0.000 C 
BRANCH   2  10
ATOM     10  C   UNL     1       7.442   4.991  15.193  0.00  0.00    +0.000 C 
BRANCH  10  11
ATOM     11  C   UNL     1       6.898   4.513  13.844  0.00  0.00    +0.000 C 
BRANCH  11  12
ATOM     12  C   UNL     1       7.622   5.177  12.683  0.00  0.00    +0.000 C 
BRANCH  12  13
ATOM     13  O   UNL     1       8.720   5.910  13.196  0.00  0.00    +0.000 OA
ATOM     14  H   UNL     1       9.489   5.308  13.214  0.00  0.00    +0.000 HD
ENDBRANCH  12  13
ENDBRANCH  11  12
ENDBRANCH  10  11
ENDBRANCH   2  10
ENDBRANCH   1   5
BRANCH   1  15
ATOM     15  C   UNL     1       2.598   7.026  19.033  0.00  0.00    +0.000 A 
ATOM     16  C   UNL     1       2.026   7.695  20.132  0.00  0.00    +0.000 A 
ATOM     17  C   UNL     1       1.292   8.882  19.986  0.00  0.00    +0.000 A 
ATOM     18  C   UNL     1       1.115   9.444  18.733  0.00  0.00    +0.000 A 
ATOM     19  C   UNL     1       1.672   8.826  17.625  0.00  0.00    +0.000 A 
ATOM     20  C   UNL     1       2.398   7.635  17.771  0.00  0.00    +0.000 A 
ENDBRANCH   1  15
BRANCH   1  21
ATOM     21  C   UNL     1       2.342   4.458  19.431  0.00  0.00    +0.000 A 
ATOM     22  C   UNL     1       1.544   3.949  18.383  0.00  0.00    +0.000 A 
ATOM     23  C   UNL     1       0.663   2.873  18.569  0.00  0.00    +0.000 A 
ATOM     24  C   UNL     1       0.552   2.261  19.811  0.00  0.00    +0.000 A 
ATOM     25  C   UNL     1       1.331   2.725  20.864  0.00  0.00    +0.000 A 
ATOM     26  C   UNL     1       2.199   3.808  20.674  0.00  0.00    +0.000 A 
ENDBRANCH   1  21
BRANCH   1  27
ATOM     27  O   UNL     1       4.168   5.669  20.370  0.00  0.00    +0.000 OA
ATOM     28  H   UNL     1       3.867   6.350  20.988  0.00  0.00    +0.000 HD
ENDBRANCH   1  27
TORSDOF 8
ENDMDL
MODEL 5
REMARK VINA RESULT:      -7.8      1.077      1.825
REMARK  Name = 
REMARK  8 active torsions:
REMARK  status: ('A' for Active; 'I' for Inactive)
REMARK    1  A    between atoms: O_1  and  C_2
REMARK    2  A    between atoms: C_2  and  C_3
REMARK    3  A    between atoms: C_3  and  C_4
REMARK    4  A    between atoms: C_4  and  N_5
REMARK    5  A    between atoms: C_8  and  C_9
REMARK    6  A    between atoms: C_9  and  O_10
REMARK    7  A    between atoms: C_9  and  C_11
REMARK    8  A    between atoms: C_9  and  C_17
REMARK                            x       y       z     vdW  Elec       q    Type
REMARK                         _______ _______ _______ _____ _____    ______ ____
ROOT
ATOM      1  C   UNL     1       3.426   5.748  19.243  0.00  0.00    +0.000 C 
ENDROOT
BRANCH   1   5
ATOM      2  N   UNL     1       5.852   4.888  15.882  0.00  0.00    +0.000 N 
ATOM      3  C   UNL     1       6.597   4.603  17.182  0.00  0.00    +0.000 C 
ATOM      4  C   UNL     1       5.671   4.809  18.371  0.00  0.00    +0.000 C 
ATOM      5  C   UNL     1       4.278   5.357  17.950  0.00  0.00    +0.000 C 
ATOM      6  C   UNL     1       3.665   4.316  16.988  0.00  0.00    +0.000 C 
ATOM      7  C   UNL     1       4.602   3.998  15.817  0.00  0.00    +0.000 C 
ATOM      8  C   UNL     1       4.543   6.626  17.078  0.00  0.00    +0.000 C 
ATOM      9  C   UNL     1       5.391   6.338  15.851  0.00  0.00    +0.000 C 
BRANCH   2  10
ATOM     10  C   UNL     1       6.736   4.576  14.650  0.00  0.00    +0.000 C 
BRANCH  10  11
ATOM     11  C   UNL     1       5.979   3.845  13.536  0.00  0.00    +0.000 C 
BRANCH  11  12
ATOM     12  C   UNL     1       6.832   3.696  12.286  0.00  0.00    +0.000 C 
BRANCH  12  13
ATOM     13  O   UNL     1       6.668   2.382  11.783  0.00  0.00    +0.000 OA
ATOM     14  H   UNL     1       7.374   1.832  12.172  0.00  0.00    +0.000 HD
ENDBRANCH  12  13
ENDBRANCH  11  12
ENDBRANCH  10  11
ENDBRANCH   2  10
ENDBRANCH   1   5
BRANCH   1  15
ATOM     15  C   UNL     1       2.602   7.052  19.021  0.00  0.00    +0.000 A 
ATOM     16  C   UNL     1       2.572   7.709  17.776  0.00  0.00    +0.000 A 
ATOM     17  C   UNL     1       1.914   8.933  17.591  0.00  0.00    +0.000 A 
ATOM     18  C   UNL     1       1.255   9.539  18.648  0.00  0.00    +0.000 A 
ATOM     19  C   UNL     1       1.248   8.922  19.889  0.00  0.00    +0.000 A 
ATOM     20  C   UNL     1       1.913   7.702  20.075  0.00  0.00    +0.000 A 
ENDBRANCH   1  15
BRANCH   1  21
ATOM     21  C   UNL     1       2.594   4.578  19.857  0.00  0.00    +0.000 A 
ATOM     22  C   UNL     1       2.926   4.033  21.117  0.00  0.00    +0.000 A 
ATOM     23  C   UNL     1       2.193   2.986  21.694  0.00  0.00    +0.000 A 
ATOM     24  C   UNL     1       1.094   2.449  21.036  0.00  0.00    +0.000 A 
ATOM     25  C   UNL     1       0.728   2.969  19.801  0.00  0.00    +0.000 A 
ATOM     26  C   UNL     1       1.472   4.006  19.224  0.00  0.00    +0.000 A 
ENDBRANCH   1  21
BRANCH   1  27
ATOM     27  O   UNL     1       4.484   5.988  20.211  0.00  0.00    +0.000 OA
ATOM     28  H   UNL     1       4.108   6.099  21.095  0.00  0.00    +0.000 HD
ENDBRANCH   1  27
TORSDOF 8
ENDMDL
MODEL 6
REMARK VINA RESULT:      -7.8      1.070      1.804
REMARK  Name = 
REMARK  8 active torsions:
REMARK  status: ('A' for Active; 'I' for Inactive)
REMARK    1  A    between atoms: O_1  and  C_2
REMARK    2  A    between atoms: C_2  and  C_3
REMARK    3  A    between atoms: C_3  and  C_4
REMARK    4  A    between atoms: C_4  and  N_5
REMARK    5  A    between atoms: C_8  and  C_9
REMARK    6  A    between atoms: C_9  and  O_10
REMARK    7  A    between atoms: C_9  and  C_11
REMARK    8  A    between atoms: C_9  and  C_17
REMARK                            x       y       z     vdW  Elec       q    Type
REMARK                         _______ _______ _______ _____ _____    ______ ____
ROOT
ATOM      1  C   UNL     1       3.525   5.730  19.244  0.00  0.00    +0.000 C 
ENDROOT
BRANCH   1   5
ATOM      2  N   UNL     1       5.892   4.866  15.842  0.00  0.00    +0.000 N 
ATOM      3  C   UNL     1       6.655   4.572  17.129  0.00  0.00    +0.000 C 
ATOM      4  C   UNL     1       5.750   4.780  18.334  0.00  0.00    +0.000 C 
ATOM      5  C   UNL     1       4.353   5.338  17.936  0.00  0.00    +0.000 C 
ATOM      6  C   UNL     1       3.719   4.303  16.981  0.00  0.00    +0.000 C 
ATOM      7  C   UNL     1       4.635   3.984  15.794  0.00  0.00    +0.000 C 
ATOM      8  C   UNL     1       4.613   6.608  17.064  0.00  0.00    +0.000 C 
ATOM      9  C   UNL     1       5.439   6.318  15.823  0.00  0.00    +0.000 C 
BRANCH   2  10
ATOM     10  C   UNL     1       6.754   4.552  14.596  0.00  0.00    +0.000 C 
BRANCH  10  11
ATOM     11  C   UNL     1       5.974   3.834  13.490  0.00  0.00    +0.000 C 
BRANCH  11  12
ATOM     12  C   UNL     1       6.795   3.713  12.215  0.00  0.00    +0.000 C 
BRANCH  12  13
ATOM     13  O   UNL     1       6.777   2.361  11.794  0.00  0.00    +0.000 OA
ATOM     14  H   UNL     1       7.366   2.290  11.018  0.00  0.00    +0.000 HD
ENDBRANCH  12  13
ENDBRANCH  11  12
ENDBRANCH  10  11
ENDBRANCH   2  10
ENDBRANCH   1   5
BRANCH   1  15
ATOM     15  C   UNL     1       2.734   7.059  19.052  0.00  0.00    +0.000 A 
ATOM     16  C   UNL     1       2.056   7.681  20.118  0.00  0.00    +0.000 A 
ATOM     17  C   UNL     1       1.262   8.822  19.935  0.00  0.00    +0.000 A 
ATOM     18  C   UNL     1       1.126   9.386  18.677  0.00  0.00    +0.000 A 
ATOM     19  C   UNL     1       1.786   8.814  17.601  0.00  0.00    +0.000 A 
ATOM     20  C   UNL     1       2.573   7.667  17.783  0.00  0.00    +0.000 A 
ENDBRANCH   1  15
BRANCH   1  21
ATOM     21  C   UNL     1       2.668   4.573  19.847  0.00  0.00    +0.000 A 
ATOM     22  C   UNL     1       1.512   4.103  19.185  0.00  0.00    +0.000 A 
ATOM     23  C   UNL     1       0.727   3.062  19.701  0.00  0.00    +0.000 A 
ATOM     24  C   UNL     1       1.073   2.444  20.896  0.00  0.00    +0.000 A 
ATOM     25  C   UNL     1       2.212   2.869  21.569  0.00  0.00    +0.000 A 
ATOM     26  C   UNL     1       2.984   3.918  21.055  0.00  0.00    +0.000 A 
ENDBRANCH   1  21
BRANCH   1  27
ATOM     27  O   UNL     1       4.598   5.925  20.205  0.00  0.00    +0.000 OA
ATOM     28  H   UNL     1       5.455   5.777  19.781  0.00  0.00    +0.000 HD
ENDBRANCH   1  27
TORSDOF 8
ENDMDL
MODEL 7
REMARK VINA RESULT:      -7.8      2.418      7.048
REMARK  Name = 
REMARK  8 active torsions:
REMARK  status: ('A' for Active; 'I' for Inactive)
REMARK    1  A    between atoms: O_1  and  C_2
REMARK    2  A    between atoms: C_2  and  C_3
REMARK    3  A    between atoms: C_3  and  C_4
REMARK    4  A    between atoms: C_4  and  N_5
REMARK    5  A    between atoms: C_8  and  C_9
REMARK    6  A    between atoms: C_9  and  O_10
REMARK    7  A    between atoms: C_9  and  C_11
REMARK    8  A    between atoms: C_9  and  C_17
REMARK                            x       y       z     vdW  Elec       q    Type
REMARK                         _______ _______ _______ _____ _____    ______ ____
ROOT
ATOM      1  C   UNL     1       6.545   4.901  16.964  0.00  0.00    +0.000 C 
ENDROOT
BRANCH   1   5
ATOM      2  N   UNL     1       2.672   4.301  18.565  0.00  0.00    +0.000 N 
ATOM      3  C   UNL     1       2.782   5.668  17.898  0.00  0.00    +0.000 C 
ATOM      4  C   UNL     1       4.142   5.817  17.232  0.00  0.00    +0.000 C 
ATOM      5  C   UNL     1       5.073   4.602  17.508  0.00  0.00    +0.000 C 
ATOM      6  C   UNL     1       4.352   3.356  16.948  0.00  0.00    +0.000 C 
ATOM      7  C   UNL     1       2.936   3.210  17.516  0.00  0.00    +0.000 C 
ATOM      8  C   UNL     1       5.102   4.406  19.058  0.00  0.00    +0.000 C 
ATOM      9  C   UNL     1       3.727   4.163  19.653  0.00  0.00    +0.000 C 
BRANCH   2  10
ATOM     10  C   UNL     1       1.257   4.078  19.152  0.00  0.00    +0.000 C 
BRANCH  10  11
ATOM     11  C   UNL     1       1.225   4.133  20.683  0.00  0.00    +0.000 C 
BRANCH  11  12
ATOM     12  C   UNL     1       1.215   2.740  21.292  0.00  0.00    +0.000 C 
BRANCH  12  13
ATOM     13  O   UNL     1       2.167   2.699  22.340  0.00  0.00    +0.000 OA
ATOM     14  H   UNL     1       3.000   3.069  21.991  0.00  0.00    +0.000 HD
ENDBRANCH  12  13
ENDBRANCH  11  12
ENDBRANCH  10  11
ENDBRANCH   2  10
ENDBRANCH   1   5
BRANCH   1  15
ATOM     15  C   UNL     1       6.632   4.749  15.415  0.00  0.00    +0.000 A 
ATOM     16  C   UNL     1       5.747   3.920  14.700  0.00  0.00    +0.000 A 
ATOM     17  C   UNL     1       5.878   3.700  13.321  0.00  0.00    +0.000 A 
ATOM     18  C   UNL     1       6.898   4.309  12.610  0.00  0.00    +0.000 A 
ATOM     19  C   UNL     1       7.786   5.143  13.271  0.00  0.00    +0.000 A 
ATOM     20  C   UNL     1       7.658   5.356  14.652  0.00  0.00    +0.000 A 
ENDBRANCH   1  15
BRANCH   1  21
ATOM     21  C   UNL     1       7.184   6.221  17.501  0.00  0.00    +0.000 A 
ATOM     22  C   UNL     1       7.976   6.222  18.669  0.00  0.00    +0.000 A 
ATOM     23  C   UNL     1       8.566   7.391  19.170  0.00  0.00    +0.000 A 
ATOM     24  C   UNL     1       8.393   8.604  18.516  0.00  0.00    +0.000 A 
ATOM     25  C   UNL     1       7.632   8.640  17.354  0.00  0.00    +0.000 A 
ATOM     26  C   UNL     1       7.034   7.471  16.867  0.00  0.00    +0.000 A 
ENDBRANCH   1  21
BRANCH   1  27
ATOM     27  O   UNL     1       7.301   3.842  17.612  0.00  0.00    +0.000 OA
ATOM     28  H   UNL     1       7.224   3.022  17.106  0.00  0.00    +0.000 HD
ENDBRANCH   1  27
TORSDOF 8
ENDMDL
MODEL 8
REMARK VINA RESULT:      -7.7      2.474      7.044
REMARK  Name = 
REMARK  8 active torsions:
REMARK  status: ('A' for Active; 'I' for Inactive)
REMARK    1  A    between atoms: O_1  and  C_2
REMARK    2  A    between atoms: C_2  and  C_3
REMARK    3  A    between atoms: C_3  and  C_4
REMARK    4  A    between atoms: C_4  and  N_5
REMARK    5  A    between atoms: C_8  and  C_9
REMARK    6  A    between atoms: C_9  and  O_10
REMARK    7  A    between atoms: C_9  and  C_11
REMARK    8  A    between atoms: C_9  and  C_17
REMARK                            x       y       z     vdW  Elec       q    Type
REMARK                         _______ _______ _______ _____ _____    ______ ____
ROOT
ATOM      1  C   UNL     1       6.475   5.001  17.223  0.00  0.00    +0.000 C 
ENDROOT
BRANCH   1   5
ATOM      2  N   UNL     1       2.681   4.483  19.030  0.00  0.00    +0.000 N 
ATOM      3  C   UNL     1       2.613   5.501  17.895  0.00  0.00    +0.000 C 
ATOM      4  C   UNL     1       3.958   5.586  17.188  0.00  0.00    +0.000 C 
ATOM      5  C   UNL     1       5.046   4.714  17.876  0.00  0.00    +0.000 C 
ATOM      6  C   UNL     1       4.533   3.258  17.844  0.00  0.00    +0.000 C 
ATOM      7  C   UNL     1       3.135   3.130  18.461  0.00  0.00    +0.000 C 
ATOM      8  C   UNL     1       5.054   5.121  19.385  0.00  0.00    +0.000 C 
ATOM      9  C   UNL     1       3.710   4.920  20.062  0.00  0.00    +0.000 C 
BRANCH   2  10
ATOM     10  C   UNL     1       1.296   4.292  19.693  0.00  0.00    +0.000 C 
BRANCH  10  11
ATOM     11  C   UNL     1       1.105   2.895  20.294  0.00  0.00    +0.000 C 
BRANCH  11  12
ATOM     12  C   UNL     1       1.368   2.891  21.792  0.00  0.00    +0.000 C 
BRANCH  12  13
ATOM     13  O   UNL     1       2.662   2.363  22.021  0.00  0.00    +0.000 OA
ATOM     14  H   UNL     1       2.706   1.497  21.573  0.00  0.00    +0.000 HD
ENDBRANCH  12  13
ENDBRANCH  11  12
ENDBRANCH  10  11
ENDBRANCH   2  10
ENDBRANCH   1   5
BRANCH   1  15
ATOM     15  C   UNL     1       6.467   4.758  15.683  0.00  0.00    +0.000 A 
ATOM     16  C   UNL     1       5.468   3.988  15.058  0.00  0.00    +0.000 A 
ATOM     17  C   UNL     1       5.506   3.682  13.690  0.00  0.00    +0.000 A 
ATOM     18  C   UNL     1       6.543   4.145  12.899  0.00  0.00    +0.000 A 
ATOM     19  C   UNL     1       7.542   4.918  13.469  0.00  0.00    +0.000 A 
ATOM     20  C   UNL     1       7.508   5.215  14.839  0.00  0.00    +0.000 A 
ENDBRANCH   1  15
BRANCH   1  21
ATOM     21  C   UNL     1       7.124   6.358  17.640  0.00  0.00    +0.000 A 
ATOM     22  C   UNL     1       6.762   7.564  17.001  0.00  0.00    +0.000 A 
ATOM     23  C   UNL     1       7.325   8.797  17.358  0.00  0.00    +0.000 A 
ATOM     24  C   UNL     1       8.267   8.873  18.376  0.00  0.00    +0.000 A 
ATOM     25  C   UNL     1       8.638   7.709  19.039  0.00  0.00    +0.000 A 
ATOM     26  C   UNL     1       8.082   6.479  18.667  0.00  0.00    +0.000 A 
ENDBRANCH   1  21
BRANCH   1  27
ATOM     27  O   UNL     1       7.289   3.992  17.882  0.00  0.00    +0.000 OA
ATOM     28  H   UNL     1       8.132   3.890  17.418  0.00  0.00    +0.000 HD
ENDBRANCH   1  27
TORSDOF 8
ENDMDL
MODEL 9
REMARK VINA RESULT:      -7.7      0.315      1.297
REMARK  Name = 
REMARK  8 active torsions:
REMARK  status: ('A' for Active; 'I' for Inactive)
REMARK    1  A    between atoms: O_1  and  C_2
REMARK    2  A    between atoms: C_2  and  C_3
REMARK    3  A    between atoms: C_3  and  C_4
REMARK    4  A    between atoms: C_4  and  N_5
REMARK    5  A    between atoms: C_8  and  C_9
REMARK    6  A    between atoms: C_9  and  O_10
REMARK    7  A    between atoms: C_9  and  C_11
REMARK    8  A    between atoms: C_9  and  C_17
REMARK                            x       y       z     vdW  Elec       q    Type
REMARK                         _______ _______ _______ _____ _____    ______ ____
ROOT
ATOM      1  C   UNL     1       3.380   5.594  19.192  0.00  0.00    +0.000 C 
ENDROOT
BRANCH   1   5
ATOM      2  N   UNL     1       6.176   5.095  16.052  0.00  0.00    +0.000 N 
ATOM      3  C   UNL     1       5.675   6.535  16.117  0.00  0.00    +0.000 C 
ATOM      4  C   UNL     1       4.762   6.718  17.319  0.00  0.00    +0.000 C 
ATOM      5  C   UNL     1       4.500   5.383  18.073  0.00  0.00    +0.000 C 
ATOM      6  C   UNL     1       5.876   4.861  18.540  0.00  0.00    +0.000 C 
ATOM      7  C   UNL     1       6.870   4.748  17.378  0.00  0.00    +0.000 C 
ATOM      8  C   UNL     1       4.005   4.358  17.004  0.00  0.00    +0.000 C 
ATOM      9  C   UNL     1       5.003   4.142  15.880  0.00  0.00    +0.000 C 
BRANCH   2  10
ATOM     10  C   UNL     1       7.198   4.909  14.905  0.00  0.00    +0.000 C 
BRANCH  10  11
ATOM     11  C   UNL     1       6.602   4.217  13.675  0.00  0.00    +0.000 C 
BRANCH  11  12
ATOM     12  C   UNL     1       7.313   4.638  12.398  0.00  0.00    +0.000 C 
BRANCH  12  13
ATOM     13  O   UNL     1       8.165   5.729  12.696  0.00  0.00    +0.000 OA
ATOM     14  H   UNL     1       7.597   6.476  12.966  0.00  0.00    +0.000 HD
ENDBRANCH  12  13
ENDBRANCH  11  12
ENDBRANCH  10  11
ENDBRANCH   2  10
ENDBRANCH   1   5
BRANCH   1  15
ATOM     15  C   UNL     1       2.654   6.964  19.034  0.00  0.00    +0.000 A 
ATOM     16  C   UNL     1       2.063   7.622  20.130  0.00  0.00    +0.000 A 
ATOM     17  C   UNL     1       1.324   8.805  19.983  0.00  0.00    +0.000 A 
ATOM     18  C   UNL     1       1.159   9.375  18.732  0.00  0.00    +0.000 A 
ATOM     19  C   UNL     1       1.734   8.768  17.626  0.00  0.00    +0.000 A 
ATOM     20  C   UNL     1       2.465   7.580  17.773  0.00  0.00    +0.000 A 
ENDBRANCH   1  15
BRANCH   1  21
ATOM     21  C   UNL     1       2.407   4.387  19.378  0.00  0.00    +0.000 A 
ATOM     22  C   UNL     1       2.413   3.625  20.566  0.00  0.00    +0.000 A 
ATOM     23  C   UNL     1       1.546   2.540  20.763  0.00  0.00    +0.000 A 
ATOM     24  C   UNL     1       0.634   2.181  19.779  0.00  0.00    +0.000 A 
ATOM     25  C   UNL     1       0.588   2.916  18.601  0.00  0.00    +0.000 A 
ATOM     26  C   UNL     1       1.465   3.990  18.407  0.00  0.00    +0.000 A 
ENDBRANCH   1  21
BRANCH   1  27
ATOM     27  O   UNL     1       4.190   5.596  20.400  0.00  0.00    +0.000 OA
ATOM     28  H   UNL     1       5.107   5.381  20.184  0.00  0.00    +0.000 HD
ENDBRANCH   1  27
TORSDOF 8
ENDMDL
