MODEL 1
REMARK VINA RESULT:      -8.1      0.000      0.000
REMARK  Name = 
REMARK  10 active torsions:
REMARK  status: ('A' for Active; 'I' for Inactive)
REMARK    1  A    between atoms: C_1  and  C_2
REMARK    2  A    between atoms: C_2  and  O_3
REMARK    3  A    between atoms: C_2  and  C_4
REMARK    4  A    between atoms: C_4  and  C_5
REMARK    5  A    between atoms: C_4  and  O_6
REMARK    6  A    between atoms: O_6  and  C_7
REMARK    7  A    between atoms: N_10  and  C_11
REMARK    8  A    between atoms: C_14  and  S_15
REMARK    9  A    between atoms: S_15  and  C_18
REMARK   10  A    between atoms: C_25  and  C_26
REMARK                            x       y       z     vdW  Elec       q    Type
REMARK                         _______ _______ _______ _____ _____    ______ ____
ROOT
ATOM      1  C   UNL     1       4.146   4.679  18.505  0.00  0.00    +0.000 A 
ATOM      2  N   UNL     1       4.049   6.015  18.692  0.00  0.00    +0.000 NA
ATOM      3  C   UNL     1       2.819   6.511  18.940  0.00  0.00    +0.000 A 
ATOM      4  N   UNL     1       2.694   7.850  19.301  0.00  0.00    +0.000 N 
ATOM      5  N   UNL     1       1.716   5.748  18.965  0.00  0.00    +0.000 NA
ATOM      6  C   UNL     1       1.875   4.423  18.855  0.00  0.00    +0.000 A 
ATOM      7  C   UNL     1       3.090   3.814  18.662  0.00  0.00    +0.000 A 
ATOM      8  H   UNL     1       3.585   8.293  19.459  0.00  0.00    +0.000 HD
ENDROOT
BRANCH   4   9
ATOM      9  C   UNL     1       1.584   8.700  19.157  0.00  0.00    +0.000 A 
ATOM     10  C   UNL     1       0.819   9.048  20.279  0.00  0.00    +0.000 A 
ATOM     11  C   UNL     1      -0.268   9.927  20.169  0.00  0.00    +0.000 A 
ATOM     12  C   UNL     1      -0.590  10.482  18.927  0.00  0.00    +0.000 A 
ATOM     13  C   UNL     1       0.136  10.117  17.792  0.00  0.00    +0.000 A 
ATOM     14  C   UNL     1       1.201   9.216  17.911  0.00  0.00    +0.000 A 
BRANCH  12  15
ATOM     15  S   UNL     1      -1.841  11.747  18.813  0.00  0.00    +0.000 S 
ATOM     16  N   UNL     1      -1.358  12.728  17.731  0.00  0.00    +0.000 NA
ATOM     17  O   UNL     1      -2.174  12.137  20.169  0.00  0.00    +0.000 OA
ATOM     18  H   UNL     1      -1.965  13.547  17.704  0.00  0.00    +0.000 HD
BRANCH  15  19
ATOM     19  C   UNL     1      -3.328  10.891  18.190  0.00  0.00    +0.000 C 
ATOM     20  C   UNL     1      -3.338  10.784  16.679  0.00  0.00    +0.000 C 
ATOM     21  C   UNL     1      -3.125   9.557  17.515  0.00  0.00    +0.000 C 
ENDBRANCH  15  19
ENDBRANCH  12  15
ENDBRANCH   4   9
BRANCH   7  22
ATOM     22  C   UNL     1       3.165   2.336  18.682  0.00  0.00    +0.000 C 
ATOM     23  F   UNL     1       4.076   1.792  19.532  0.00  0.00    +0.000 F 
ATOM     24  F   UNL     1       1.967   1.783  19.034  0.00  0.00    +0.000 F 
ATOM     25  F   UNL     1       3.448   1.816  17.453  0.00  0.00    +0.000 F 
ENDBRANCH   7  22
BRANCH   1  26
ATOM     26  O   UNL     1       5.363   4.122  18.157  0.00  0.00    +0.000 OA
BRANCH  26  27
ATOM     27  C   UNL     1       6.117   4.764  17.110  0.00  0.00    +0.000 C 
ATOM     28  C   UNL     1       6.272   3.841  15.894  0.00  0.00    +0.000 C 
BRANCH  27  30
ATOM     29  C   UNL     1       7.539   5.659  19.074  0.00  0.00    +0.000 C 
ATOM     30  C   UNL     1       7.537   5.084  17.663  0.00  0.00    +0.000 C 
BRANCH  30  31
ATOM     31  O   UNL     1       8.355   3.907  17.673  0.00  0.00    +0.000 OA
ATOM     32  H   UNL     1       9.019   4.016  16.968  0.00  0.00    +0.000 HD
ENDBRANCH  30  31
ENDBRANCH  27  30
ENDBRANCH  26  27
ENDBRANCH   1  26
TORSDOF 8
ENDMDL
MODEL 2
REMARK VINA RESULT:      -8.0      0.950      1.576
REMARK  Name = 
REMARK  10 active torsions:
REMARK  status: ('A' for Active; 'I' for Inactive)
REMARK    1  A    between atoms: C_1  and  C_2
REMARK    2  A    between atoms: C_2  and  O_3
REMARK    3  A    between atoms: C_2  and  C_4
REMARK    4  A    between atoms: C_4  and  C_5
REMARK    5  A    between atoms: C_4  and  O_6
REMARK    6  A    between atoms: O_6  and  C_7
REMARK    7  A    between atoms: N_10  and  C_11
REMARK    8  A    between atoms: C_14  and  S_15
REMARK    9  A    between atoms: S_15  and  C_18
REMARK   10  A    between atoms: C_25  and  C_26
REMARK                            x       y       z     vdW  Elec       q    Type
REMARK                         _______ _______ _______ _____ _____    ______ ____
ROOT
ATOM      1  C   UNL     1       4.293   4.506  19.048  0.00  0.00    +0.000 A 
ATOM      2  N   UNL     1       4.059   5.716  19.607  0.00  0.00    +0.000 NA
ATOM      3  C   UNL     1       2.839   6.256  19.411  0.00  0.00    +0.000 A 
ATOM      4  N   UNL     1       2.499   7.418  20.101  0.00  0.00    +0.000 N 
ATOM      5  N   UNL     1       1.891   5.668  18.667  0.00  0.00    +0.000 NA
ATOM      6  C   UNL     1       2.141   4.435  18.204  0.00  0.00    +0.000 A 
ATOM      7  C   UNL     1       3.328   3.774  18.400  0.00  0.00    +0.000 A 
ATOM      8  H   UNL     1       3.187   7.673  20.790  0.00  0.00    +0.000 HD
ENDROOT
BRANCH   4   9
ATOM      9  C   UNL     1       1.554   8.399  19.758  0.00  0.00    +0.000 A 
ATOM     10  C   UNL     1       1.547   8.944  18.467  0.00  0.00    +0.000 A 
ATOM     11  C   UNL     1       0.588   9.894  18.087  0.00  0.00    +0.000 A 
ATOM     12  C   UNL     1      -0.389  10.298  19.000  0.00  0.00    +0.000 A 
ATOM     13  C   UNL     1      -0.375   9.797  20.303  0.00  0.00    +0.000 A 
ATOM     14  C   UNL     1       0.605   8.869  20.678  0.00  0.00    +0.000 A 
BRANCH  12  15
ATOM     15  S   UNL     1      -1.726  11.353  18.470  0.00  0.00    +0.000 S 
ATOM     16  N   UNL     1      -1.148  12.248  17.360  0.00  0.00    +0.000 NA
ATOM     17  O   UNL     1      -2.366  11.861  19.669  0.00  0.00    +0.000 OA
ATOM     18  H   UNL     1      -1.825  12.965  17.100  0.00  0.00    +0.000 HD
BRANCH  15  19
ATOM     19  C   UNL     1      -2.952  10.227  17.722  0.00  0.00    +0.000 C 
ATOM     20  C   UNL     1      -3.883  10.946  16.767  0.00  0.00    +0.000 C 
ATOM     21  C   UNL     1      -2.856   9.991  16.235  0.00  0.00    +0.000 C 
ENDBRANCH  15  19
ENDBRANCH  12  15
ENDBRANCH   4   9
BRANCH   7  22
ATOM     22  C   UNL     1       3.449   2.367  17.953  0.00  0.00    +0.000 C 
ATOM     23  F   UNL     1       3.715   1.451  18.922  0.00  0.00    +0.000 F 
ATOM     24  F   UNL     1       2.300   1.937  17.354  0.00  0.00    +0.000 F 
ATOM     25  F   UNL     1       4.423   2.206  17.013  0.00  0.00    +0.000 F 
ENDBRANCH   7  22
BRANCH   1  26
ATOM     26  O   UNL     1       5.551   3.942  19.136  0.00  0.00    +0.000 OA
BRANCH  26  27
ATOM     27  C   UNL     1       6.611   4.551  18.372  0.00  0.00    +0.000 C 
ATOM     28  C   UNL     1       7.281   5.685  19.161  0.00  0.00    +0.000 C 
BRANCH  27  30
ATOM     29  C   UNL     1       6.285   6.642  16.888  0.00  0.00    +0.000 C 
ATOM     30  C   UNL     1       5.988   5.160  17.081  0.00  0.00    +0.000 C 
BRANCH  30  31
ATOM     31  O   UNL     1       6.455   4.468  15.917  0.00  0.00    +0.000 OA
ATOM     32  H   UNL     1       6.954   3.691  16.228  0.00  0.00    +0.000 HD
ENDBRANCH  30  31
ENDBRANCH  27  30
ENDBRANCH  26  27
ENDBRANCH   1  26
TORSDOF 8
ENDMDL
MODEL 3
REMARK VINA RESULT:      -7.9      0.938      1.202
REMARK  Name = 
REMARK  10 active torsions:
REMARK  status: ('A' for Active; 'I' for Inactive)
REMARK    1  A    between atoms: C_1  and  C_2
REMARK    2  A    between atoms: C_2  and  O_3
REMARK    3  A    between atoms: C_2  and  C_4
REMARK    4  A    between atoms: C_4  and  C_5
REMARK    5  A    between atoms: C_4  and  O_6
REMARK    6  A    between atoms: O_6  and  C_7
REMARK    7  A    between atoms: N_10  and  C_11
REMARK    8  A    between atoms: C_14  and  S_15
REMARK    9  A    between atoms: S_15  and  C_18
REMARK   10  A    between atoms: C_25  and  C_26
REMARK                            x       y       z     vdW  Elec       q    Type
REMARK                         _______ _______ _______ _____ _____    ______ ____
ROOT
ATOM      1  C   UNL     1       4.365   4.943  18.617  0.00  0.00    +0.000 A 
ATOM      2  N   UNL     1       4.100   6.174  19.113  0.00  0.00    +0.000 NA
ATOM      3  C   UNL     1       2.831   6.616  19.007  0.00  0.00    +0.000 A 
ATOM      4  N   UNL     1       2.476   7.802  19.646  0.00  0.00    +0.000 N 
ATOM      5  N   UNL     1       1.860   5.913  18.406  0.00  0.00    +0.000 NA
ATOM      6  C   UNL     1       2.152   4.668  18.005  0.00  0.00    +0.000 A 
ATOM      7  C   UNL     1       3.397   4.103  18.123  0.00  0.00    +0.000 A 
ATOM      8  H   UNL     1       3.208   8.154  20.242  0.00  0.00    +0.000 HD
ENDROOT
BRANCH   4   9
ATOM      9  C   UNL     1       1.433   8.691  19.335  0.00  0.00    +0.000 A 
ATOM     10  C   UNL     1       0.592   9.166  20.350  0.00  0.00    +0.000 A 
ATOM     11  C   UNL     1      -0.429  10.086  20.073  0.00  0.00    +0.000 A 
ATOM     12  C   UNL     1      -0.608  10.554  18.768  0.00  0.00    +0.000 A 
ATOM     13  C   UNL     1       0.195  10.063  17.737  0.00  0.00    +0.000 A 
ATOM     14  C   UNL     1       1.193   9.123  18.023  0.00  0.00    +0.000 A 
BRANCH  12  15
ATOM     15  S   UNL     1      -1.770  11.866  18.441  0.00  0.00    +0.000 S 
ATOM     16  N   UNL     1      -0.963  12.995  17.779  0.00  0.00    +0.000 NA
ATOM     17  O   UNL     1      -2.565  12.036  19.642  0.00  0.00    +0.000 OA
ATOM     18  H   UNL     1      -1.542  13.830  17.681  0.00  0.00    +0.000 HD
BRANCH  15  19
ATOM     19  C   UNL     1      -2.924  11.181  17.204  0.00  0.00    +0.000 C 
ATOM     20  C   UNL     1      -3.605   9.919  17.693  0.00  0.00    +0.000 C 
ATOM     21  C   UNL     1      -4.392  11.188  17.550  0.00  0.00    +0.000 C 
ENDBRANCH  15  19
ENDBRANCH  12  15
ENDBRANCH   4   9
BRANCH   7  22
ATOM     22  C   UNL     1       3.576   2.677  17.764  0.00  0.00    +0.000 C 
ATOM     23  F   UNL     1       4.488   2.414  16.790  0.00  0.00    +0.000 F 
ATOM     24  F   UNL     1       3.977   1.940  18.842  0.00  0.00    +0.000 F 
ATOM     25  F   UNL     1       2.413   2.099  17.351  0.00  0.00    +0.000 F 
ENDBRANCH   7  22
BRANCH   1  26
ATOM     26  O   UNL     1       5.664   4.470  18.614  0.00  0.00    +0.000 OA
BRANCH  26  27
ATOM     27  C   UNL     1       6.632   5.184  17.820  0.00  0.00    +0.000 C 
ATOM     28  C   UNL     1       7.247   4.275  16.747  0.00  0.00    +0.000 C 
BRANCH  27  30
ATOM     29  C   UNL     1       8.119   7.140  18.624  0.00  0.00    +0.000 C 
ATOM     30  C   UNL     1       7.774   5.662  18.765  0.00  0.00    +0.000 C 
BRANCH  30  31
ATOM     31  O   UNL     1       7.432   5.425  20.136  0.00  0.00    +0.000 OA
ATOM     32  H   UNL     1       6.613   4.897  20.137  0.00  0.00    +0.000 HD
ENDBRANCH  30  31
ENDBRANCH  27  30
ENDBRANCH  26  27
ENDBRANCH   1  26
TORSDOF 8
ENDMDL
MODEL 4
REMARK VINA RESULT:      -7.9      0.647      1.074
REMARK  Name = 
REMARK  10 active torsions:
REMARK  status: ('A' for Active; 'I' for Inactive)
REMARK    1  A    between atoms: C_1  and  C_2
REMARK    2  A    between atoms: C_2  and  O_3
REMARK    3  A    between atoms: C_2  and  C_4
REMARK    4  A    between atoms: C_4  and  C_5
REMARK    5  A    between atoms: C_4  and  O_6
REMARK    6  A    between atoms: O_6  and  C_7
REMARK    7  A    between atoms: N_10  and  C_11
REMARK    8  A    between atoms: C_14  and  S_15
REMARK    9  A    between atoms: S_15  and  C_18
REMARK   10  A    between atoms: C_25  and  C_26
REMARK                            x       y       z     vdW  Elec       q    Type
REMARK                         _______ _______ _______ _____ _____    ______ ____
ROOT
ATOM      1  C   UNL     1       4.005   4.573  18.089  0.00  0.00    +0.000 A 
ATOM      2  N   UNL     1       3.923   5.924  18.068  0.00  0.00    +0.000 NA
ATOM      3  C   UNL     1       2.807   6.478  18.584  0.00  0.00    +0.000 A 
ATOM      4  N   UNL     1       2.750   7.862  18.733  0.00  0.00    +0.000 N 
ATOM      5  N   UNL     1       1.787   5.753  19.065  0.00  0.00    +0.000 NA
ATOM      6  C   UNL     1       1.950   4.425  19.140  0.00  0.00    +0.000 A 
ATOM      7  C   UNL     1       3.072   3.770  18.698  0.00  0.00    +0.000 A 
ATOM      8  H   UNL     1       3.633   8.308  18.541  0.00  0.00    +0.000 HD
ENDROOT
BRANCH   4   9
ATOM      9  C   UNL     1       1.621   8.696  18.786  0.00  0.00    +0.000 A 
ATOM     10  C   UNL     1       1.143   9.150  20.022  0.00  0.00    +0.000 A 
ATOM     11  C   UNL     1       0.042  10.016  20.099  0.00  0.00    +0.000 A 
ATOM     12  C   UNL     1      -0.583  10.451  18.927  0.00  0.00    +0.000 A 
ATOM     13  C   UNL     1      -0.147   9.978  17.689  0.00  0.00    +0.000 A 
ATOM     14  C   UNL     1       0.935   9.091  17.627  0.00  0.00    +0.000 A 
BRANCH  12  15
ATOM     15  S   UNL     1      -1.853  11.701  19.004  0.00  0.00    +0.000 S 
ATOM     16  N   UNL     1      -1.412  12.815  18.038  0.00  0.00    +0.000 NA
ATOM     17  O   UNL     1      -2.151  11.916  20.407  0.00  0.00    +0.000 OA
ATOM     18  H   UNL     1      -2.030  13.622  18.129  0.00  0.00    +0.000 HD
BRANCH  15  19
ATOM     19  C   UNL     1      -3.346  10.904  18.321  0.00  0.00    +0.000 C 
ATOM     20  C   UNL     1      -4.537  11.841  18.302  0.00  0.00    +0.000 C 
ATOM     21  C   UNL     1      -3.879  11.439  17.015  0.00  0.00    +0.000 C 
ENDBRANCH  15  19
ENDBRANCH  12  15
ENDBRANCH   4   9
BRANCH   7  22
ATOM     22  C   UNL     1       3.199   2.315  18.945  0.00  0.00    +0.000 C 
ATOM     23  F   UNL     1       3.332   1.529  17.844  0.00  0.00    +0.000 F 
ATOM     24  F   UNL     1       4.287   2.037  19.722  0.00  0.00    +0.000 F 
ATOM     25  F   UNL     1       2.134   1.813  19.633  0.00  0.00    +0.000 F 
ENDBRANCH   7  22
BRANCH   1  26
ATOM     26  O   UNL     1       5.081   3.942  17.494  0.00  0.00    +0.000 OA
BRANCH  26  27
ATOM     27  C   UNL     1       5.838   4.688  16.520  0.00  0.00    +0.000 C 
ATOM     28  C   UNL     1       6.049   3.870  15.239  0.00  0.00    +0.000 C 
BRANCH  27  30
ATOM     29  C   UNL     1       7.398   6.446  17.596  0.00  0.00    +0.000 C 
ATOM     30  C   UNL     1       7.235   5.003  17.132  0.00  0.00    +0.000 C 
BRANCH  30  31
ATOM     31  O   UNL     1       7.501   4.153  18.255  0.00  0.00    +0.000 OA
ATOM     32  H   UNL     1       7.758   4.732  18.995  0.00  0.00    +0.000 HD
ENDBRANCH  30  31
ENDBRANCH  27  30
ENDBRANCH  26  27
ENDBRANCH   1  26
TORSDOF 8
ENDMDL
MODEL 5
REMARK VINA RESULT:      -7.8      0.821      1.431
REMARK  Name = 
REMARK  10 active torsions:
REMARK  status: ('A' for Active; 'I' for Inactive)
REMARK    1  A    between atoms: C_1  and  C_2
REMARK    2  A    between atoms: C_2  and  O_3
REMARK    3  A    between atoms: C_2  and  C_4
REMARK    4  A    between atoms: C_4  and  C_5
REMARK    5  A    between atoms: C_4  and  O_6
REMARK    6  A    between atoms: O_6  and  C_7
REMARK    7  A    between atoms: N_10  and  C_11
REMARK    8  A    between atoms: C_14  and  S_15
REMARK    9  A    between atoms: S_15  and  C_18
REMARK   10  A    between atoms: C_25  and  C_26
REMARK                            x       y       z     vdW  Elec       q    Type
REMARK                         _______ _______ _______ _____ _____    ______ ____
ROOT
ATOM      1  C   UNL     1       4.225   4.517  19.247  0.00  0.00    +0.000 A 
ATOM      2  N   UNL     1       4.070   5.820  19.577  0.00  0.00    +0.000 NA
ATOM      3  C   UNL     1       2.819   6.321  19.522  0.00  0.00    +0.000 A 
ATOM      4  N   UNL     1       2.586   7.605  20.008  0.00  0.00    +0.000 N 
ATOM      5  N   UNL     1       1.761   5.599  19.123  0.00  0.00    +0.000 NA
ATOM      6  C   UNL     1       1.951   4.295  18.887  0.00  0.00    +0.000 A 
ATOM      7  C   UNL     1       3.174   3.676  18.973  0.00  0.00    +0.000 A 
ATOM      8  H   UNL     1       3.390   7.992  20.476  0.00  0.00    +0.000 HD
ENDROOT
BRANCH   4   9
ATOM      9  C   UNL     1       1.562   8.503  19.666  0.00  0.00    +0.000 A 
ATOM     10  C   UNL     1       0.615   8.885  20.626  0.00  0.00    +0.000 A 
ATOM     11  C   UNL     1      -0.393   9.812  20.320  0.00  0.00    +0.000 A 
ATOM     12  C   UNL     1      -0.451  10.380  19.045  0.00  0.00    +0.000 A 
ATOM     13  C   UNL     1       0.459   9.984  18.064  0.00  0.00    +0.000 A 
ATOM     14  C   UNL     1       1.443   9.036  18.373  0.00  0.00    +0.000 A 
BRANCH  12  15
ATOM     15  S   UNL     1      -1.601  11.700  18.707  0.00  0.00    +0.000 S 
ATOM     16  N   UNL     1      -1.036  12.459  17.495  0.00  0.00    +0.000 NA
ATOM     17  O   UNL     1      -1.916  12.323  19.979  0.00  0.00    +0.000 OA
ATOM     18  H   UNL     1      -1.579  13.306  17.327  0.00  0.00    +0.000 HD
BRANCH  15  19
ATOM     19  C   UNL     1      -3.143  10.867  18.197  0.00  0.00    +0.000 C 
ATOM     20  C   UNL     1      -3.473  11.116  16.739  0.00  0.00    +0.000 C 
ATOM     21  C   UNL     1      -3.025   9.755  17.185  0.00  0.00    +0.000 C 
ENDBRANCH  15  19
ENDBRANCH  12  15
ENDBRANCH   4   9
BRANCH   7  22
ATOM     22  C   UNL     1       3.248   2.206  18.815  0.00  0.00    +0.000 C 
ATOM     23  F   UNL     1       2.086   1.523  18.994  0.00  0.00    +0.000 F 
ATOM     24  F   UNL     1       3.679   1.862  17.565  0.00  0.00    +0.000 F 
ATOM     25  F   UNL     1       4.148   1.639  19.668  0.00  0.00    +0.000 F 
ENDBRANCH   7  22
BRANCH   1  26
ATOM     26  O   UNL     1       5.493   3.970  19.195  0.00  0.00    +0.000 OA
BRANCH  26  27
ATOM     27  C   UNL     1       6.358   4.388  18.119  0.00  0.00    +0.000 C 
ATOM     28  C   UNL     1       6.880   5.812  18.351  0.00  0.00    +0.000 C 
BRANCH  27  30
ATOM     29  C   UNL     1       5.602   5.687  16.017  0.00  0.00    +0.000 C 
ATOM     30  C   UNL     1       5.527   4.383  16.802  0.00  0.00    +0.000 C 
BRANCH  30  31
ATOM     31  O   UNL     1       5.958   3.327  15.934  0.00  0.00    +0.000 OA
ATOM     32  H   UNL     1       5.324   3.291  15.194  0.00  0.00    +0.000 HD
ENDBRANCH  30  31
ENDBRANCH  27  30
ENDBRANCH  26  27
ENDBRANCH   1  26
TORSDOF 8
ENDMDL
MODEL 6
REMARK VINA RESULT:      -7.7      0.491      1.272
REMARK  Name = 
REMARK  10 active torsions:
REMARK  status: ('A' for Active; 'I' for Inactive)
REMARK    1  A    between atoms: C_1  and  C_2
REMARK    2  A    between atoms: C_2  and  O_3
REMARK    3  A    between atoms: C_2  and  C_4
REMARK    4  A    between atoms: C_4  and  C_5
REMARK    5  A    between atoms: C_4  and  O_6
REMARK    6  A    between atoms: O_6  and  C_7
REMARK    7  A    between atoms: N_10  and  C_11
REMARK    8  A    between atoms: C_14  and  S_15
REMARK    9  A    between atoms: S_15  and  C_18
REMARK   10  A    between atoms: C_25  and  C_26
REMARK                            x       y       z     vdW  Elec       q    Type
REMARK                         _______ _______ _______ _____ _____    ______ ____
ROOT
ATOM      1  C   UNL     1       4.075   4.571  18.236  0.00  0.00    +0.000 A 
ATOM      2  N   UNL     1       4.054   5.906  18.454  0.00  0.00    +0.000 NA
ATOM      3  C   UNL     1       2.862   6.458  18.762  0.00  0.00    +0.000 A 
ATOM      4  N   UNL     1       2.821   7.794  19.154  0.00  0.00    +0.000 N 
ATOM      5  N   UNL     1       1.724   5.752  18.817  0.00  0.00    +0.000 NA
ATOM      6  C   UNL     1       1.809   4.423  18.675  0.00  0.00    +0.000 A 
ATOM      7  C   UNL     1       2.983   3.758  18.419  0.00  0.00    +0.000 A 
ATOM      8  H   UNL     1       3.739   8.187  19.285  0.00  0.00    +0.000 HD
ENDROOT
BRANCH   4   9
ATOM      9  C   UNL     1       1.751   8.701  19.074  0.00  0.00    +0.000 A 
ATOM     10  C   UNL     1       1.447   9.319  17.853  0.00  0.00    +0.000 A 
ATOM     11  C   UNL     1       0.359  10.196  17.738  0.00  0.00    +0.000 A 
ATOM     12  C   UNL     1      -0.449  10.452  18.849  0.00  0.00    +0.000 A 
ATOM     13  C   UNL     1      -0.139   9.877  20.082  0.00  0.00    +0.000 A 
ATOM     14  C   UNL     1       0.968   9.025  20.191  0.00  0.00    +0.000 A 
BRANCH  12  15
ATOM     15  S   UNL     1      -1.944  11.407  18.665  0.00  0.00    +0.000 S 
ATOM     16  N   UNL     1      -1.633  12.487  17.616  0.00  0.00    +0.000 NA
ATOM     17  O   UNL     1      -2.431  11.692  20.002  0.00  0.00    +0.000 OA
ATOM     18  H   UNL     1      -2.406  13.150  17.555  0.00  0.00    +0.000 HD
BRANCH  15  19
ATOM     19  C   UNL     1      -3.164  10.249  17.956  0.00  0.00    +0.000 C 
ATOM     20  C   UNL     1      -4.228  10.962  17.147  0.00  0.00    +0.000 C 
ATOM     21  C   UNL     1      -3.200  10.118  16.454  0.00  0.00    +0.000 C 
ENDBRANCH  15  19
ENDBRANCH  12  15
ENDBRANCH   4   9
BRANCH   7  22
ATOM     22  C   UNL     1       2.982   2.277  18.406  0.00  0.00    +0.000 C 
ATOM     23  F   UNL     1       3.034   1.688  17.182  0.00  0.00    +0.000 F 
ATOM     24  F   UNL     1       4.049   1.775  19.095  0.00  0.00    +0.000 F 
ATOM     25  F   UNL     1       1.884   1.756  19.023  0.00  0.00    +0.000 F 
ENDBRANCH   7  22
BRANCH   1  26
ATOM     26  O   UNL     1       5.246   3.961  17.827  0.00  0.00    +0.000 OA
BRANCH  26  27
ATOM     27  C   UNL     1       5.928   4.521  16.687  0.00  0.00    +0.000 C 
ATOM     28  C   UNL     1       6.047   3.492  15.555  0.00  0.00    +0.000 C 
BRANCH  27  30
ATOM     29  C   UNL     1       7.452   6.300  17.778  0.00  0.00    +0.000 C 
ATOM     30  C   UNL     1       7.365   4.923  17.132  0.00  0.00    +0.000 C 
BRANCH  30  31
ATOM     31  O   UNL     1       7.892   3.971  18.065  0.00  0.00    +0.000 OA
ATOM     32  H   UNL     1       7.967   4.426  18.924  0.00  0.00    +0.000 HD
ENDBRANCH  30  31
ENDBRANCH  27  30
ENDBRANCH  26  27
ENDBRANCH   1  26
TORSDOF 8
ENDMDL
MODEL 7
REMARK VINA RESULT:      -7.5      2.467      2.856
REMARK  Name = 
REMARK  10 active torsions:
REMARK  status: ('A' for Active; 'I' for Inactive)
REMARK    1  A    between atoms: C_1  and  C_2
REMARK    2  A    between atoms: C_2  and  O_3
REMARK    3  A    between atoms: C_2  and  C_4
REMARK    4  A    between atoms: C_4  and  C_5
REMARK    5  A    between atoms: C_4  and  O_6
REMARK    6  A    between atoms: O_6  and  C_7
REMARK    7  A    between atoms: N_10  and  C_11
REMARK    8  A    between atoms: C_14  and  S_15
REMARK    9  A    between atoms: S_15  and  C_18
REMARK   10  A    between atoms: C_25  and  C_26
REMARK                            x       y       z     vdW  Elec       q    Type
REMARK                         _______ _______ _______ _____ _____    ______ ____
ROOT
ATOM      1  C   UNL     1       2.910   5.188  19.012  0.00  0.00    +0.000 A 
ATOM      2  N   UNL     1       2.944   6.504  19.324  0.00  0.00    +0.000 NA
ATOM      3  C   UNL     1       2.008   6.954  20.184  0.00  0.00    +0.000 A 
ATOM      4  N   UNL     1       2.103   8.260  20.659  0.00  0.00    +0.000 N 
ATOM      5  N   UNL     1       1.047   6.169  20.694  0.00  0.00    +0.000 NA
ATOM      6  C   UNL     1       1.106   4.859  20.421  0.00  0.00    +0.000 A 
ATOM      7  C   UNL     1       2.054   4.292  19.606  0.00  0.00    +0.000 A 
ATOM      8  H   UNL     1       2.964   8.708  20.389  0.00  0.00    +0.000 HD
ENDROOT
BRANCH   4   9
ATOM      9  C   UNL     1       1.084   9.094  21.148  0.00  0.00    +0.000 A 
ATOM     10  C   UNL     1       0.799   9.122  22.520  0.00  0.00    +0.000 A 
ATOM     11  C   UNL     1      -0.185   9.977  23.038  0.00  0.00    +0.000 A 
ATOM     12  C   UNL     1      -0.886  10.830  22.181  0.00  0.00    +0.000 A 
ATOM     13  C   UNL     1      -0.644  10.789  20.807  0.00  0.00    +0.000 A 
ATOM     14  C   UNL     1       0.321   9.910  20.299  0.00  0.00    +0.000 A 
BRANCH  12  15
ATOM     15  S   UNL     1      -1.994  12.055  22.852  0.00  0.00    +0.000 S 
ATOM     16  N   UNL     1      -1.107  13.221  23.320  0.00  0.00    +0.000 NA
ATOM     17  O   UNL     1      -2.931  11.354  23.709  0.00  0.00    +0.000 OA
ATOM     18  H   UNL     1      -1.667  13.904  23.832  0.00  0.00    +0.000 HD
BRANCH  15  19
ATOM     19  C   UNL     1      -2.989  12.624  21.431  0.00  0.00    +0.000 C 
ATOM     20  C   UNL     1      -4.437  12.866  21.806  0.00  0.00    +0.000 C 
ATOM     21  C   UNL     1      -3.540  14.027  21.491  0.00  0.00    +0.000 C 
ENDBRANCH  15  19
ENDBRANCH  12  15
ENDBRANCH   4   9
BRANCH   7  22
ATOM     22  C   UNL     1       2.101   2.818  19.475  0.00  0.00    +0.000 C 
ATOM     23  F   UNL     1       3.306   2.233  19.710  0.00  0.00    +0.000 F 
ATOM     24  F   UNL     1       1.232   2.215  20.339  0.00  0.00    +0.000 F 
ATOM     25  F   UNL     1       1.719   2.397  18.236  0.00  0.00    +0.000 F 
ENDBRANCH   7  22
BRANCH   1  26
ATOM     26  O   UNL     1       3.785   4.684  18.068  0.00  0.00    +0.000 OA
BRANCH  26  27
ATOM     27  C   UNL     1       4.920   5.496  17.708  0.00  0.00    +0.000 C 
ATOM     28  C   UNL     1       4.922   5.811  16.206  0.00  0.00    +0.000 C 
BRANCH  27  30
ATOM     29  C   UNL     1       7.362   5.549  18.553  0.00  0.00    +0.000 C 
ATOM     30  C   UNL     1       6.213   4.692  18.038  0.00  0.00    +0.000 C 
BRANCH  30  31
ATOM     31  O   UNL     1       5.947   3.684  19.021  0.00  0.00    +0.000 OA
ATOM     32  H   UNL     1       5.055   3.336  18.838  0.00  0.00    +0.000 HD
ENDBRANCH  30  31
ENDBRANCH  27  30
ENDBRANCH  26  27
ENDBRANCH   1  26
TORSDOF 8
ENDMDL
MODEL 8
REMARK VINA RESULT:      -7.5      5.029     10.108
REMARK  Name = 
REMARK  10 active torsions:
REMARK  status: ('A' for Active; 'I' for Inactive)
REMARK    1  A    between atoms: C_1  and  C_2
REMARK    2  A    between atoms: C_2  and  O_3
REMARK    3  A    between atoms: C_2  and  C_4
REMARK    4  A    between atoms: C_4  and  C_5
REMARK    5  A    between atoms: C_4  and  O_6
REMARK    6  A    between atoms: O_6  and  C_7
REMARK    7  A    between atoms: N_10  and  C_11
REMARK    8  A    between atoms: C_14  and  S_15
REMARK    9  A    between atoms: S_15  and  C_18
REMARK   10  A    between atoms: C_25  and  C_26
REMARK                            x       y       z     vdW  Elec       q    Type
REMARK                         _______ _______ _______ _____ _____    ______ ____
ROOT
ATOM      1  C   UNL     1      -3.395  12.135  19.387  0.00  0.00    +0.000 A 
ATOM      2  N   UNL     1      -2.106  11.964  19.764  0.00  0.00    +0.000 NA
ATOM      3  C   UNL     1      -1.408  10.996  19.135  0.00  0.00    +0.000 A 
ATOM      4  N   UNL     1      -0.039  10.893  19.371  0.00  0.00    +0.000 N 
ATOM      5  N   UNL     1      -1.946  10.194  18.205  0.00  0.00    +0.000 NA
ATOM      6  C   UNL     1      -3.199  10.456  17.809  0.00  0.00    +0.000 A 
ATOM      7  C   UNL     1      -3.973  11.456  18.343  0.00  0.00    +0.000 A 
ATOM      8  H   UNL     1       0.317  11.661  19.918  0.00  0.00    +0.000 HD
ENDROOT
BRANCH   4   9
ATOM      9  C   UNL     1       0.794   9.769  19.243  0.00  0.00    +0.000 A 
ATOM     10  C   UNL     1       1.032   8.944  20.350  0.00  0.00    +0.000 A 
ATOM     11  C   UNL     1       1.825   7.793  20.237  0.00  0.00    +0.000 A 
ATOM     12  C   UNL     1       2.378   7.448  19.001  0.00  0.00    +0.000 A 
ATOM     13  C   UNL     1       2.185   8.278  17.896  0.00  0.00    +0.000 A 
ATOM     14  C   UNL     1       1.414   9.440  18.028  0.00  0.00    +0.000 A 
BRANCH  12  15
ATOM     15  S   UNL     1       3.222   5.889  18.803  0.00  0.00    +0.000 S 
ATOM     16  N   UNL     1       3.322   5.277  20.211  0.00  0.00    +0.000 NA
ATOM     17  O   UNL     1       4.363   6.132  17.942  0.00  0.00    +0.000 OA
ATOM     18  H   UNL     1       3.908   4.443  20.190  0.00  0.00    +0.000 HD
BRANCH  15  19
ATOM     19  C   UNL     1       2.090   4.860  17.807  0.00  0.00    +0.000 C 
ATOM     20  C   UNL     1       2.664   3.487  17.524  0.00  0.00    +0.000 C 
ATOM     21  C   UNL     1       1.508   3.635  18.468  0.00  0.00    +0.000 C 
ENDBRANCH  15  19
ENDBRANCH  12  15
ENDBRANCH   4   9
BRANCH   7  22
ATOM     22  C   UNL     1      -5.297  11.738  17.742  0.00  0.00    +0.000 C 
ATOM     23  F   UNL     1      -5.758  13.010  17.876  0.00  0.00    +0.000 F 
ATOM     24  F   UNL     1      -5.295  11.494  16.398  0.00  0.00    +0.000 F 
ATOM     25  F   UNL     1      -6.275  10.933  18.247  0.00  0.00    +0.000 F 
ENDBRANCH   7  22
BRANCH   1  26
ATOM     26  O   UNL     1      -4.189  13.047  20.056  0.00  0.00    +0.000 OA
BRANCH  26  27
ATOM     27  C   UNL     1      -4.860  12.599  21.251  0.00  0.00    +0.000 C 
ATOM     28  C   UNL     1      -6.338  13.012  21.243  0.00  0.00    +0.000 C 
BRANCH  27  30
ATOM     29  C   UNL     1      -3.221  12.361  23.236  0.00  0.00    +0.000 C 
ATOM     30  C   UNL     1      -4.172  13.276  22.473  0.00  0.00    +0.000 C 
BRANCH  30  31
ATOM     31  O   UNL     1      -3.429  14.431  22.063  0.00  0.00    +0.000 OA
ATOM     32  H   UNL     1      -3.413  15.043  22.822  0.00  0.00    +0.000 HD
ENDBRANCH  30  31
ENDBRANCH  27  30
ENDBRANCH  26  27
ENDBRANCH   1  26
TORSDOF 8
ENDMDL
MODEL 9
REMARK VINA RESULT:      -7.4      2.212      2.702
REMARK  Name = 
REMARK  10 active torsions:
REMARK  status: ('A' for Active; 'I' for Inactive)
REMARK    1  A    between atoms: C_1  and  C_2
REMARK    2  A    between atoms: C_2  and  O_3
REMARK    3  A    between atoms: C_2  and  C_4
REMARK    4  A    between atoms: C_4  and  C_5
REMARK    5  A    between atoms: C_4  and  O_6
REMARK    6  A    between atoms: O_6  and  C_7
REMARK    7  A    between atoms: N_10  and  C_11
REMARK    8  A    between atoms: C_14  and  S_15
REMARK    9  A    between atoms: S_15  and  C_18
REMARK   10  A    between atoms: C_25  and  C_26
REMARK                            x       y       z     vdW  Elec       q    Type
REMARK                         _______ _______ _______ _____ _____    ______ ____
ROOT
ATOM      1  C   UNL     1       3.614   6.009  17.735  0.00  0.00    +0.000 A 
ATOM      2  N   UNL     1       3.250   7.280  17.448  0.00  0.00    +0.000 NA
ATOM      3  C   UNL     1       2.487   7.918  18.358  0.00  0.00    +0.000 A 
ATOM      4  N   UNL     1       2.226   9.276  18.184  0.00  0.00    +0.000 N 
ATOM      5  N   UNL     1       2.056   7.336  19.487  0.00  0.00    +0.000 NA
ATOM      6  C   UNL     1       2.510   6.107  19.764  0.00  0.00    +0.000 A 
ATOM      7  C   UNL     1       3.339   5.396  18.933  0.00  0.00    +0.000 A 
ATOM      8  H   UNL     1       2.756   9.677  17.428  0.00  0.00    +0.000 HD
ENDROOT
BRANCH   4   9
ATOM      9  C   UNL     1       1.148  10.033  18.671  0.00  0.00    +0.000 A 
ATOM     10  C   UNL     1       1.317  10.848  19.799  0.00  0.00    +0.000 A 
ATOM     11  C   UNL     1       0.268  11.646  20.280  0.00  0.00    +0.000 A 
ATOM     12  C   UNL     1      -0.963  11.647  19.620  0.00  0.00    +0.000 A 
ATOM     13  C   UNL     1      -1.163  10.813  18.518  0.00  0.00    +0.000 A 
ATOM     14  C   UNL     1      -0.117  10.000  18.065  0.00  0.00    +0.000 A 
BRANCH  12  15
ATOM     15  S   UNL     1      -2.235  12.800  20.103  0.00  0.00    +0.000 S 
ATOM     16  N   UNL     1      -3.489  12.411  19.304  0.00  0.00    +0.000 NA
ATOM     17  O   UNL     1      -1.637  14.122  20.080  0.00  0.00    +0.000 OA
ATOM     18  H   UNL     1      -4.220  13.110  19.436  0.00  0.00    +0.000 HD
BRANCH  15  19
ATOM     19  C   UNL     1      -2.545  12.453  21.868  0.00  0.00    +0.000 C 
ATOM     20  C   UNL     1      -2.925  13.701  22.639  0.00  0.00    +0.000 C 
ATOM     21  C   UNL     1      -3.954  12.642  22.372  0.00  0.00    +0.000 C 
ENDBRANCH  15  19
ENDBRANCH  12  15
ENDBRANCH   4   9
BRANCH   7  22
ATOM     22  C   UNL     1       3.882   4.098  19.397  0.00  0.00    +0.000 C 
ATOM     23  F   UNL     1       3.713   3.042  18.557  0.00  0.00    +0.000 F 
ATOM     24  F   UNL     1       5.228   4.174  19.617  0.00  0.00    +0.000 F 
ATOM     25  F   UNL     1       3.348   3.712  20.590  0.00  0.00    +0.000 F 
ENDBRANCH   7  22
BRANCH   1  26
ATOM     26  O   UNL     1       4.319   5.271  16.802  0.00  0.00    +0.000 OA
BRANCH  26  27
ATOM     27  C   UNL     1       5.396   5.928  16.106  0.00  0.00    +0.000 C 
ATOM     28  C   UNL     1       5.759   5.180  14.816  0.00  0.00    +0.000 C 
BRANCH  27  30
ATOM     29  C   UNL     1       7.347   4.576  17.130  0.00  0.00    +0.000 C 
ATOM     30  C   UNL     1       6.645   5.926  17.036  0.00  0.00    +0.000 C 
BRANCH  30  31
ATOM     31  O   UNL     1       7.611   6.887  16.593  0.00  0.00    +0.000 OA
ATOM     32  H   UNL     1       7.471   7.010  15.636  0.00  0.00    +0.000 HD
ENDBRANCH  30  31
ENDBRANCH  27  30
ENDBRANCH  26  27
ENDBRANCH   1  26
TORSDOF 8
ENDMDL
