MODEL 1
REMARK VINA RESULT:      -6.9      0.000      0.000
REMARK  Name = 
REMARK  9 active torsions:
REMARK  status: ('A' for Active; 'I' for Inactive)
REMARK    1  A    between atoms: C_1  and  N_2
REMARK    2  A    between atoms: N_2  and  C_3
REMARK    3  A    between atoms: N_2  and  C_12
REMARK    4  A    between atoms: C_3  and  C_4
REMARK    5  A    between atoms: C_4  and  C_6
REMARK    6  A    between atoms: C_6  and  N_7
REMARK    7  A    between atoms: C_6  and  C_8
REMARK    8  A    between atoms: N_10  and  O_11
REMARK    9  A    between atoms: C_12  and  C_13
REMARK                            x       y       z     vdW  Elec       q    Type
REMARK                         _______ _______ _______ _____ _____    ______ ____
ROOT
ATOM      1  C   UNL     1       5.698   5.078  19.134  0.00  0.00    +0.000 C 
ATOM      2  O   UNL     1       5.645   3.872  19.407  0.00  0.00    +0.000 OA
ENDROOT
BRANCH   1   3
ATOM      3  C   UNL     1       4.504   6.044  19.251  0.00  0.00    +0.000 C 
BRANCH   3   5
ATOM      4  C   UNL     1       3.994   7.500  17.361  0.00  0.00    +0.000 C 
ATOM      5  N   UNL     1       3.711   6.224  18.016  0.00  0.00    +0.000 NA
BRANCH   5   6
ATOM      6  C   UNL     1       2.275   5.984  18.249  0.00  0.00    +0.000 C 
BRANCH   6   7
ATOM      7  C   UNL     1       1.954   4.561  18.651  0.00  0.00    +0.000 A 
ATOM      8  C   UNL     1       2.247   3.488  17.794  0.00  0.00    +0.000 A 
ATOM      9  C   UNL     1       1.896   2.186  18.150  0.00  0.00    +0.000 A 
ATOM     10  C   UNL     1       1.254   1.945  19.364  0.00  0.00    +0.000 A 
ATOM     11  C   UNL     1       0.979   3.000  20.233  0.00  0.00    +0.000 A 
ATOM     12  C   UNL     1       1.330   4.301  19.879  0.00  0.00    +0.000 A 
ENDBRANCH   6   7
ENDBRANCH   5   6
ENDBRANCH   3   5
ENDBRANCH   1   3
BRANCH   1  13
ATOM     13  C   UNL     1       7.030   5.698  18.712  0.00  0.00    +0.000 C 
BRANCH  13  14
ATOM     14  C   UNL     1       7.542   5.192  17.369  0.00  0.00    +0.000 C 
ATOM     15  O   UNL     1       8.165   4.145  17.204  0.00  0.00    +0.000 OA
ATOM     16  N   UNL     1       7.197   6.010  16.314  0.00  0.00    +0.000 N 
ATOM     17  H   UNL     1       7.117   7.010  16.501  0.00  0.00    +0.000 HD
BRANCH  16  18
ATOM     18  O   UNL     1       7.750   5.641  15.064  0.00  0.00    +0.000 OA
ATOM     19  H   UNL     1       7.248   6.199  14.432  0.00  0.00    +0.000 HD
ENDBRANCH  16  18
ENDBRANCH  13  14
BRANCH  13  20
ATOM     20  N   UNL     1       8.069   5.423  19.759  0.00  0.00    +0.000 NA
ATOM     21  H   UNL     1       8.238   4.409  19.741  0.00  0.00    +0.000 HD
ATOM     22  H   UNL     1       7.608   5.535  20.671  0.00  0.00    +0.000 HD
ENDBRANCH  13  20
ENDBRANCH   1  13
TORSDOF 8
ENDMDL
MODEL 2
REMARK VINA RESULT:      -6.8      1.470      2.243
REMARK  Name = 
REMARK  9 active torsions:
REMARK  status: ('A' for Active; 'I' for Inactive)
REMARK    1  A    between atoms: C_1  and  N_2
REMARK    2  A    between atoms: N_2  and  C_3
REMARK    3  A    between atoms: N_2  and  C_12
REMARK    4  A    between atoms: C_3  and  C_4
REMARK    5  A    between atoms: C_4  and  C_6
REMARK    6  A    between atoms: C_6  and  N_7
REMARK    7  A    between atoms: C_6  and  C_8
REMARK    8  A    between atoms: N_10  and  O_11
REMARK    9  A    between atoms: C_12  and  C_13
REMARK                            x       y       z     vdW  Elec       q    Type
REMARK                         _______ _______ _______ _____ _____    ______ ____
ROOT
ATOM      1  C   UNL     1       5.633   5.992  16.714  0.00  0.00    +0.000 C 
ATOM      2  O   UNL     1       5.214   4.928  16.243  0.00  0.00    +0.000 OA
ENDROOT
BRANCH   1   3
ATOM      3  C   UNL     1       4.728   7.164  17.141  0.00  0.00    +0.000 C 
BRANCH   3   5
ATOM      4  C   UNL     1       2.585   7.929  18.024  0.00  0.00    +0.000 C 
ATOM      5  N   UNL     1       3.464   6.781  17.806  0.00  0.00    +0.000 NA
BRANCH   5   6
ATOM      6  C   UNL     1       3.708   5.983  19.022  0.00  0.00    +0.000 C 
BRANCH   6   7
ATOM      7  C   UNL     1       2.705   4.869  19.229  0.00  0.00    +0.000 A 
ATOM      8  C   UNL     1       2.335   4.028  18.167  0.00  0.00    +0.000 A 
ATOM      9  C   UNL     1       1.369   3.040  18.355  0.00  0.00    +0.000 A 
ATOM     10  C   UNL     1       0.768   2.881  19.603  0.00  0.00    +0.000 A 
ATOM     11  C   UNL     1       1.145   3.694  20.671  0.00  0.00    +0.000 A 
ATOM     12  C   UNL     1       2.112   4.681  20.485  0.00  0.00    +0.000 A 
ENDBRANCH   6   7
ENDBRANCH   5   6
ENDBRANCH   3   5
ENDBRANCH   1   3
BRANCH   1  13
ATOM     13  C   UNL     1       7.131   6.170  16.963  0.00  0.00    +0.000 C 
BRANCH  13  14
ATOM     14  C   UNL     1       7.648   5.390  18.165  0.00  0.00    +0.000 C 
ATOM     15  O   UNL     1       8.004   4.213  18.139  0.00  0.00    +0.000 OA
ATOM     16  N   UNL     1       7.729   6.151  19.312  0.00  0.00    +0.000 N 
ATOM     17  H   UNL     1       7.046   6.901  19.428  0.00  0.00    +0.000 HD
BRANCH  16  18
ATOM     18  O   UNL     1       8.093   5.439  20.479  0.00  0.00    +0.000 OA
ATOM     19  H   UNL     1       9.052   5.278  20.345  0.00  0.00    +0.000 HD
ENDBRANCH  16  18
ENDBRANCH  13  14
BRANCH  13  20
ATOM     20  N   UNL     1       7.440   7.625  17.162  0.00  0.00    +0.000 NA
ATOM     21  H   UNL     1       6.554   8.130  17.031  0.00  0.00    +0.000 HD
ATOM     22  H   UNL     1       7.971   7.930  16.337  0.00  0.00    +0.000 HD
ENDBRANCH  13  20
ENDBRANCH   1  13
TORSDOF 8
ENDMDL
MODEL 3
REMARK VINA RESULT:      -6.8      1.186      1.258
REMARK  Name = 
REMARK  9 active torsions:
REMARK  status: ('A' for Active; 'I' for Inactive)
REMARK    1  A    between atoms: C_1  and  N_2
REMARK    2  A    between atoms: N_2  and  C_3
REMARK    3  A    between atoms: N_2  and  C_12
REMARK    4  A    between atoms: C_3  and  C_4
REMARK    5  A    between atoms: C_4  and  C_6
REMARK    6  A    between atoms: C_6  and  N_7
REMARK    7  A    between atoms: C_6  and  C_8
REMARK    8  A    between atoms: N_10  and  O_11
REMARK    9  A    between atoms: C_12  and  C_13
REMARK                            x       y       z     vdW  Elec       q    Type
REMARK                         _______ _______ _______ _____ _____    ______ ____
ROOT
ATOM      1  C   UNL     1       5.989   4.699  18.386  0.00  0.00    +0.000 C 
ATOM      2  O   UNL     1       5.829   3.597  18.926  0.00  0.00    +0.000 OA
ENDROOT
BRANCH   1   3
ATOM      3  C   UNL     1       5.083   5.921  18.629  0.00  0.00    +0.000 C 
BRANCH   3   5
ATOM      4  C   UNL     1       4.359   7.167  16.660  0.00  0.00    +0.000 C 
ATOM      5  N   UNL     1       4.014   6.127  17.627  0.00  0.00    +0.000 NA
BRANCH   5   6
ATOM      6  C   UNL     1       2.699   6.324  18.264  0.00  0.00    +0.000 C 
BRANCH   6   7
ATOM      7  C   UNL     1       2.099   5.054  18.826  0.00  0.00    +0.000 A 
ATOM      8  C   UNL     1       1.797   3.969  17.987  0.00  0.00    +0.000 A 
ATOM      9  C   UNL     1       1.193   2.824  18.507  0.00  0.00    +0.000 A 
ATOM     10  C   UNL     1       0.890   2.751  19.867  0.00  0.00    +0.000 A 
ATOM     11  C   UNL     1       1.207   3.813  20.713  0.00  0.00    +0.000 A 
ATOM     12  C   UNL     1       1.813   4.957  20.195  0.00  0.00    +0.000 A 
ENDBRANCH   6   7
ENDBRANCH   5   6
ENDBRANCH   3   5
ENDBRANCH   1   3
BRANCH   1  13
ATOM     13  C   UNL     1       7.187   4.920  17.463  0.00  0.00    +0.000 C 
BRANCH  13  14
ATOM     14  C   UNL     1       6.889   4.639  15.996  0.00  0.00    +0.000 C 
ATOM     15  O   UNL     1       6.150   3.745  15.588  0.00  0.00    +0.000 OA
ATOM     16  N   UNL     1       7.499   5.530  15.138  0.00  0.00    +0.000 N 
ATOM     17  H   UNL     1       8.399   5.917  15.424  0.00  0.00    +0.000 HD
BRANCH  16  18
ATOM     18  O   UNL     1       7.344   5.237  13.762  0.00  0.00    +0.000 OA
ATOM     19  H   UNL     1       7.701   4.325  13.693  0.00  0.00    +0.000 HD
ENDBRANCH  16  18
ENDBRANCH  13  14
BRANCH  13  20
ATOM     20  N   UNL     1       8.328   4.047  17.899  0.00  0.00    +0.000 NA
ATOM     21  H   UNL     1       9.131   4.304  17.311  0.00  0.00    +0.000 HD
ATOM     22  H   UNL     1       8.122   3.099  17.559  0.00  0.00    +0.000 HD
ENDBRANCH  13  20
ENDBRANCH   1  13
TORSDOF 8
ENDMDL
MODEL 4
REMARK VINA RESULT:      -6.7      1.624      2.808
REMARK  Name = 
REMARK  9 active torsions:
REMARK  status: ('A' for Active; 'I' for Inactive)
REMARK    1  A    between atoms: C_1  and  N_2
REMARK    2  A    between atoms: N_2  and  C_3
REMARK    3  A    between atoms: N_2  and  C_12
REMARK    4  A    between atoms: C_3  and  C_4
REMARK    5  A    between atoms: C_4  and  C_6
REMARK    6  A    between atoms: C_6  and  N_7
REMARK    7  A    between atoms: C_6  and  C_8
REMARK    8  A    between atoms: N_10  and  O_11
REMARK    9  A    between atoms: C_12  and  C_13
REMARK                            x       y       z     vdW  Elec       q    Type
REMARK                         _______ _______ _______ _____ _____    ______ ____
ROOT
ATOM      1  C   UNL     1       6.677   5.578  16.040  0.00  0.00    +0.000 C 
ATOM      2  O   UNL     1       7.366   4.999  15.192  0.00  0.00    +0.000 OA
ENDROOT
BRANCH   1   3
ATOM      3  C   UNL     1       5.137   5.532  16.081  0.00  0.00    +0.000 C 
BRANCH   3   5
ATOM      4  C   UNL     1       4.511   3.412  17.115  0.00  0.00    +0.000 C 
ATOM      5  N   UNL     1       4.553   4.866  17.265  0.00  0.00    +0.000 NA
BRANCH   5   6
ATOM      6  C   UNL     1       3.258   5.460  17.642  0.00  0.00    +0.000 C 
BRANCH   6   7
ATOM      7  C   UNL     1       2.554   4.724  18.762  0.00  0.00    +0.000 A 
ATOM      8  C   UNL     1       1.498   3.840  18.489  0.00  0.00    +0.000 A 
ATOM      9  C   UNL     1       0.820   3.210  19.532  0.00  0.00    +0.000 A 
ATOM     10  C   UNL     1       1.193   3.453  20.854  0.00  0.00    +0.000 A 
ATOM     11  C   UNL     1       2.255   4.311  21.135  0.00  0.00    +0.000 A 
ATOM     12  C   UNL     1       2.935   4.941  20.093  0.00  0.00    +0.000 A 
ENDBRANCH   6   7
ENDBRANCH   5   6
ENDBRANCH   3   5
ENDBRANCH   1   3
BRANCH   1  13
ATOM     13  C   UNL     1       7.359   6.346  17.172  0.00  0.00    +0.000 C 
BRANCH  13  14
ATOM     14  C   UNL     1       7.723   5.476  18.369  0.00  0.00    +0.000 C 
ATOM     15  O   UNL     1       7.807   4.249  18.346  0.00  0.00    +0.000 OA
ATOM     16  N   UNL     1       8.005   6.205  19.505  0.00  0.00    +0.000 N 
ATOM     17  H   UNL     1       7.510   7.089  19.631  0.00  0.00    +0.000 HD
BRANCH  16  18
ATOM     18  O   UNL     1       8.234   5.435  20.670  0.00  0.00    +0.000 OA
ATOM     19  H   UNL     1       8.582   6.099  21.303  0.00  0.00    +0.000 HD
ENDBRANCH  16  18
ENDBRANCH  13  14
BRANCH  13  20
ATOM     20  N   UNL     1       6.466   7.458  17.638  0.00  0.00    +0.000 NA
ATOM     21  H   UNL     1       7.050   8.078  18.214  0.00  0.00    +0.000 HD
ATOM     22  H   UNL     1       5.838   7.057  18.346  0.00  0.00    +0.000 HD
ENDBRANCH  13  20
ENDBRANCH   1  13
TORSDOF 8
ENDMDL
MODEL 5
REMARK VINA RESULT:      -6.7      2.884      5.359
REMARK  Name = 
REMARK  9 active torsions:
REMARK  status: ('A' for Active; 'I' for Inactive)
REMARK    1  A    between atoms: C_1  and  N_2
REMARK    2  A    between atoms: N_2  and  C_3
REMARK    3  A    between atoms: N_2  and  C_12
REMARK    4  A    between atoms: C_3  and  C_4
REMARK    5  A    between atoms: C_4  and  C_6
REMARK    6  A    between atoms: C_6  and  N_7
REMARK    7  A    between atoms: C_6  and  C_8
REMARK    8  A    between atoms: N_10  and  O_11
REMARK    9  A    between atoms: C_12  and  C_13
REMARK                            x       y       z     vdW  Elec       q    Type
REMARK                         _______ _______ _______ _____ _____    ______ ____
ROOT
ATOM      1  C   UNL     1       1.671   3.628  19.569  0.00  0.00    +0.000 C 
ATOM      2  O   UNL     1       0.582   3.093  19.810  0.00  0.00    +0.000 OA
ENDROOT
BRANCH   1   3
ATOM      3  C   UNL     1       1.899   4.653  18.441  0.00  0.00    +0.000 C 
BRANCH   3   5
ATOM      4  C   UNL     1       2.658   6.941  18.822  0.00  0.00    +0.000 C 
ATOM      5  N   UNL     1       3.061   5.549  18.625  0.00  0.00    +0.000 NA
BRANCH   5   6
ATOM      6  C   UNL     1       4.063   5.369  17.559  0.00  0.00    +0.000 C 
BRANCH   6   7
ATOM      7  C   UNL     1       5.443   5.867  17.931  0.00  0.00    +0.000 A 
ATOM      8  C   UNL     1       6.076   6.865  17.172  0.00  0.00    +0.000 A 
ATOM      9  C   UNL     1       7.370   7.277  17.490  0.00  0.00    +0.000 A 
ATOM     10  C   UNL     1       8.039   6.702  18.569  0.00  0.00    +0.000 A 
ATOM     11  C   UNL     1       7.412   5.727  19.344  0.00  0.00    +0.000 A 
ATOM     12  C   UNL     1       6.118   5.315  19.028  0.00  0.00    +0.000 A 
ENDBRANCH   6   7
ENDBRANCH   5   6
ENDBRANCH   3   5
ENDBRANCH   1   3
BRANCH   1  13
ATOM     13  C   UNL     1       2.874   3.327  20.462  0.00  0.00    +0.000 C 
BRANCH  13  14
ATOM     14  C   UNL     1       3.821   2.284  19.881  0.00  0.00    +0.000 C 
ATOM     15  O   UNL     1       4.977   2.097  20.258  0.00  0.00    +0.000 OA
ATOM     16  N   UNL     1       3.241   1.512  18.896  0.00  0.00    +0.000 N 
ATOM     17  H   UNL     1       2.525   1.951  18.316  0.00  0.00    +0.000 HD
BRANCH  16  18
ATOM     18  O   UNL     1       4.118   0.611  18.248  0.00  0.00    +0.000 OA
ATOM     19  H   UNL     1       3.501  -0.018  17.816  0.00  0.00    +0.000 HD
ENDBRANCH  16  18
ENDBRANCH  13  14
BRANCH  13  20
ATOM     20  N   UNL     1       2.400   2.853  21.805  0.00  0.00    +0.000 NA
ATOM     21  H   UNL     1       1.563   2.280  21.631  0.00  0.00    +0.000 HD
ATOM     22  H   UNL     1       1.992   3.668  22.279  0.00  0.00    +0.000 HD
ENDBRANCH  13  20
ENDBRANCH   1  13
TORSDOF 8
ENDMDL
MODEL 6
REMARK VINA RESULT:      -6.7      1.645      2.729
REMARK  Name = 
REMARK  9 active torsions:
REMARK  status: ('A' for Active; 'I' for Inactive)
REMARK    1  A    between atoms: C_1  and  N_2
REMARK    2  A    between atoms: N_2  and  C_3
REMARK    3  A    between atoms: N_2  and  C_12
REMARK    4  A    between atoms: C_3  and  C_4
REMARK    5  A    between atoms: C_4  and  C_6
REMARK    6  A    between atoms: C_6  and  N_7
REMARK    7  A    between atoms: C_6  and  C_8
REMARK    8  A    between atoms: N_10  and  O_11
REMARK    9  A    between atoms: C_12  and  C_13
REMARK                            x       y       z     vdW  Elec       q    Type
REMARK                         _______ _______ _______ _____ _____    ______ ____
ROOT
ATOM      1  C   UNL     1       4.969   5.866  16.878  0.00  0.00    +0.000 C 
ATOM      2  O   UNL     1       4.458   5.087  16.064  0.00  0.00    +0.000 OA
ENDROOT
BRANCH   1   3
ATOM      3  C   UNL     1       4.314   7.180  17.345  0.00  0.00    +0.000 C 
BRANCH   3   5
ATOM      4  C   UNL     1       2.193   8.280  17.842  0.00  0.00    +0.000 C 
ATOM      5  N   UNL     1       2.964   7.041  17.934  0.00  0.00    +0.000 NA
BRANCH   5   6
ATOM      6  C   UNL     1       3.017   6.476  19.294  0.00  0.00    +0.000 C 
BRANCH   6   7
ATOM      7  C   UNL     1       2.247   5.183  19.446  0.00  0.00    +0.000 A 
ATOM      8  C   UNL     1       1.976   4.652  20.718  0.00  0.00    +0.000 A 
ATOM      9  C   UNL     1       1.315   3.431  20.845  0.00  0.00    +0.000 A 
ATOM     10  C   UNL     1       0.915   2.733  19.706  0.00  0.00    +0.000 A 
ATOM     11  C   UNL     1       1.157   3.261  18.439  0.00  0.00    +0.000 A 
ATOM     12  C   UNL     1       1.818   4.483  18.310  0.00  0.00    +0.000 A 
ENDBRANCH   6   7
ENDBRANCH   5   6
ENDBRANCH   3   5
ENDBRANCH   1   3
BRANCH   1  13
ATOM     13  C   UNL     1       6.303   5.507  17.531  0.00  0.00    +0.000 C 
BRANCH  13  14
ATOM     14  C   UNL     1       6.159   4.688  18.808  0.00  0.00    +0.000 C 
ATOM     15  O   UNL     1       6.670   4.976  19.888  0.00  0.00    +0.000 OA
ATOM     16  N   UNL     1       5.343   3.587  18.657  0.00  0.00    +0.000 N 
ATOM     17  H   UNL     1       5.325   3.137  17.742  0.00  0.00    +0.000 HD
BRANCH  16  18
ATOM     18  O   UNL     1       5.274   2.735  19.785  0.00  0.00    +0.000 OA
ATOM     19  H   UNL     1       4.308   2.668  19.947  0.00  0.00    +0.000 HD
ENDBRANCH  16  18
ENDBRANCH  13  14
BRANCH  13  20
ATOM     20  N   UNL     1       7.065   6.761  17.845  0.00  0.00    +0.000 NA
ATOM     21  H   UNL     1       6.523   7.538  17.442  0.00  0.00    +0.000 HD
ATOM     22  H   UNL     1       7.897   6.761  17.242  0.00  0.00    +0.000 HD
ENDBRANCH  13  20
ENDBRANCH   1  13
TORSDOF 8
ENDMDL
MODEL 7
REMARK VINA RESULT:      -6.7      2.296      2.543
REMARK  Name = 
REMARK  9 active torsions:
REMARK  status: ('A' for Active; 'I' for Inactive)
REMARK    1  A    between atoms: C_1  and  N_2
REMARK    2  A    between atoms: N_2  and  C_3
REMARK    3  A    between atoms: N_2  and  C_12
REMARK    4  A    between atoms: C_3  and  C_4
REMARK    5  A    between atoms: C_4  and  C_6
REMARK    6  A    between atoms: C_6  and  N_7
REMARK    7  A    between atoms: C_6  and  C_8
REMARK    8  A    between atoms: N_10  and  O_11
REMARK    9  A    between atoms: C_12  and  C_13
REMARK                            x       y       z     vdW  Elec       q    Type
REMARK                         _______ _______ _______ _____ _____    ______ ____
ROOT
ATOM      1  C   UNL     1       5.694   6.216  16.157  0.00  0.00    +0.000 C 
ATOM      2  O   UNL     1       5.352   6.910  15.192  0.00  0.00    +0.000 OA
ENDROOT
BRANCH   1   3
ATOM      3  C   UNL     1       5.341   6.538  17.622  0.00  0.00    +0.000 C 
BRANCH   3   5
ATOM      4  C   UNL     1       3.080   7.362  18.030  0.00  0.00    +0.000 C 
ATOM      5  N   UNL     1       3.962   6.195  18.032  0.00  0.00    +0.000 NA
BRANCH   5   6
ATOM      6  C   UNL     1       3.940   5.439  19.297  0.00  0.00    +0.000 C 
BRANCH   6   7
ATOM      7  C   UNL     1       2.828   4.417  19.376  0.00  0.00    +0.000 A 
ATOM      8  C   UNL     1       2.571   3.549  18.302  0.00  0.00    +0.000 A 
ATOM      9  C   UNL     1       1.507   2.650  18.363  0.00  0.00    +0.000 A 
ATOM     10  C   UNL     1       0.695   2.605  19.496  0.00  0.00    +0.000 A 
ATOM     11  C   UNL     1       0.955   3.445  20.578  0.00  0.00    +0.000 A 
ATOM     12  C   UNL     1       2.019   4.344  20.519  0.00  0.00    +0.000 A 
ENDBRANCH   6   7
ENDBRANCH   5   6
ENDBRANCH   3   5
ENDBRANCH   1   3
BRANCH   1  13
ATOM     13  C   UNL     1       6.463   4.917  15.917  0.00  0.00    +0.000 C 
BRANCH  13  14
ATOM     14  C   UNL     1       6.738   4.632  14.446  0.00  0.00    +0.000 C 
ATOM     15  O   UNL     1       6.175   3.763  13.782  0.00  0.00    +0.000 OA
ATOM     16  N   UNL     1       7.668   5.486  13.892  0.00  0.00    +0.000 N 
ATOM     17  H   UNL     1       8.404   5.840  14.503  0.00  0.00    +0.000 HD
BRANCH  16  18
ATOM     18  O   UNL     1       8.040   5.184  12.560  0.00  0.00    +0.000 OA
ATOM     19  H   UNL     1       9.006   5.353  12.562  0.00  0.00    +0.000 HD
ENDBRANCH  16  18
ENDBRANCH  13  14
BRANCH  13  20
ATOM     20  N   UNL     1       5.698   3.764  16.498  0.00  0.00    +0.000 NA
ATOM     21  H   UNL     1       5.966   2.934  15.953  0.00  0.00    +0.000 HD
ATOM     22  H   UNL     1       4.718   3.885  16.212  0.00  0.00    +0.000 HD
ENDBRANCH  13  20
ENDBRANCH   1  13
TORSDOF 8
ENDMDL
MODEL 8
REMARK VINA RESULT:      -6.6      1.826      2.558
REMARK  Name = 
REMARK  9 active torsions:
REMARK  status: ('A' for Active; 'I' for Inactive)
REMARK    1  A    between atoms: C_1  and  N_2
REMARK    2  A    between atoms: N_2  and  C_3
REMARK    3  A    between atoms: N_2  and  C_12
REMARK    4  A    between atoms: C_3  and  C_4
REMARK    5  A    between atoms: C_4  and  C_6
REMARK    6  A    between atoms: C_6  and  N_7
REMARK    7  A    between atoms: C_6  and  C_8
REMARK    8  A    between atoms: N_10  and  O_11
REMARK    9  A    between atoms: C_12  and  C_13
REMARK                            x       y       z     vdW  Elec       q    Type
REMARK                         _______ _______ _______ _____ _____    ______ ____
ROOT
ATOM      1  C   UNL     1       5.374   4.975  16.512  0.00  0.00    +0.000 C 
ATOM      2  O   UNL     1       4.857   3.854  16.585  0.00  0.00    +0.000 OA
ENDROOT
BRANCH   1   3
ATOM      3  C   UNL     1       4.658   6.284  16.893  0.00  0.00    +0.000 C 
BRANCH   3   5
ATOM      4  C   UNL     1       4.775   5.321  19.133  0.00  0.00    +0.000 C 
ATOM      5  N   UNL     1       4.191   6.367  18.294  0.00  0.00    +0.000 NA
BRANCH   5   6
ATOM      6  C   UNL     1       2.721   6.438  18.376  0.00  0.00    +0.000 C 
BRANCH   6   7
ATOM      7  C   UNL     1       2.079   5.174  18.904  0.00  0.00    +0.000 A 
ATOM      8  C   UNL     1       1.818   5.018  20.275  0.00  0.00    +0.000 A 
ATOM      9  C   UNL     1       1.278   3.826  20.757  0.00  0.00    +0.000 A 
ATOM     10  C   UNL     1       0.990   2.784  19.876  0.00  0.00    +0.000 A 
ATOM     11  C   UNL     1       1.223   2.936  18.510  0.00  0.00    +0.000 A 
ATOM     12  C   UNL     1       1.762   4.128  18.026  0.00  0.00    +0.000 A 
ENDBRANCH   6   7
ENDBRANCH   5   6
ENDBRANCH   3   5
ENDBRANCH   1   3
BRANCH   1  13
ATOM     13  C   UNL     1       6.835   5.105  16.079  0.00  0.00    +0.000 C 
BRANCH  13  14
ATOM     14  C   UNL     1       7.069   4.777  14.609  0.00  0.00    +0.000 C 
ATOM     15  O   UNL     1       7.801   5.414  13.855  0.00  0.00    +0.000 OA
ATOM     16  N   UNL     1       6.405   3.642  14.194  0.00  0.00    +0.000 N 
ATOM     17  H   UNL     1       5.514   3.427  14.643  0.00  0.00    +0.000 HD
BRANCH  16  18
ATOM     18  O   UNL     1       6.500   3.365  12.810  0.00  0.00    +0.000 OA
ATOM     19  H   UNL     1       6.497   4.261  12.409  0.00  0.00    +0.000 HD
ENDBRANCH  16  18
ENDBRANCH  13  14
BRANCH  13  20
ATOM     20  N   UNL     1       7.692   4.202  16.917  0.00  0.00    +0.000 NA
ATOM     21  H   UNL     1       7.232   3.282  16.917  0.00  0.00    +0.000 HD
ATOM     22  H   UNL     1       7.560   4.493  17.894  0.00  0.00    +0.000 HD
ENDBRANCH  13  20
ENDBRANCH   1  13
TORSDOF 8
ENDMDL
MODEL 9
REMARK VINA RESULT:      -6.6      1.710      2.835
REMARK  Name = 
REMARK  9 active torsions:
REMARK  status: ('A' for Active; 'I' for Inactive)
REMARK    1  A    between atoms: C_1  and  N_2
REMARK    2  A    between atoms: N_2  and  C_3
REMARK    3  A    between atoms: N_2  and  C_12
REMARK    4  A    between atoms: C_3  and  C_4
REMARK    5  A    between atoms: C_4  and  C_6
REMARK    6  A    between atoms: C_6  and  N_7
REMARK    7  A    between atoms: C_6  and  C_8
REMARK    8  A    between atoms: N_10  and  O_11
REMARK    9  A    between atoms: C_12  and  C_13
REMARK                            x       y       z     vdW  Elec       q    Type
REMARK                         _______ _______ _______ _____ _____    ______ ____
ROOT
ATOM      1  C   UNL     1       6.794   4.801  16.956  0.00  0.00    +0.000 C 
ATOM      2  O   UNL     1       7.906   4.467  17.382  0.00  0.00    +0.000 OA
ENDROOT
BRANCH   1   3
ATOM      3  C   UNL     1       5.952   5.949  17.544  0.00  0.00    +0.000 C 
BRANCH   3   5
ATOM      4  C   UNL     1       5.202   4.165  19.031  0.00  0.00    +0.000 C 
ATOM      5  N   UNL     1       5.071   5.577  18.672  0.00  0.00    +0.000 NA
BRANCH   5   6
ATOM      6  C   UNL     1       3.678   6.002  18.441  0.00  0.00    +0.000 C 
BRANCH   6   7
ATOM      7  C   UNL     1       2.649   5.012  18.943  0.00  0.00    +0.000 A 
ATOM      8  C   UNL     1       2.275   4.989  20.297  0.00  0.00    +0.000 A 
ATOM      9  C   UNL     1       1.368   4.036  20.760  0.00  0.00    +0.000 A 
ATOM     10  C   UNL     1       0.824   3.104  19.877  0.00  0.00    +0.000 A 
ATOM     11  C   UNL     1       1.169   3.133  18.527  0.00  0.00    +0.000 A 
ATOM     12  C   UNL     1       2.075   4.086  18.062  0.00  0.00    +0.000 A 
ENDBRANCH   6   7
ENDBRANCH   5   6
ENDBRANCH   3   5
ENDBRANCH   1   3
BRANCH   1  13
ATOM     13  C   UNL     1       6.212   4.096  15.731  0.00  0.00    +0.000 C 
BRANCH  13  14
ATOM     14  C   UNL     1       6.866   4.510  14.419  0.00  0.00    +0.000 C 
ATOM     15  O   UNL     1       6.593   4.036  13.318  0.00  0.00    +0.000 OA
ATOM     16  N   UNL     1       7.787   5.526  14.568  0.00  0.00    +0.000 N 
ATOM     17  H   UNL     1       8.304   5.566  15.447  0.00  0.00    +0.000 HD
BRANCH  16  18
ATOM     18  O   UNL     1       8.503   5.862  13.394  0.00  0.00    +0.000 OA
ATOM     19  H   UNL     1       7.791   5.961  12.727  0.00  0.00    +0.000 HD
ENDBRANCH  16  18
ENDBRANCH  13  14
BRANCH  13  20
ATOM     20  N   UNL     1       4.739   4.369  15.644  0.00  0.00    +0.000 NA
ATOM     21  H   UNL     1       4.560   5.187  16.241  0.00  0.00    +0.000 HD
ATOM     22  H   UNL     1       4.268   3.625  16.173  0.00  0.00    +0.000 HD
ENDBRANCH  13  20
ENDBRANCH   1  13
TORSDOF 8
ENDMDL
