MODEL 1
REMARK VINA RESULT:      -9.1      0.000      0.000
REMARK  Name = 
REMARK  9 active torsions:
REMARK  status: ('A' for Active; 'I' for Inactive)
REMARK    1  A    between atoms: C_1  and  C_2
REMARK    2  A    between atoms: C_4  and  C_5
REMARK    3  A    between atoms: C_6  and  C_7
REMARK    4  A    between atoms: C_12  and  N_13
REMARK    5  A    between atoms: N_13  and  C_14
REMARK    6  A    between atoms: N_13  and  C_15
REMARK    7  A    between atoms: N_19  and  C_20
REMARK    8  A    between atoms: C_21  and  C_22
REMARK    9  A    between atoms: N_23  and  C_24
REMARK                            x       y       z     vdW  Elec       q    Type
REMARK                         _______ _______ _______ _____ _____    ______ ____
ROOT
ATOM      1  C   UNL     1       1.400   6.896  20.599  0.00  0.00    +0.000 C 
ATOM      2  C   UNL     1       1.632   8.216  20.653  0.00  0.00    +0.000 C 
ENDROOT
BRANCH   2   3
ATOM      3  C   UNL     1       0.656   9.151  21.236  0.00  0.00    +0.000 A 
ATOM      4  C   UNL     1       0.375   9.055  22.595  0.00  0.00    +0.000 A 
ATOM      5  C   UNL     1      -0.509   9.946  23.176  0.00  0.00    +0.000 A 
ATOM      6  C   UNL     1      -1.072  10.964  22.408  0.00  0.00    +0.000 A 
ATOM      7  C   UNL     1      -1.939  11.905  23.007  0.00  0.00    +0.000 A 
ATOM      8  C   UNL     1      -2.521  12.968  22.299  0.00  0.00    +0.000 A 
ATOM      9  C   UNL     1      -2.177  13.052  20.947  0.00  0.00    +0.000 A 
ATOM     10  C   UNL     1      -1.321  12.127  20.325  0.00  0.00    +0.000 A 
ATOM     11  C   UNL     1      -0.765  11.049  21.029  0.00  0.00    +0.000 A 
ATOM     12  N   UNL     1       0.053  10.102  20.461  0.00  0.00    +0.000 N 
ATOM     13  C   UNL     1       0.287  10.055  18.996  0.00  0.00    +0.000 C 
BRANCH   8  14
ATOM     14  N   UNL     1      -3.367  13.880  22.894  0.00  0.00    +0.000 N 
ATOM     15  C   UNL     1      -4.516  13.478  23.708  0.00  0.00    +0.000 C 
ATOM     16  C   UNL     1      -3.193  15.327  22.771  0.00  0.00    +0.000 C 
ENDBRANCH   8  14
ENDBRANCH   2   3
BRANCH   1  20
ATOM     17  C   UNL     1       4.005   2.600  20.033  0.00  0.00    +0.000 C 
ATOM     18  C   UNL     1       3.454   3.969  19.799  0.00  0.00    +0.000 A 
ATOM     19  C   UNL     1       2.483   4.587  20.565  0.00  0.00    +0.000 A 
ATOM     20  C   UNL     1       2.316   5.906  20.103  0.00  0.00    +0.000 A 
ATOM     21  C   UNL     1       3.175   6.077  19.023  0.00  0.00    +0.000 A 
ATOM     22  C   UNL     1       3.282   7.256  18.103  0.00  0.00    +0.000 C 
ATOM     23  N   UNL     1       3.907   4.882  18.839  0.00  0.00    +0.000 N 
BRANCH  23  24
ATOM     24  C   UNL     1       4.904   4.641  17.827  0.00  0.00    +0.000 A 
ATOM     25  C   UNL     1       6.266   4.831  18.097  0.00  0.00    +0.000 A 
ATOM     26  C   UNL     1       7.230   4.688  17.094  0.00  0.00    +0.000 A 
ATOM     27  C   UNL     1       6.853   4.292  15.816  0.00  0.00    +0.000 A 
ATOM     28  C   UNL     1       5.511   4.048  15.543  0.00  0.00    +0.000 A 
ATOM     29  C   UNL     1       4.542   4.239  16.535  0.00  0.00    +0.000 A 
ENDBRANCH  23  24
ENDBRANCH   1  20
TORSDOF 4
ENDMDL
MODEL 2
REMARK VINA RESULT:      -8.4      0.856      1.235
REMARK  Name = 
REMARK  9 active torsions:
REMARK  status: ('A' for Active; 'I' for Inactive)
REMARK    1  A    between atoms: C_1  and  C_2
REMARK    2  A    between atoms: C_4  and  C_5
REMARK    3  A    between atoms: C_6  and  C_7
REMARK    4  A    between atoms: C_12  and  N_13
REMARK    5  A    between atoms: N_13  and  C_14
REMARK    6  A    between atoms: N_13  and  C_15
REMARK    7  A    between atoms: N_19  and  C_20
REMARK    8  A    between atoms: C_21  and  C_22
REMARK    9  A    between atoms: N_23  and  C_24
REMARK                            x       y       z     vdW  Elec       q    Type
REMARK                         _______ _______ _______ _____ _____    ______ ____
ROOT
ATOM      1  C   UNL     1       1.804   6.923  20.569  0.00  0.00    +0.000 C 
ATOM      2  C   UNL     1       1.602   8.174  20.128  0.00  0.00    +0.000 C 
ENDROOT
BRANCH   2   3
ATOM      3  C   UNL     1       0.774   9.134  20.876  0.00  0.00    +0.000 A 
ATOM      4  C   UNL     1       0.175   8.715  22.059  0.00  0.00    +0.000 A 
ATOM      5  C   UNL     1      -0.576   9.607  22.801  0.00  0.00    +0.000 A 
ATOM      6  C   UNL     1      -0.687  10.933  22.386  0.00  0.00    +0.000 A 
ATOM      7  C   UNL     1      -1.414  11.861  23.165  0.00  0.00    +0.000 A 
ATOM      8  C   UNL     1      -1.544  13.214  22.818  0.00  0.00    +0.000 A 
ATOM      9  C   UNL     1      -0.892  13.602  21.645  0.00  0.00    +0.000 A 
ATOM     10  C   UNL     1      -0.165  12.700  20.849  0.00  0.00    +0.000 A 
ATOM     11  C   UNL     1      -0.062  11.342  21.183  0.00  0.00    +0.000 A 
ATOM     12  N   UNL     1       0.611  10.414  20.424  0.00  0.00    +0.000 N 
ATOM     13  C   UNL     1       1.154  10.753  19.085  0.00  0.00    +0.000 C 
BRANCH   8  14
ATOM     14  N   UNL     1      -2.259  14.110  23.586  0.00  0.00    +0.000 N 
ATOM     15  C   UNL     1      -3.713  14.251  23.489  0.00  0.00    +0.000 C 
ATOM     16  C   UNL     1      -1.632  14.996  24.567  0.00  0.00    +0.000 C 
ENDBRANCH   8  14
ENDBRANCH   2   3
BRANCH   1  20
ATOM     17  C   UNL     1       4.180   2.588  19.507  0.00  0.00    +0.000 C 
ATOM     18  C   UNL     1       3.672   3.990  19.414  0.00  0.00    +0.000 A 
ATOM     19  C   UNL     1       2.784   4.585  20.290  0.00  0.00    +0.000 A 
ATOM     20  C   UNL     1       2.641   5.940  19.937  0.00  0.00    +0.000 A 
ATOM     21  C   UNL     1       3.429   6.159  18.813  0.00  0.00    +0.000 A 
ATOM     22  C   UNL     1       3.521   7.399  17.974  0.00  0.00    +0.000 C 
ATOM     23  N   UNL     1       4.095   4.955  18.490  0.00  0.00    +0.000 N 
BRANCH  23  24
ATOM     24  C   UNL     1       5.007   4.753  17.394  0.00  0.00    +0.000 A 
ATOM     25  C   UNL     1       4.535   4.419  16.116  0.00  0.00    +0.000 A 
ATOM     26  C   UNL     1       5.418   4.132  15.071  0.00  0.00    +0.000 A 
ATOM     27  C   UNL     1       6.790   4.235  15.269  0.00  0.00    +0.000 A 
ATOM     28  C   UNL     1       7.276   4.616  16.515  0.00  0.00    +0.000 A 
ATOM     29  C   UNL     1       6.392   4.855  17.575  0.00  0.00    +0.000 A 
ENDBRANCH  23  24
ENDBRANCH   1  20
TORSDOF 4
ENDMDL
MODEL 3
REMARK VINA RESULT:      -8.2      0.888      1.881
REMARK  Name = 
REMARK  9 active torsions:
REMARK  status: ('A' for Active; 'I' for Inactive)
REMARK    1  A    between atoms: C_1  and  C_2
REMARK    2  A    between atoms: C_4  and  C_5
REMARK    3  A    between atoms: C_6  and  C_7
REMARK    4  A    between atoms: C_12  and  N_13
REMARK    5  A    between atoms: N_13  and  C_14
REMARK    6  A    between atoms: N_13  and  C_15
REMARK    7  A    between atoms: N_19  and  C_20
REMARK    8  A    between atoms: C_21  and  C_22
REMARK    9  A    between atoms: N_23  and  C_24
REMARK                            x       y       z     vdW  Elec       q    Type
REMARK                         _______ _______ _______ _____ _____    ______ ____
ROOT
ATOM      1  C   UNL     1       1.493   8.180  19.568  0.00  0.00    +0.000 C 
ATOM      2  C   UNL     1       1.136   8.692  20.756  0.00  0.00    +0.000 C 
ENDROOT
BRANCH   2   3
ATOM      3  C   UNL     1       0.248   9.861  20.861  0.00  0.00    +0.000 A 
ATOM      4  C   UNL     1      -0.021  10.596  19.711  0.00  0.00    +0.000 A 
ATOM      5  C   UNL     1      -0.882  11.676  19.773  0.00  0.00    +0.000 A 
ATOM      6  C   UNL     1      -1.514  11.990  20.975  0.00  0.00    +0.000 A 
ATOM      7  C   UNL     1      -2.431  13.063  21.033  0.00  0.00    +0.000 A 
ATOM      8  C   UNL     1      -3.120  13.417  22.203  0.00  0.00    +0.000 A 
ATOM      9  C   UNL     1      -2.853  12.626  23.324  0.00  0.00    +0.000 A 
ATOM     10  C   UNL     1      -1.943  11.555  23.295  0.00  0.00    +0.000 A 
ATOM     11  C   UNL     1      -1.235  11.223  22.132  0.00  0.00    +0.000 A 
ATOM     12  N   UNL     1      -0.313  10.206  22.059  0.00  0.00    +0.000 N 
ATOM     13  C   UNL     1       0.129   9.470  23.270  0.00  0.00    +0.000 C 
BRANCH   8  14
ATOM     14  N   UNL     1      -4.012  14.469  22.248  0.00  0.00    +0.000 N 
ATOM     15  C   UNL     1      -4.030  15.534  21.244  0.00  0.00    +0.000 C 
ATOM     16  C   UNL     1      -5.021  14.614  23.298  0.00  0.00    +0.000 C 
ENDBRANCH   8  14
ENDBRANCH   2   3
BRANCH   1  20
ATOM     17  C   UNL     1       3.467   3.552  20.059  0.00  0.00    +0.000 C 
ATOM     18  C   UNL     1       3.166   4.921  19.542  0.00  0.00    +0.000 A 
ATOM     19  C   UNL     1       2.207   5.779  20.046  0.00  0.00    +0.000 A 
ATOM     20  C   UNL     1       2.305   7.011  19.373  0.00  0.00    +0.000 A 
ATOM     21  C   UNL     1       3.316   6.885  18.427  0.00  0.00    +0.000 A 
ATOM     22  C   UNL     1       3.722   7.867  17.369  0.00  0.00    +0.000 C 
ATOM     23  N   UNL     1       3.876   5.592  18.538  0.00  0.00    +0.000 N 
BRANCH  23  24
ATOM     24  C   UNL     1       4.949   5.057  17.740  0.00  0.00    +0.000 A 
ATOM     25  C   UNL     1       6.284   5.179  18.152  0.00  0.00    +0.000 A 
ATOM     26  C   UNL     1       7.335   4.744  17.339  0.00  0.00    +0.000 A 
ATOM     27  C   UNL     1       7.067   4.122  16.126  0.00  0.00    +0.000 A 
ATOM     28  C   UNL     1       5.747   3.944  15.724  0.00  0.00    +0.000 A 
ATOM     29  C   UNL     1       4.697   4.425  16.516  0.00  0.00    +0.000 A 
ENDBRANCH  23  24
ENDBRANCH   1  20
TORSDOF 4
ENDMDL
MODEL 4
REMARK VINA RESULT:      -7.9      1.679      2.773
REMARK  Name = 
REMARK  9 active torsions:
REMARK  status: ('A' for Active; 'I' for Inactive)
REMARK    1  A    between atoms: C_1  and  C_2
REMARK    2  A    between atoms: C_4  and  C_5
REMARK    3  A    between atoms: C_6  and  C_7
REMARK    4  A    between atoms: C_12  and  N_13
REMARK    5  A    between atoms: N_13  and  C_14
REMARK    6  A    between atoms: N_13  and  C_15
REMARK    7  A    between atoms: N_19  and  C_20
REMARK    8  A    between atoms: C_21  and  C_22
REMARK    9  A    between atoms: N_23  and  C_24
REMARK                            x       y       z     vdW  Elec       q    Type
REMARK                         _______ _______ _______ _____ _____    ______ ____
ROOT
ATOM      1  C   UNL     1       1.371   8.518  20.372  0.00  0.00    +0.000 C 
ATOM      2  C   UNL     1       0.352   9.276  19.939  0.00  0.00    +0.000 C 
ENDROOT
BRANCH   2   3
ATOM      3  C   UNL     1      -0.297  10.271  20.807  0.00  0.00    +0.000 A 
ATOM      4  C   UNL     1      -0.354  10.023  22.174  0.00  0.00    +0.000 A 
ATOM      5  C   UNL     1      -0.924  10.959  23.018  0.00  0.00    +0.000 A 
ATOM      6  C   UNL     1      -1.391  12.165  22.500  0.00  0.00    +0.000 A 
ATOM      7  C   UNL     1      -1.931  13.145  23.363  0.00  0.00    +0.000 A 
ATOM      8  C   UNL     1      -2.396  14.389  22.911  0.00  0.00    +0.000 A 
ATOM      9  C   UNL     1      -2.280  14.615  21.536  0.00  0.00    +0.000 A 
ATOM     10  C   UNL     1      -1.750  13.657  20.655  0.00  0.00    +0.000 A 
ATOM     11  C   UNL     1      -1.314  12.403  21.106  0.00  0.00    +0.000 A 
ATOM     12  N   UNL     1      -0.817  11.422  20.282  0.00  0.00    +0.000 N 
ATOM     13  C   UNL     1      -0.853  11.556  18.804  0.00  0.00    +0.000 C 
BRANCH   8  14
ATOM     14  N   UNL     1      -2.923  15.337  23.763  0.00  0.00    +0.000 N 
ATOM     15  C   UNL     1      -3.631  16.525  23.284  0.00  0.00    +0.000 C 
ATOM     16  C   UNL     1      -2.826  15.241  25.220  0.00  0.00    +0.000 C 
ENDBRANCH   8  14
ENDBRANCH   2   3
BRANCH   1  20
ATOM     17  C   UNL     1       4.356   6.474  16.841  0.00  0.00    +0.000 C 
ATOM     18  C   UNL     1       3.477   6.637  18.038  0.00  0.00    +0.000 A 
ATOM     19  C   UNL     1       2.974   7.834  18.510  0.00  0.00    +0.000 A 
ATOM     20  C   UNL     1       2.099   7.566  19.580  0.00  0.00    +0.000 A 
ATOM     21  C   UNL     1       2.099   6.189  19.777  0.00  0.00    +0.000 A 
ATOM     22  C   UNL     1       1.435   5.411  20.874  0.00  0.00    +0.000 C 
ATOM     23  N   UNL     1       2.938   5.597  18.806  0.00  0.00    +0.000 N 
BRANCH  23  24
ATOM     24  C   UNL     1       3.213   4.190  18.662  0.00  0.00    +0.000 A 
ATOM     25  C   UNL     1       2.500   3.407  17.743  0.00  0.00    +0.000 A 
ATOM     26  C   UNL     1       2.698   2.024  17.664  0.00  0.00    +0.000 A 
ATOM     27  C   UNL     1       3.658   1.411  18.460  0.00  0.00    +0.000 A 
ATOM     28  C   UNL     1       4.412   2.180  19.340  0.00  0.00    +0.000 A 
ATOM     29  C   UNL     1       4.178   3.556  19.454  0.00  0.00    +0.000 A 
ENDBRANCH  23  24
ENDBRANCH   1  20
TORSDOF 4
ENDMDL
MODEL 5
REMARK VINA RESULT:      -7.9      1.904      3.030
REMARK  Name = 
REMARK  9 active torsions:
REMARK  status: ('A' for Active; 'I' for Inactive)
REMARK    1  A    between atoms: C_1  and  C_2
REMARK    2  A    between atoms: C_4  and  C_5
REMARK    3  A    between atoms: C_6  and  C_7
REMARK    4  A    between atoms: C_12  and  N_13
REMARK    5  A    between atoms: N_13  and  C_14
REMARK    6  A    between atoms: N_13  and  C_15
REMARK    7  A    between atoms: N_19  and  C_20
REMARK    8  A    between atoms: C_21  and  C_22
REMARK    9  A    between atoms: N_23  and  C_24
REMARK                            x       y       z     vdW  Elec       q    Type
REMARK                         _______ _______ _______ _____ _____    ______ ____
ROOT
ATOM      1  C   UNL     1       1.369   8.532  20.292  0.00  0.00    +0.000 C 
ATOM      2  C   UNL     1       1.154   9.810  19.946  0.00  0.00    +0.000 C 
ENDROOT
BRANCH   2   3
ATOM      3  C   UNL     1       0.443  10.744  20.834  0.00  0.00    +0.000 A 
ATOM      4  C   UNL     1      -0.454  10.226  21.761  0.00  0.00    +0.000 A 
ATOM      5  C   UNL     1      -1.106  11.077  22.634  0.00  0.00    +0.000 A 
ATOM      6  C   UNL     1      -0.824  12.442  22.613  0.00  0.00    +0.000 A 
ATOM      7  C   UNL     1      -1.452  13.310  23.533  0.00  0.00    +0.000 A 
ATOM      8  C   UNL     1      -1.195  14.688  23.582  0.00  0.00    +0.000 A 
ATOM      9  C   UNL     1      -0.255  15.160  22.662  0.00  0.00    +0.000 A 
ATOM     10  C   UNL     1       0.382  14.320  21.733  0.00  0.00    +0.000 A 
ATOM     11  C   UNL     1       0.100  12.948  21.667  0.00  0.00    +0.000 A 
ATOM     12  N   UNL     1       0.672  12.090  20.759  0.00  0.00    +0.000 N 
ATOM     13  C   UNL     1       1.529  12.588  19.653  0.00  0.00    +0.000 C 
BRANCH   8  14
ATOM     14  N   UNL     1      -1.816  15.526  24.485  0.00  0.00    +0.000 N 
ATOM     15  C   UNL     1      -1.380  15.652  25.877  0.00  0.00    +0.000 C 
ATOM     16  C   UNL     1      -2.962  16.366  24.135  0.00  0.00    +0.000 C 
ENDBRANCH   8  14
ENDBRANCH   2   3
BRANCH   1  20
ATOM     17  C   UNL     1       4.362   6.437  16.797  0.00  0.00    +0.000 C 
ATOM     18  C   UNL     1       3.482   6.618  17.991  0.00  0.00    +0.000 A 
ATOM     19  C   UNL     1       2.975   7.822  18.443  0.00  0.00    +0.000 A 
ATOM     20  C   UNL     1       2.101   7.569  19.516  0.00  0.00    +0.000 A 
ATOM     21  C   UNL     1       2.104   6.196  19.736  0.00  0.00    +0.000 A 
ATOM     22  C   UNL     1       1.442   5.435  20.846  0.00  0.00    +0.000 C 
ATOM     23  N   UNL     1       2.945   5.589  18.776  0.00  0.00    +0.000 N 
BRANCH  23  24
ATOM     24  C   UNL     1       3.224   4.181  18.656  0.00  0.00    +0.000 A 
ATOM     25  C   UNL     1       2.514   3.381  17.750  0.00  0.00    +0.000 A 
ATOM     26  C   UNL     1       2.715   1.998  17.695  0.00  0.00    +0.000 A 
ATOM     27  C   UNL     1       3.677   1.400  18.501  0.00  0.00    +0.000 A 
ATOM     28  C   UNL     1       4.428   2.186  19.368  0.00  0.00    +0.000 A 
ATOM     29  C   UNL     1       4.191   3.563  19.459  0.00  0.00    +0.000 A 
ENDBRANCH  23  24
ENDBRANCH   1  20
TORSDOF 4
ENDMDL
MODEL 6
REMARK VINA RESULT:      -7.9      1.276      3.047
REMARK  Name = 
REMARK  9 active torsions:
REMARK  status: ('A' for Active; 'I' for Inactive)
REMARK    1  A    between atoms: C_1  and  C_2
REMARK    2  A    between atoms: C_4  and  C_5
REMARK    3  A    between atoms: C_6  and  C_7
REMARK    4  A    between atoms: C_12  and  N_13
REMARK    5  A    between atoms: N_13  and  C_14
REMARK    6  A    between atoms: N_13  and  C_15
REMARK    7  A    between atoms: N_19  and  C_20
REMARK    8  A    between atoms: C_21  and  C_22
REMARK    9  A    between atoms: N_23  and  C_24
REMARK                            x       y       z     vdW  Elec       q    Type
REMARK                         _______ _______ _______ _____ _____    ______ ____
ROOT
ATOM      1  C   UNL     1       1.659   8.681  18.760  0.00  0.00    +0.000 C 
ATOM      2  C   UNL     1       1.305   8.978  20.020  0.00  0.00    +0.000 C 
ENDROOT
BRANCH   2   3
ATOM      3  C   UNL     1       0.399  10.097  20.326  0.00  0.00    +0.000 A 
ATOM      4  C   UNL     1       0.027  10.952  19.294  0.00  0.00    +0.000 A 
ATOM      5  C   UNL     1      -0.854  11.988  19.546  0.00  0.00    +0.000 A 
ATOM      6  C   UNL     1      -1.401  12.138  20.819  0.00  0.00    +0.000 A 
ATOM      7  C   UNL     1      -2.338  13.166  21.071  0.00  0.00    +0.000 A 
ATOM      8  C   UNL     1      -2.945  13.357  22.321  0.00  0.00    +0.000 A 
ATOM      9  C   UNL     1      -2.575  12.450  23.318  0.00  0.00    +0.000 A 
ATOM     10  C   UNL     1      -1.644  11.421  23.096  0.00  0.00    +0.000 A 
ATOM     11  C   UNL     1      -1.017  11.251  21.854  0.00  0.00    +0.000 A 
ATOM     12  N   UNL     1      -0.078  10.281  21.594  0.00  0.00    +0.000 N 
ATOM     13  C   UNL     1       0.472   9.424  22.674  0.00  0.00    +0.000 C 
BRANCH   8  14
ATOM     14  N   UNL     1      -3.857  14.366  22.555  0.00  0.00    +0.000 N 
ATOM     15  C   UNL     1      -3.735  15.696  21.956  0.00  0.00    +0.000 C 
ATOM     16  C   UNL     1      -5.028  14.198  23.416  0.00  0.00    +0.000 C 
ENDBRANCH   8  14
ENDBRANCH   2   3
BRANCH   1  20
ATOM     17  C   UNL     1       5.210   5.906  16.469  0.00  0.00    +0.000 C 
ATOM     18  C   UNL     1       4.110   6.330  17.388  0.00  0.00    +0.000 A 
ATOM     19  C   UNL     1       3.579   7.602  17.474  0.00  0.00    +0.000 A 
ATOM     20  C   UNL     1       2.489   7.577  18.365  0.00  0.00    +0.000 A 
ATOM     21  C   UNL     1       2.381   6.277  18.847  0.00  0.00    +0.000 A 
ATOM     22  C   UNL     1       1.467   5.760  19.918  0.00  0.00    +0.000 C 
ATOM     23  N   UNL     1       3.373   5.484  18.227  0.00  0.00    +0.000 N 
BRANCH  23  24
ATOM     24  C   UNL     1       3.604   4.080  18.450  0.00  0.00    +0.000 A 
ATOM     25  C   UNL     1       3.065   3.116  17.586  0.00  0.00    +0.000 A 
ATOM     26  C   UNL     1       3.207   1.749  17.849  0.00  0.00    +0.000 A 
ATOM     27  C   UNL     1       3.945   1.323  18.947  0.00  0.00    +0.000 A 
ATOM     28  C   UNL     1       4.531   2.265  19.786  0.00  0.00    +0.000 A 
ATOM     29  C   UNL     1       4.346   3.633  19.550  0.00  0.00    +0.000 A 
ENDBRANCH  23  24
ENDBRANCH   1  20
TORSDOF 4
ENDMDL
MODEL 7
REMARK VINA RESULT:      -7.7      1.820      2.753
REMARK  Name = 
REMARK  9 active torsions:
REMARK  status: ('A' for Active; 'I' for Inactive)
REMARK    1  A    between atoms: C_1  and  C_2
REMARK    2  A    between atoms: C_4  and  C_5
REMARK    3  A    between atoms: C_6  and  C_7
REMARK    4  A    between atoms: C_12  and  N_13
REMARK    5  A    between atoms: N_13  and  C_14
REMARK    6  A    between atoms: N_13  and  C_15
REMARK    7  A    between atoms: N_19  and  C_20
REMARK    8  A    between atoms: C_21  and  C_22
REMARK    9  A    between atoms: N_23  and  C_24
REMARK                            x       y       z     vdW  Elec       q    Type
REMARK                         _______ _______ _______ _____ _____    ______ ____
ROOT
ATOM      1  C   UNL     1       1.425   8.548  20.380  0.00  0.00    +0.000 C 
ATOM      2  C   UNL     1       0.791   9.629  19.898  0.00  0.00    +0.000 C 
ENDROOT
BRANCH   2   3
ATOM      3  C   UNL     1       0.156  10.614  20.788  0.00  0.00    +0.000 A 
ATOM      4  C   UNL     1      -0.379  10.173  21.993  0.00  0.00    +0.000 A 
ATOM      5  C   UNL     1      -0.947  11.084  22.865  0.00  0.00    +0.000 A 
ATOM      6  C   UNL     1      -0.935  12.442  22.553  0.00  0.00    +0.000 A 
ATOM      7  C   UNL     1      -1.473  13.382  23.461  0.00  0.00    +0.000 A 
ATOM      8  C   UNL     1      -1.471  14.764  23.220  0.00  0.00    +0.000 A 
ATOM      9  C   UNL     1      -0.886  15.168  22.017  0.00  0.00    +0.000 A 
ATOM     10  C   UNL     1      -0.348  14.254  21.094  0.00  0.00    +0.000 A 
ATOM     11  C   UNL     1      -0.378  12.871  21.324  0.00  0.00    +0.000 A 
ATOM     12  N   UNL     1       0.107  11.936  20.442  0.00  0.00    +0.000 N 
ATOM     13  C   UNL     1       0.563  12.315  19.081  0.00  0.00    +0.000 C 
BRANCH   8  14
ATOM     14  N   UNL     1      -2.000  15.672  24.114  0.00  0.00    +0.000 N 
ATOM     15  C   UNL     1      -3.059  15.323  25.063  0.00  0.00    +0.000 C 
ATOM     16  C   UNL     1      -1.550  17.062  24.199  0.00  0.00    +0.000 C 
ENDBRANCH   8  14
ENDBRANCH   2   3
BRANCH   1  20
ATOM     17  C   UNL     1       4.323   6.385  16.847  0.00  0.00    +0.000 C 
ATOM     18  C   UNL     1       3.459   6.585  18.050  0.00  0.00    +0.000 A 
ATOM     19  C   UNL     1       2.993   7.801  18.513  0.00  0.00    +0.000 A 
ATOM     20  C   UNL     1       2.120   7.568  19.592  0.00  0.00    +0.000 A 
ATOM     21  C   UNL     1       2.083   6.194  19.804  0.00  0.00    +0.000 A 
ATOM     22  C   UNL     1       1.408   5.447  20.915  0.00  0.00    +0.000 C 
ATOM     23  N   UNL     1       2.898   5.568  18.833  0.00  0.00    +0.000 N 
BRANCH  23  24
ATOM     24  C   UNL     1       3.133   4.153  18.702  0.00  0.00    +0.000 A 
ATOM     25  C   UNL     1       4.107   3.510  19.479  0.00  0.00    +0.000 A 
ATOM     26  C   UNL     1       4.403   2.156  19.292  0.00  0.00    +0.000 A 
ATOM     27  C   UNL     1       3.687   1.407  18.366  0.00  0.00    +0.000 A 
ATOM     28  C   UNL     1       2.681   2.015  17.624  0.00  0.00    +0.000 A 
ATOM     29  C   UNL     1       2.418   3.382  17.776  0.00  0.00    +0.000 A 
ENDBRANCH  23  24
ENDBRANCH   1  20
TORSDOF 4
ENDMDL
MODEL 8
REMARK VINA RESULT:      -7.7      3.247     10.505
REMARK  Name = 
REMARK  9 active torsions:
REMARK  status: ('A' for Active; 'I' for Inactive)
REMARK    1  A    between atoms: C_1  and  C_2
REMARK    2  A    between atoms: C_4  and  C_5
REMARK    3  A    between atoms: C_6  and  C_7
REMARK    4  A    between atoms: C_12  and  N_13
REMARK    5  A    between atoms: N_13  and  C_14
REMARK    6  A    between atoms: N_13  and  C_15
REMARK    7  A    between atoms: N_19  and  C_20
REMARK    8  A    between atoms: C_21  and  C_22
REMARK    9  A    between atoms: N_23  and  C_24
REMARK                            x       y       z     vdW  Elec       q    Type
REMARK                         _______ _______ _______ _____ _____    ______ ____
ROOT
ATOM      1  C   UNL     1       2.023  11.732  18.490  0.00  0.00    +0.000 C 
ATOM      2  C   UNL     1       1.388  10.743  19.138  0.00  0.00    +0.000 C 
ENDROOT
BRANCH   2   3
ATOM      3  C   UNL     1       1.729   9.328  18.916  0.00  0.00    +0.000 A 
ATOM      4  C   UNL     1       2.313   8.968  17.706  0.00  0.00    +0.000 A 
ATOM      5  C   UNL     1       2.678   7.653  17.486  0.00  0.00    +0.000 A 
ATOM      6  C   UNL     1       2.505   6.707  18.496  0.00  0.00    +0.000 A 
ATOM      7  C   UNL     1       2.919   5.372  18.293  0.00  0.00    +0.000 A 
ATOM      8  C   UNL     1       2.797   4.377  19.275  0.00  0.00    +0.000 A 
ATOM      9  C   UNL     1       2.245   4.791  20.490  0.00  0.00    +0.000 A 
ATOM     10  C   UNL     1       1.821   6.112  20.717  0.00  0.00    +0.000 A 
ATOM     11  C   UNL     1       1.917   7.097  19.723  0.00  0.00    +0.000 A 
ATOM     12  N   UNL     1       1.490   8.393  19.884  0.00  0.00    +0.000 N 
ATOM     13  C   UNL     1       0.734   8.818  21.089  0.00  0.00    +0.000 C 
BRANCH   8  14
ATOM     14  N   UNL     1       3.204   3.075  19.065  0.00  0.00    +0.000 N 
ATOM     15  C   UNL     1       2.603   2.214  18.045  0.00  0.00    +0.000 C 
ATOM     16  C   UNL     1       4.272   2.440  19.838  0.00  0.00    +0.000 C 
ENDBRANCH   8  14
ENDBRANCH   2   3
BRANCH   1  20
ATOM     17  C   UNL     1       2.777  16.650  19.391  0.00  0.00    +0.000 C 
ATOM     18  C   UNL     1       2.124  15.354  19.033  0.00  0.00    +0.000 A 
ATOM     19  C   UNL     1       2.764  14.134  18.921  0.00  0.00    +0.000 A 
ATOM     20  C   UNL     1       1.797  13.138  18.686  0.00  0.00    +0.000 A 
ATOM     21  C   UNL     1       0.560  13.769  18.624  0.00  0.00    +0.000 A 
ATOM     22  C   UNL     1      -0.767  13.171  18.265  0.00  0.00    +0.000 C 
ATOM     23  N   UNL     1       0.749  15.150  18.862  0.00  0.00    +0.000 N 
BRANCH  23  24
ATOM     24  C   UNL     1      -0.280  16.158  18.885  0.00  0.00    +0.000 A 
ATOM     25  C   UNL     1      -0.401  17.086  17.841  0.00  0.00    +0.000 A 
ATOM     26  C   UNL     1      -1.337  18.124  17.901  0.00  0.00    +0.000 A 
ATOM     27  C   UNL     1      -2.211  18.214  18.978  0.00  0.00    +0.000 A 
ATOM     28  C   UNL     1      -2.140  17.271  19.998  0.00  0.00    +0.000 A 
ATOM     29  C   UNL     1      -1.170  16.262  19.961  0.00  0.00    +0.000 A 
ENDBRANCH  23  24
ENDBRANCH   1  20
TORSDOF 4
ENDMDL
MODEL 9
REMARK VINA RESULT:      -7.6      1.046      2.236
REMARK  Name = 
REMARK  9 active torsions:
REMARK  status: ('A' for Active; 'I' for Inactive)
REMARK    1  A    between atoms: C_1  and  C_2
REMARK    2  A    between atoms: C_4  and  C_5
REMARK    3  A    between atoms: C_6  and  C_7
REMARK    4  A    between atoms: C_12  and  N_13
REMARK    5  A    between atoms: N_13  and  C_14
REMARK    6  A    between atoms: N_13  and  C_15
REMARK    7  A    between atoms: N_19  and  C_20
REMARK    8  A    between atoms: C_21  and  C_22
REMARK    9  A    between atoms: N_23  and  C_24
REMARK                            x       y       z     vdW  Elec       q    Type
REMARK                         _______ _______ _______ _____ _____    ______ ____
ROOT
ATOM      1  C   UNL     1       1.164   8.521  19.837  0.00  0.00    +0.000 C 
ATOM      2  C   UNL     1       1.116   9.269  20.949  0.00  0.00    +0.000 C 
ENDROOT
BRANCH   2   3
ATOM      3  C   UNL     1       0.194  10.410  21.076  0.00  0.00    +0.000 A 
ATOM      4  C   UNL     1       0.077  11.291  20.007  0.00  0.00    +0.000 A 
ATOM      5  C   UNL     1      -0.810  12.349  20.084  0.00  0.00    +0.000 A 
ATOM      6  C   UNL     1      -1.615  12.497  21.212  0.00  0.00    +0.000 A 
ATOM      7  C   UNL     1      -2.556  13.549  21.277  0.00  0.00    +0.000 A 
ATOM      8  C   UNL     1      -3.414  13.740  22.371  0.00  0.00    +0.000 A 
ATOM      9  C   UNL     1      -3.293  12.808  23.405  0.00  0.00    +0.000 A 
ATOM     10  C   UNL     1      -2.363  11.754  23.368  0.00  0.00    +0.000 A 
ATOM     11  C   UNL     1      -1.487  11.584  22.286  0.00  0.00    +0.000 A 
ATOM     12  N   UNL     1      -0.541  10.590  22.215  0.00  0.00    +0.000 N 
ATOM     13  C   UNL     1      -0.260   9.700  23.370  0.00  0.00    +0.000 C 
BRANCH   8  14
ATOM     14  N   UNL     1      -4.328  14.773  22.424  0.00  0.00    +0.000 N 
ATOM     15  C   UNL     1      -4.007  16.085  22.989  0.00  0.00    +0.000 C 
ATOM     16  C   UNL     1      -5.696  14.653  21.918  0.00  0.00    +0.000 C 
ENDBRANCH   8  14
ENDBRANCH   2   3
BRANCH   1  20
ATOM     17  C   UNL     1       3.220   3.935  20.388  0.00  0.00    +0.000 C 
ATOM     18  C   UNL     1       2.882   5.286  19.844  0.00  0.00    +0.000 A 
ATOM     19  C   UNL     1       1.928   6.144  20.356  0.00  0.00    +0.000 A 
ATOM     20  C   UNL     1       1.987   7.359  19.647  0.00  0.00    +0.000 A 
ATOM     21  C   UNL     1       2.969   7.221  18.673  0.00  0.00    +0.000 A 
ATOM     22  C   UNL     1       3.327   8.179  17.577  0.00  0.00    +0.000 C 
ATOM     23  N   UNL     1       3.551   5.939  18.801  0.00  0.00    +0.000 N 
BRANCH  23  24
ATOM     24  C   UNL     1       4.607   5.397  17.984  0.00  0.00    +0.000 A 
ATOM     25  C   UNL     1       4.316   4.650  16.833  0.00  0.00    +0.000 A 
ATOM     26  C   UNL     1       5.333   4.044  16.088  0.00  0.00    +0.000 A 
ATOM     27  C   UNL     1       6.663   4.227  16.446  0.00  0.00    +0.000 A 
ATOM     28  C   UNL     1       6.974   5.009  17.554  0.00  0.00    +0.000 A 
ATOM     29  C   UNL     1       5.953   5.574  18.328  0.00  0.00    +0.000 A 
ENDBRANCH  23  24
ENDBRANCH   1  20
TORSDOF 4
ENDMDL
