MODEL 1
REMARK VINA RESULT:      -7.1      0.000      0.000
REMARK  Name = 
REMARK  14 active torsions:
REMARK  status: ('A' for Active; 'I' for Inactive)
REMARK    1  A    between atoms: C_1  and  C_2
REMARK    2  A    between atoms: C_5  and  C_6
REMARK    3  A    between atoms: C_6  and  C_7
REMARK    4  A    between atoms: C_7  and  C_8
REMARK    5  A    between atoms: C_8  and  C_9
REMARK    6  A    between atoms: C_9  and  C_11
REMARK    7  A    between atoms: C_14  and  C_15
REMARK    8  A    between atoms: C_15  and  O_16
REMARK    9  A    between atoms: O_16  and  C_17
REMARK   10  A    between atoms: C_17  and  C_18
REMARK   11  A    between atoms: C_18  and  C_19
REMARK   12  A    between atoms: C_18  and  N_20
REMARK   13  A    between atoms: C_18  and  C_21
REMARK   14  A    between atoms: C_21  and  O_22
REMARK                            x       y       z     vdW  Elec       q    Type
REMARK                         _______ _______ _______ _____ _____    ______ ____
ROOT
ATOM      1  C   UNL     1       2.009   6.273  19.783  0.00  0.00    +0.000 A 
ATOM      2  C   UNL     1       1.544   7.251  20.671  0.00  0.00    +0.000 A 
ATOM      3  C   UNL     1       1.419   8.586  20.256  0.00  0.00    +0.000 A 
ATOM      4  C   UNL     1       1.766   8.982  18.952  0.00  0.00    +0.000 A 
ATOM      5  C   UNL     1       2.183   7.990  18.055  0.00  0.00    +0.000 A 
ATOM      6  C   UNL     1       2.307   6.654  18.466  0.00  0.00    +0.000 A 
ENDROOT
BRANCH   1   7
ATOM      7  C   UNL     1       2.207   4.832  20.172  0.00  0.00    +0.000 C 
ATOM      8  O   UNL     1       2.522   4.566  21.331  0.00  0.00    +0.000 OA
BRANCH   7   9
ATOM      9  C   UNL     1       2.047   3.741  19.120  0.00  0.00    +0.000 C 
BRANCH   9  10
ATOM     10  C   UNL     1       3.323   2.929  18.843  0.00  0.00    +0.000 C 
BRANCH  10  11
ATOM     11  C   UNL     1       3.952   3.202  17.469  0.00  0.00    +0.000 C 
BRANCH  11  16
ATOM     12  C   UNL     1       7.653   7.723  17.568  0.00  0.00    +0.000 C 
ATOM     13  C   UNL     1       6.699   6.565  17.540  0.00  0.00    +0.000 A 
ATOM     14  C   UNL     1       5.880   6.333  16.430  0.00  0.00    +0.000 A 
ATOM     15  C   UNL     1       4.993   5.250  16.414  0.00  0.00    +0.000 A 
ATOM     16  C   UNL     1       4.902   4.382  17.508  0.00  0.00    +0.000 A 
ATOM     17  C   UNL     1       5.725   4.613  18.617  0.00  0.00    +0.000 A 
ATOM     18  C   UNL     1       6.613   5.696  18.633  0.00  0.00    +0.000 A 
ENDBRANCH  11  16
ENDBRANCH  10  11
ENDBRANCH   9  10
ENDBRANCH   7   9
ENDBRANCH   1   7
BRANCH   4  19
ATOM     19  C   UNL     1       1.629  10.418  18.488  0.00  0.00    +0.000 C 
BRANCH  19  20
ATOM     20  O   UNL     1       0.418  10.989  18.986  0.00  0.00    +0.000 OA
BRANCH  20  21
ATOM     21  C   UNL     1      -0.745  10.412  18.378  0.00  0.00    +0.000 C 
BRANCH  21  22
ATOM     22  C   UNL     1      -1.776  11.522  18.030  0.00  0.00    +0.000 C 
ATOM     23  C   UNL     1      -2.495  11.997  19.301  0.00  0.00    +0.000 C 
BRANCH  22  24
ATOM     24  N   UNL     1      -1.082  12.680  17.405  0.00  0.00    +0.000 NA
ATOM     25  H   UNL     1      -0.213  12.860  17.911  0.00  0.00    +0.000 HD
ATOM     26  H   UNL     1      -1.647  13.520  17.545  0.00  0.00    +0.000 HD
ENDBRANCH  22  24
BRANCH  22  27
ATOM     27  C   UNL     1      -2.821  10.984  17.019  0.00  0.00    +0.000 C 
BRANCH  27  28
ATOM     28  O   UNL     1      -2.535  11.450  15.699  0.00  0.00    +0.000 OA
ATOM     29  H   UNL     1      -3.412  11.578  15.284  0.00  0.00    +0.000 HD
ENDBRANCH  27  28
ENDBRANCH  22  27
ENDBRANCH  21  22
ENDBRANCH  20  21
ENDBRANCH  19  20
ENDBRANCH   4  19
TORSDOF 12
ENDMDL
MODEL 2
REMARK VINA RESULT:      -6.9      1.381      2.044
REMARK  Name = 
REMARK  14 active torsions:
REMARK  status: ('A' for Active; 'I' for Inactive)
REMARK    1  A    between atoms: C_1  and  C_2
REMARK    2  A    between atoms: C_5  and  C_6
REMARK    3  A    between atoms: C_6  and  C_7
REMARK    4  A    between atoms: C_7  and  C_8
REMARK    5  A    between atoms: C_8  and  C_9
REMARK    6  A    between atoms: C_9  and  C_11
REMARK    7  A    between atoms: C_14  and  C_15
REMARK    8  A    between atoms: C_15  and  O_16
REMARK    9  A    between atoms: O_16  and  C_17
REMARK   10  A    between atoms: C_17  and  C_18
REMARK   11  A    between atoms: C_18  and  C_19
REMARK   12  A    between atoms: C_18  and  N_20
REMARK   13  A    between atoms: C_18  and  C_21
REMARK   14  A    between atoms: C_21  and  O_22
REMARK                            x       y       z     vdW  Elec       q    Type
REMARK                         _______ _______ _______ _____ _____    ______ ____
ROOT
ATOM      1  C   UNL     1       2.001   6.215  19.717  0.00  0.00    +0.000 A 
ATOM      2  C   UNL     1       2.497   6.549  18.451  0.00  0.00    +0.000 A 
ATOM      3  C   UNL     1       2.421   7.870  17.983  0.00  0.00    +0.000 A 
ATOM      4  C   UNL     1       1.838   8.887  18.758  0.00  0.00    +0.000 A 
ATOM      5  C   UNL     1       1.388   8.556  20.043  0.00  0.00    +0.000 A 
ATOM      6  C   UNL     1       1.466   7.237  20.516  0.00  0.00    +0.000 A 
ENDROOT
BRANCH   1   7
ATOM      7  C   UNL     1       2.013   4.813  20.265  0.00  0.00    +0.000 C 
ATOM      8  O   UNL     1       2.300   4.638  21.448  0.00  0.00    +0.000 OA
BRANCH   7   9
ATOM      9  C   UNL     1       1.702   3.642  19.339  0.00  0.00    +0.000 C 
BRANCH   9  10
ATOM     10  C   UNL     1       2.769   2.535  19.330  0.00  0.00    +0.000 C 
BRANCH  10  11
ATOM     11  C   UNL     1       3.567   2.446  18.022  0.00  0.00    +0.000 C 
BRANCH  11  16
ATOM     12  C   UNL     1       7.138   7.031  17.403  0.00  0.00    +0.000 C 
ATOM     13  C   UNL     1       6.224   5.851  17.566  0.00  0.00    +0.000 A 
ATOM     14  C   UNL     1       6.092   5.207  18.801  0.00  0.00    +0.000 A 
ATOM     15  C   UNL     1       5.238   4.107  18.941  0.00  0.00    +0.000 A 
ATOM     16  C   UNL     1       4.504   3.625  17.851  0.00  0.00    +0.000 A 
ATOM     17  C   UNL     1       4.634   4.273  16.616  0.00  0.00    +0.000 A 
ATOM     18  C   UNL     1       5.488   5.375  16.476  0.00  0.00    +0.000 A 
ENDBRANCH  11  16
ENDBRANCH  10  11
ENDBRANCH   9  10
ENDBRANCH   7   9
ENDBRANCH   1   7
BRANCH   4  19
ATOM     19  C   UNL     1       1.755  10.319  18.269  0.00  0.00    +0.000 C 
BRANCH  19  20
ATOM     20  O   UNL     1       0.630  10.980  18.851  0.00  0.00    +0.000 OA
BRANCH  20  21
ATOM     21  C   UNL     1       0.872  12.375  19.070  0.00  0.00    +0.000 C 
BRANCH  21  22
ATOM     22  C   UNL     1      -0.425  13.193  18.811  0.00  0.00    +0.000 C 
ATOM     23  C   UNL     1      -0.109  14.696  18.786  0.00  0.00    +0.000 C 
BRANCH  22  24
ATOM     24  N   UNL     1      -1.019  12.801  17.505  0.00  0.00    +0.000 NA
ATOM     25  H   UNL     1      -1.384  13.635  17.041  0.00  0.00    +0.000 HD
ATOM     26  H   UNL     1      -1.839  12.215  17.677  0.00  0.00    +0.000 HD
ENDBRANCH  22  24
BRANCH  22  27
ATOM     27  C   UNL     1      -1.469  12.906  19.921  0.00  0.00    +0.000 C 
BRANCH  27  28
ATOM     28  O   UNL     1      -2.223  11.732  19.615  0.00  0.00    +0.000 OA
ATOM     29  H   UNL     1      -2.323  11.269  20.471  0.00  0.00    +0.000 HD
ENDBRANCH  27  28
ENDBRANCH  22  27
ENDBRANCH  21  22
ENDBRANCH  20  21
ENDBRANCH  19  20
ENDBRANCH   4  19
TORSDOF 12
ENDMDL
MODEL 3
REMARK VINA RESULT:      -6.9      3.341      8.477
REMARK  Name = 
REMARK  14 active torsions:
REMARK  status: ('A' for Active; 'I' for Inactive)
REMARK    1  A    between atoms: C_1  and  C_2
REMARK    2  A    between atoms: C_5  and  C_6
REMARK    3  A    between atoms: C_6  and  C_7
REMARK    4  A    between atoms: C_7  and  C_8
REMARK    5  A    between atoms: C_8  and  C_9
REMARK    6  A    between atoms: C_9  and  C_11
REMARK    7  A    between atoms: C_14  and  C_15
REMARK    8  A    between atoms: C_15  and  O_16
REMARK    9  A    between atoms: O_16  and  C_17
REMARK   10  A    between atoms: C_17  and  C_18
REMARK   11  A    between atoms: C_18  and  C_19
REMARK   12  A    between atoms: C_18  and  N_20
REMARK   13  A    between atoms: C_18  and  C_21
REMARK   14  A    between atoms: C_21  and  O_22
REMARK                            x       y       z     vdW  Elec       q    Type
REMARK                         _______ _______ _______ _____ _____    ______ ____
ROOT
ATOM      1  C   UNL     1       1.660   7.442  20.385  0.00  0.00    +0.000 A 
ATOM      2  C   UNL     1       1.648   6.087  20.740  0.00  0.00    +0.000 A 
ATOM      3  C   UNL     1       2.085   5.110  19.831  0.00  0.00    +0.000 A 
ATOM      4  C   UNL     1       2.531   5.457  18.544  0.00  0.00    +0.000 A 
ATOM      5  C   UNL     1       2.587   6.817  18.214  0.00  0.00    +0.000 A 
ATOM      6  C   UNL     1       2.154   7.797  19.121  0.00  0.00    +0.000 A 
ENDROOT
BRANCH   1   7
ATOM      7  C   UNL     1       1.168   8.537  21.293  0.00  0.00    +0.000 C 
ATOM      8  O   UNL     1       1.834   8.833  22.284  0.00  0.00    +0.000 OA
BRANCH   7   9
ATOM      9  C   UNL     1      -0.154   9.230  20.986  0.00  0.00    +0.000 C 
BRANCH   9  10
ATOM     10  C   UNL     1      -0.015  10.598  20.298  0.00  0.00    +0.000 C 
BRANCH  10  11
ATOM     11  C   UNL     1      -1.348  11.328  20.081  0.00  0.00    +0.000 C 
BRANCH  11  16
ATOM     12  C   UNL     1      -3.704  10.114  14.873  0.00  0.00    +0.000 C 
ATOM     13  C   UNL     1      -3.101  10.431  16.211  0.00  0.00    +0.000 A 
ATOM     14  C   UNL     1      -3.741  11.298  17.103  0.00  0.00    +0.000 A 
ATOM     15  C   UNL     1      -3.169  11.587  18.348  0.00  0.00    +0.000 A 
ATOM     16  C   UNL     1      -1.945  11.022  18.723  0.00  0.00    +0.000 A 
ATOM     17  C   UNL     1      -1.307  10.152  17.830  0.00  0.00    +0.000 A 
ATOM     18  C   UNL     1      -1.879   9.862  16.585  0.00  0.00    +0.000 A 
ENDBRANCH  11  16
ENDBRANCH  10  11
ENDBRANCH   9  10
ENDBRANCH   7   9
ENDBRANCH   1   7
BRANCH   4  19
ATOM     19  C   UNL     1       3.012   4.414  17.556  0.00  0.00    +0.000 C 
BRANCH  19  20
ATOM     20  O   UNL     1       4.284   4.785  17.020  0.00  0.00    +0.000 OA
BRANCH  20  21
ATOM     21  C   UNL     1       5.370   4.340  17.842  0.00  0.00    +0.000 C 
BRANCH  21  22
ATOM     22  C   UNL     1       6.719   4.880  17.289  0.00  0.00    +0.000 C 
ATOM     23  C   UNL     1       6.722   6.416  17.302  0.00  0.00    +0.000 C 
BRANCH  22  24
ATOM     24  N   UNL     1       7.844   4.386  18.128  0.00  0.00    +0.000 NA
ATOM     25  H   UNL     1       8.678   4.941  17.925  0.00  0.00    +0.000 HD
ATOM     26  H   UNL     1       8.083   3.436  17.836  0.00  0.00    +0.000 HD
ENDBRANCH  22  24
BRANCH  22  27
ATOM     27  C   UNL     1       6.943   4.379  15.839  0.00  0.00    +0.000 C 
BRANCH  27  28
ATOM     28  O   UNL     1       6.116   3.246  15.562  0.00  0.00    +0.000 OA
ATOM     29  H   UNL     1       6.058   2.765  16.412  0.00  0.00    +0.000 HD
ENDBRANCH  27  28
ENDBRANCH  22  27
ENDBRANCH  21  22
ENDBRANCH  20  21
ENDBRANCH  19  20
ENDBRANCH   4  19
TORSDOF 12
ENDMDL
MODEL 4
REMARK VINA RESULT:      -6.8      1.818      2.633
REMARK  Name = 
REMARK  14 active torsions:
REMARK  status: ('A' for Active; 'I' for Inactive)
REMARK    1  A    between atoms: C_1  and  C_2
REMARK    2  A    between atoms: C_5  and  C_6
REMARK    3  A    between atoms: C_6  and  C_7
REMARK    4  A    between atoms: C_7  and  C_8
REMARK    5  A    between atoms: C_8  and  C_9
REMARK    6  A    between atoms: C_9  and  C_11
REMARK    7  A    between atoms: C_14  and  C_15
REMARK    8  A    between atoms: C_15  and  O_16
REMARK    9  A    between atoms: O_16  and  C_17
REMARK   10  A    between atoms: C_17  and  C_18
REMARK   11  A    between atoms: C_18  and  C_19
REMARK   12  A    between atoms: C_18  and  N_20
REMARK   13  A    between atoms: C_18  and  C_21
REMARK   14  A    between atoms: C_21  and  O_22
REMARK                            x       y       z     vdW  Elec       q    Type
REMARK                         _______ _______ _______ _____ _____    ______ ____
ROOT
ATOM      1  C   UNL     1       1.646   4.571  19.498  0.00  0.00    +0.000 A 
ATOM      2  C   UNL     1       2.008   5.586  20.393  0.00  0.00    +0.000 A 
ATOM      3  C   UNL     1       2.312   6.873  19.922  0.00  0.00    +0.000 A 
ATOM      4  C   UNL     1       2.275   7.177  18.550  0.00  0.00    +0.000 A 
ATOM      5  C   UNL     1       1.865   6.170  17.666  0.00  0.00    +0.000 A 
ATOM      6  C   UNL     1       1.557   4.883  18.134  0.00  0.00    +0.000 A 
ENDROOT
BRANCH   1   7
ATOM      7  C   UNL     1       1.348   3.159  19.929  0.00  0.00    +0.000 C 
ATOM      8  O   UNL     1       1.190   2.922  21.126  0.00  0.00    +0.000 OA
BRANCH   7   9
ATOM      9  C   UNL     1       1.283   2.053  18.883  0.00  0.00    +0.000 C 
BRANCH   9  10
ATOM     10  C   UNL     1       2.566   1.880  18.054  0.00  0.00    +0.000 C 
BRANCH  10  11
ATOM     11  C   UNL     1       3.860   2.097  18.852  0.00  0.00    +0.000 C 
BRANCH  11  16
ATOM     12  C   UNL     1       6.600   6.999  17.237  0.00  0.00    +0.000 C 
ATOM     13  C   UNL     1       5.900   5.739  17.656  0.00  0.00    +0.000 A 
ATOM     14  C   UNL     1       5.844   5.359  19.001  0.00  0.00    +0.000 A 
ATOM     15  C   UNL     1       5.189   4.181  19.381  0.00  0.00    +0.000 A 
ATOM     16  C   UNL     1       4.582   3.358  18.425  0.00  0.00    +0.000 A 
ATOM     17  C   UNL     1       4.637   3.741  17.079  0.00  0.00    +0.000 A 
ATOM     18  C   UNL     1       5.291   4.920  16.699  0.00  0.00    +0.000 A 
ENDBRANCH  11  16
ENDBRANCH  10  11
ENDBRANCH   9  10
ENDBRANCH   7   9
ENDBRANCH   1   7
BRANCH   4  19
ATOM     19  C   UNL     1       2.593   8.563  18.028  0.00  0.00    +0.000 C 
BRANCH  19  20
ATOM     20  O   UNL     1       1.395   9.327  17.879  0.00  0.00    +0.000 OA
BRANCH  20  21
ATOM     21  C   UNL     1       1.385  10.492  18.714  0.00  0.00    +0.000 C 
BRANCH  21  22
ATOM     22  C   UNL     1       0.053  10.571  19.511  0.00  0.00    +0.000 C 
ATOM     23  C   UNL     1      -1.144  10.390  18.565  0.00  0.00    +0.000 C 
BRANCH  22  24
ATOM     24  N   UNL     1       0.018   9.503  20.545  0.00  0.00    +0.000 NA
ATOM     25  H   UNL     1       0.973   9.200  20.744  0.00  0.00    +0.000 HD
ATOM     26  H   UNL     1      -0.443   8.678  20.154  0.00  0.00    +0.000 HD
ENDBRANCH  22  24
BRANCH  22  27
ATOM     27  C   UNL     1      -0.062  11.940  20.228  0.00  0.00    +0.000 C 
BRANCH  27  28
ATOM     28  O   UNL     1       0.759  11.969  21.398  0.00  0.00    +0.000 OA
ATOM     29  H   UNL     1       0.387  12.690  21.946  0.00  0.00    +0.000 HD
ENDBRANCH  27  28
ENDBRANCH  22  27
ENDBRANCH  21  22
ENDBRANCH  20  21
ENDBRANCH  19  20
ENDBRANCH   4  19
TORSDOF 12
ENDMDL
MODEL 5
REMARK VINA RESULT:      -6.8      3.889      7.103
REMARK  Name = 
REMARK  14 active torsions:
REMARK  status: ('A' for Active; 'I' for Inactive)
REMARK    1  A    between atoms: C_1  and  C_2
REMARK    2  A    between atoms: C_5  and  C_6
REMARK    3  A    between atoms: C_6  and  C_7
REMARK    4  A    between atoms: C_7  and  C_8
REMARK    5  A    between atoms: C_8  and  C_9
REMARK    6  A    between atoms: C_9  and  C_11
REMARK    7  A    between atoms: C_14  and  C_15
REMARK    8  A    between atoms: C_15  and  O_16
REMARK    9  A    between atoms: O_16  and  C_17
REMARK   10  A    between atoms: C_17  and  C_18
REMARK   11  A    between atoms: C_18  and  C_19
REMARK   12  A    between atoms: C_18  and  N_20
REMARK   13  A    between atoms: C_18  and  C_21
REMARK   14  A    between atoms: C_21  and  O_22
REMARK                            x       y       z     vdW  Elec       q    Type
REMARK                         _______ _______ _______ _____ _____    ______ ____
ROOT
ATOM      1  C   UNL     1       2.572   6.599  18.407  0.00  0.00    +0.000 A 
ATOM      2  C   UNL     1       2.425   6.695  19.796  0.00  0.00    +0.000 A 
ATOM      3  C   UNL     1       1.921   5.613  20.534  0.00  0.00    +0.000 A 
ATOM      4  C   UNL     1       1.540   4.414  19.906  0.00  0.00    +0.000 A 
ATOM      5  C   UNL     1       1.737   4.308  18.523  0.00  0.00    +0.000 A 
ATOM      6  C   UNL     1       2.243   5.386  17.782  0.00  0.00    +0.000 A 
ENDROOT
BRANCH   1   7
ATOM      7  C   UNL     1       3.067   7.733  17.548  0.00  0.00    +0.000 C 
ATOM      8  O   UNL     1       2.432   8.786  17.530  0.00  0.00    +0.000 OA
BRANCH   7   9
ATOM      9  C   UNL     1       4.318   7.542  16.699  0.00  0.00    +0.000 C 
BRANCH   9  10
ATOM     10  C   UNL     1       5.593   7.230  17.499  0.00  0.00    +0.000 C 
BRANCH  10  11
ATOM     11  C   UNL     1       5.928   5.734  17.582  0.00  0.00    +0.000 C 
BRANCH  11  16
ATOM     12  C   UNL     1       6.335   3.361  12.257  0.00  0.00    +0.000 C 
ATOM     13  C   UNL     1       6.236   3.971  13.625  0.00  0.00    +0.000 A 
ATOM     14  C   UNL     1       7.198   4.879  14.081  0.00  0.00    +0.000 A 
ATOM     15  C   UNL     1       7.097   5.441  15.359  0.00  0.00    +0.000 A 
ATOM     16  C   UNL     1       6.037   5.103  16.209  0.00  0.00    +0.000 A 
ATOM     17  C   UNL     1       5.073   4.196  15.750  0.00  0.00    +0.000 A 
ATOM     18  C   UNL     1       5.174   3.635  14.471  0.00  0.00    +0.000 A 
ENDBRANCH  11  16
ENDBRANCH  10  11
ENDBRANCH   9  10
ENDBRANCH   7   9
ENDBRANCH   1   7
BRANCH   4  19
ATOM     19  C   UNL     1       1.001   3.235  20.691  0.00  0.00    +0.000 C 
BRANCH  19  20
ATOM     20  O   UNL     1       1.873   2.111  20.561  0.00  0.00    +0.000 OA
BRANCH  20  21
ATOM     21  C   UNL     1       3.201   2.398  21.017  0.00  0.00    +0.000 C 
BRANCH  21  22
ATOM     22  C   UNL     1       4.242   1.961  19.948  0.00  0.00    +0.000 C 
ATOM     23  C   UNL     1       3.527   1.443  18.691  0.00  0.00    +0.000 C 
BRANCH  22  24
ATOM     24  N   UNL     1       5.101   3.116  19.575  0.00  0.00    +0.000 NA
ATOM     25  H   UNL     1       5.616   3.429  20.400  0.00  0.00    +0.000 HD
ATOM     26  H   UNL     1       4.503   3.907  19.323  0.00  0.00    +0.000 HD
ENDBRANCH  22  24
BRANCH  22  27
ATOM     27  C   UNL     1       5.156   0.844  20.515  0.00  0.00    +0.000 C 
BRANCH  27  28
ATOM     28  O   UNL     1       5.681   1.219  21.790  0.00  0.00    +0.000 OA
ATOM     29  H   UNL     1       5.084   1.925  22.108  0.00  0.00    +0.000 HD
ENDBRANCH  27  28
ENDBRANCH  22  27
ENDBRANCH  21  22
ENDBRANCH  20  21
ENDBRANCH  19  20
ENDBRANCH   4  19
TORSDOF 12
ENDMDL
MODEL 6
REMARK VINA RESULT:      -6.8      1.683      3.608
REMARK  Name = 
REMARK  14 active torsions:
REMARK  status: ('A' for Active; 'I' for Inactive)
REMARK    1  A    between atoms: C_1  and  C_2
REMARK    2  A    between atoms: C_5  and  C_6
REMARK    3  A    between atoms: C_6  and  C_7
REMARK    4  A    between atoms: C_7  and  C_8
REMARK    5  A    between atoms: C_8  and  C_9
REMARK    6  A    between atoms: C_9  and  C_11
REMARK    7  A    between atoms: C_14  and  C_15
REMARK    8  A    between atoms: C_15  and  O_16
REMARK    9  A    between atoms: O_16  and  C_17
REMARK   10  A    between atoms: C_17  and  C_18
REMARK   11  A    between atoms: C_18  and  C_19
REMARK   12  A    between atoms: C_18  and  N_20
REMARK   13  A    between atoms: C_18  and  C_21
REMARK   14  A    between atoms: C_21  and  O_22
REMARK                            x       y       z     vdW  Elec       q    Type
REMARK                         _______ _______ _______ _____ _____    ______ ____
ROOT
ATOM      1  C   UNL     1       3.727   6.747  18.374  0.00  0.00    +0.000 A 
ATOM      2  C   UNL     1       3.037   6.557  19.577  0.00  0.00    +0.000 A 
ATOM      3  C   UNL     1       2.010   7.437  19.954  0.00  0.00    +0.000 A 
ATOM      4  C   UNL     1       1.654   8.532  19.148  0.00  0.00    +0.000 A 
ATOM      5  C   UNL     1       2.315   8.687  17.923  0.00  0.00    +0.000 A 
ATOM      6  C   UNL     1       3.340   7.808  17.541  0.00  0.00    +0.000 A 
ENDROOT
BRANCH   1   7
ATOM      7  C   UNL     1       4.865   5.868  17.927  0.00  0.00    +0.000 C 
ATOM      8  O   UNL     1       5.811   5.685  18.692  0.00  0.00    +0.000 OA
BRANCH   7   9
ATOM      9  C   UNL     1       4.838   5.254  16.533  0.00  0.00    +0.000 C 
BRANCH   9  10
ATOM     10  C   UNL     1       4.494   3.756  16.501  0.00  0.00    +0.000 C 
BRANCH  10  11
ATOM     11  C   UNL     1       2.991   3.457  16.601  0.00  0.00    +0.000 C 
BRANCH  11  16
ATOM     12  C   UNL     1       1.317   2.577  22.130  0.00  0.00    +0.000 C 
ATOM     13  C   UNL     1       1.742   2.802  20.708  0.00  0.00    +0.000 A 
ATOM     14  C   UNL     1       0.857   3.341  19.768  0.00  0.00    +0.000 A 
ATOM     15  C   UNL     1       1.263   3.546  18.444  0.00  0.00    +0.000 A 
ATOM     16  C   UNL     1       2.558   3.212  18.032  0.00  0.00    +0.000 A 
ATOM     17  C   UNL     1       3.444   2.675  18.974  0.00  0.00    +0.000 A 
ATOM     18  C   UNL     1       3.038   2.471  20.300  0.00  0.00    +0.000 A 
ENDBRANCH  11  16
ENDBRANCH  10  11
ENDBRANCH   9  10
ENDBRANCH   7   9
ENDBRANCH   1   7
BRANCH   4  19
ATOM     19  C   UNL     1       0.542   9.486  19.538  0.00  0.00    +0.000 C 
BRANCH  19  20
ATOM     20  O   UNL     1       0.360  10.478  18.527  0.00  0.00    +0.000 OA
BRANCH  20  21
ATOM     21  C   UNL     1       0.464  11.810  19.047  0.00  0.00    +0.000 C 
BRANCH  21  22
ATOM     22  C   UNL     1      -0.932  12.492  19.061  0.00  0.00    +0.000 C 
ATOM     23  C   UNL     1      -1.504  12.505  20.486  0.00  0.00    +0.000 C 
BRANCH  22  24
ATOM     24  N   UNL     1      -0.816  13.893  18.574  0.00  0.00    +0.000 NA
ATOM     25  H   UNL     1      -0.237  14.425  19.226  0.00  0.00    +0.000 HD
ATOM     26  H   UNL     1      -1.737  14.337  18.617  0.00  0.00    +0.000 HD
ENDBRANCH  22  24
BRANCH  22  27
ATOM     27  C   UNL     1      -1.908  11.736  18.123  0.00  0.00    +0.000 C 
BRANCH  27  28
ATOM     28  O   UNL     1      -1.633  12.040  16.754  0.00  0.00    +0.000 OA
ATOM     29  H   UNL     1      -2.230  11.457  16.244  0.00  0.00    +0.000 HD
ENDBRANCH  27  28
ENDBRANCH  22  27
ENDBRANCH  21  22
ENDBRANCH  20  21
ENDBRANCH  19  20
ENDBRANCH   4  19
TORSDOF 12
ENDMDL
MODEL 7
REMARK VINA RESULT:      -6.8      2.162      3.950
REMARK  Name = 
REMARK  14 active torsions:
REMARK  status: ('A' for Active; 'I' for Inactive)
REMARK    1  A    between atoms: C_1  and  C_2
REMARK    2  A    between atoms: C_5  and  C_6
REMARK    3  A    between atoms: C_6  and  C_7
REMARK    4  A    between atoms: C_7  and  C_8
REMARK    5  A    between atoms: C_8  and  C_9
REMARK    6  A    between atoms: C_9  and  C_11
REMARK    7  A    between atoms: C_14  and  C_15
REMARK    8  A    between atoms: C_15  and  O_16
REMARK    9  A    between atoms: O_16  and  C_17
REMARK   10  A    between atoms: C_17  and  C_18
REMARK   11  A    between atoms: C_18  and  C_19
REMARK   12  A    between atoms: C_18  and  N_20
REMARK   13  A    between atoms: C_18  and  C_21
REMARK   14  A    between atoms: C_21  and  O_22
REMARK                            x       y       z     vdW  Elec       q    Type
REMARK                         _______ _______ _______ _____ _____    ______ ____
ROOT
ATOM      1  C   UNL     1       3.829   6.790  18.192  0.00  0.00    +0.000 A 
ATOM      2  C   UNL     1       3.149   6.507  19.383  0.00  0.00    +0.000 A 
ATOM      3  C   UNL     1       2.103   7.336  19.819  0.00  0.00    +0.000 A 
ATOM      4  C   UNL     1       1.717   8.472  19.086  0.00  0.00    +0.000 A 
ATOM      5  C   UNL     1       2.368   8.720  17.870  0.00  0.00    +0.000 A 
ATOM      6  C   UNL     1       3.413   7.892  17.431  0.00  0.00    +0.000 A 
ENDROOT
BRANCH   1   7
ATOM      7  C   UNL     1       4.986   5.969  17.687  0.00  0.00    +0.000 C 
ATOM      8  O   UNL     1       6.022   5.930  18.350  0.00  0.00    +0.000 OA
BRANCH   7   9
ATOM      9  C   UNL     1       4.863   5.237  16.356  0.00  0.00    +0.000 C 
BRANCH   9  10
ATOM     10  C   UNL     1       4.559   3.735  16.480  0.00  0.00    +0.000 C 
BRANCH  10  11
ATOM     11  C   UNL     1       3.063   3.405  16.580  0.00  0.00    +0.000 C 
BRANCH  11  16
ATOM     12  C   UNL     1       1.372   2.630  22.120  0.00  0.00    +0.000 C 
ATOM     13  C   UNL     1       1.802   2.827  20.696  0.00  0.00    +0.000 A 
ATOM     14  C   UNL     1       0.881   3.198  19.710  0.00  0.00    +0.000 A 
ATOM     15  C   UNL     1       1.292   3.379  18.384  0.00  0.00    +0.000 A 
ATOM     16  C   UNL     1       2.628   3.187  18.015  0.00  0.00    +0.000 A 
ATOM     17  C   UNL     1       3.550   2.818  19.003  0.00  0.00    +0.000 A 
ATOM     18  C   UNL     1       3.139   2.639  20.330  0.00  0.00    +0.000 A 
ENDBRANCH  11  16
ENDBRANCH  10  11
ENDBRANCH   9  10
ENDBRANCH   7   9
ENDBRANCH   1   7
BRANCH   4  19
ATOM     19  C   UNL     1       0.585   9.371  19.539  0.00  0.00    +0.000 C 
BRANCH  19  20
ATOM     20  O   UNL     1       0.623  10.613  18.835  0.00  0.00    +0.000 OA
BRANCH  20  21
ATOM     21  C   UNL     1       0.904  11.721  19.700  0.00  0.00    +0.000 C 
BRANCH  21  22
ATOM     22  C   UNL     1       1.256  12.981  18.861  0.00  0.00    +0.000 C 
ATOM     23  C   UNL     1       2.161  13.922  19.671  0.00  0.00    +0.000 C 
BRANCH  22  24
ATOM     24  N   UNL     1       1.966  12.580  17.617  0.00  0.00    +0.000 NA
ATOM     25  H   UNL     1       1.826  11.579  17.462  0.00  0.00    +0.000 HD
ATOM     26  H   UNL     1       2.973  12.686  17.761  0.00  0.00    +0.000 HD
ENDBRANCH  22  24
BRANCH  22  27
ATOM     27  C   UNL     1      -0.036  13.735  18.457  0.00  0.00    +0.000 C 
BRANCH  27  28
ATOM     28  O   UNL     1      -0.831  12.940  17.574  0.00  0.00    +0.000 OA
ATOM     29  H   UNL     1      -0.196  12.581  16.922  0.00  0.00    +0.000 HD
ENDBRANCH  27  28
ENDBRANCH  22  27
ENDBRANCH  21  22
ENDBRANCH  20  21
ENDBRANCH  19  20
ENDBRANCH   4  19
TORSDOF 12
ENDMDL
MODEL 8
REMARK VINA RESULT:      -6.8      0.757      1.277
REMARK  Name = 
REMARK  14 active torsions:
REMARK  status: ('A' for Active; 'I' for Inactive)
REMARK    1  A    between atoms: C_1  and  C_2
REMARK    2  A    between atoms: C_5  and  C_6
REMARK    3  A    between atoms: C_6  and  C_7
REMARK    4  A    between atoms: C_7  and  C_8
REMARK    5  A    between atoms: C_8  and  C_9
REMARK    6  A    between atoms: C_9  and  C_11
REMARK    7  A    between atoms: C_14  and  C_15
REMARK    8  A    between atoms: C_15  and  O_16
REMARK    9  A    between atoms: O_16  and  C_17
REMARK   10  A    between atoms: C_17  and  C_18
REMARK   11  A    between atoms: C_18  and  C_19
REMARK   12  A    between atoms: C_18  and  N_20
REMARK   13  A    between atoms: C_18  and  C_21
REMARK   14  A    between atoms: C_21  and  O_22
REMARK                            x       y       z     vdW  Elec       q    Type
REMARK                         _______ _______ _______ _____ _____    ______ ____
ROOT
ATOM      1  C   UNL     1       1.901   6.255  20.125  0.00  0.00    +0.000 A 
ATOM      2  C   UNL     1       2.349   6.803  18.916  0.00  0.00    +0.000 A 
ATOM      3  C   UNL     1       2.151   8.164  18.636  0.00  0.00    +0.000 A 
ATOM      4  C   UNL     1       1.492   9.009  19.545  0.00  0.00    +0.000 A 
ATOM      5  C   UNL     1       1.091   8.465  20.773  0.00  0.00    +0.000 A 
ATOM      6  C   UNL     1       1.289   7.105  21.058  0.00  0.00    +0.000 A 
ENDROOT
BRANCH   1   7
ATOM      7  C   UNL     1       2.042   4.797  20.473  0.00  0.00    +0.000 C 
ATOM      8  O   UNL     1       2.436   4.489  21.597  0.00  0.00    +0.000 OA
BRANCH   7   9
ATOM      9  C   UNL     1       1.729   3.739  19.421  0.00  0.00    +0.000 C 
BRANCH   9  10
ATOM     10  C   UNL     1       2.600   2.475  19.506  0.00  0.00    +0.000 C 
BRANCH  10  11
ATOM     11  C   UNL     1       3.585   2.314  18.340  0.00  0.00    +0.000 C 
BRANCH  11  16
ATOM     12  C   UNL     1       6.585   7.209  17.249  0.00  0.00    +0.000 C 
ATOM     13  C   UNL     1       5.810   5.954  17.526  0.00  0.00    +0.000 A 
ATOM     14  C   UNL     1       4.932   5.423  16.574  0.00  0.00    +0.000 A 
ATOM     15  C   UNL     1       4.214   4.253  16.843  0.00  0.00    +0.000 A 
ATOM     16  C   UNL     1       4.353   3.592  18.069  0.00  0.00    +0.000 A 
ATOM     17  C   UNL     1       5.234   4.122  19.020  0.00  0.00    +0.000 A 
ATOM     18  C   UNL     1       5.954   5.293  18.751  0.00  0.00    +0.000 A 
ENDBRANCH  11  16
ENDBRANCH  10  11
ENDBRANCH   9  10
ENDBRANCH   7   9
ENDBRANCH   1   7
BRANCH   4  19
ATOM     19  C   UNL     1       1.277  10.481  19.260  0.00  0.00    +0.000 C 
BRANCH  19  20
ATOM     20  O   UNL     1       0.353  10.650  18.184  0.00  0.00    +0.000 OA
BRANCH  20  21
ATOM     21  C   UNL     1      -1.000  10.399  18.586  0.00  0.00    +0.000 C 
BRANCH  21  22
ATOM     22  C   UNL     1      -1.921  11.566  18.133  0.00  0.00    +0.000 C 
ATOM     23  C   UNL     1      -2.665  12.155  19.341  0.00  0.00    +0.000 C 
BRANCH  22  24
ATOM     24  N   UNL     1      -1.107  12.637  17.498  0.00  0.00    +0.000 NA
ATOM     25  H   UNL     1      -1.588  13.531  17.607  0.00  0.00    +0.000 HD
ATOM     26  H   UNL     1      -1.078  12.476  16.488  0.00  0.00    +0.000 HD
ENDBRANCH  22  24
BRANCH  22  27
ATOM     27  C   UNL     1      -2.952  11.063  17.091  0.00  0.00    +0.000 C 
BRANCH  27  28
ATOM     28  O   UNL     1      -4.033  11.988  16.959  0.00  0.00    +0.000 OA
ATOM     29  H   UNL     1      -4.837  11.460  17.135  0.00  0.00    +0.000 HD
ENDBRANCH  27  28
ENDBRANCH  22  27
ENDBRANCH  21  22
ENDBRANCH  20  21
ENDBRANCH  19  20
ENDBRANCH   4  19
TORSDOF 12
ENDMDL
MODEL 9
REMARK VINA RESULT:      -6.7      1.295      2.185
REMARK  Name = 
REMARK  14 active torsions:
REMARK  status: ('A' for Active; 'I' for Inactive)
REMARK    1  A    between atoms: C_1  and  C_2
REMARK    2  A    between atoms: C_5  and  C_6
REMARK    3  A    between atoms: C_6  and  C_7
REMARK    4  A    between atoms: C_7  and  C_8
REMARK    5  A    between atoms: C_8  and  C_9
REMARK    6  A    between atoms: C_9  and  C_11
REMARK    7  A    between atoms: C_14  and  C_15
REMARK    8  A    between atoms: C_15  and  O_16
REMARK    9  A    between atoms: O_16  and  C_17
REMARK   10  A    between atoms: C_17  and  C_18
REMARK   11  A    between atoms: C_18  and  C_19
REMARK   12  A    between atoms: C_18  and  N_20
REMARK   13  A    between atoms: C_18  and  C_21
REMARK   14  A    between atoms: C_21  and  O_22
REMARK                            x       y       z     vdW  Elec       q    Type
REMARK                         _______ _______ _______ _____ _____    ______ ____
ROOT
ATOM      1  C   UNL     1       1.678   4.504  19.419  0.00  0.00    +0.000 A 
ATOM      2  C   UNL     1       1.542   4.845  18.067  0.00  0.00    +0.000 A 
ATOM      3  C   UNL     1       1.804   6.154  17.635  0.00  0.00    +0.000 A 
ATOM      4  C   UNL     1       2.195   7.158  18.539  0.00  0.00    +0.000 A 
ATOM      5  C   UNL     1       2.377   6.797  19.880  0.00  0.00    +0.000 A 
ATOM      6  C   UNL     1       2.119   5.488  20.316  0.00  0.00    +0.000 A 
ENDROOT
BRANCH   1   7
ATOM      7  C   UNL     1       1.374   3.131  19.958  0.00  0.00    +0.000 C 
ATOM      8  O   UNL     1       1.091   3.008  21.149  0.00  0.00    +0.000 OA
BRANCH   7   9
ATOM      9  C   UNL     1       1.456   1.924  19.030  0.00  0.00    +0.000 C 
BRANCH   9  10
ATOM     10  C   UNL     1       2.690   1.906  18.113  0.00  0.00    +0.000 C 
BRANCH  10  11
ATOM     11  C   UNL     1       4.019   2.134  18.848  0.00  0.00    +0.000 C 
BRANCH  11  16
ATOM     12  C   UNL     1       6.563   7.133  17.206  0.00  0.00    +0.000 C 
ATOM     13  C   UNL     1       5.913   5.848  17.632  0.00  0.00    +0.000 A 
ATOM     14  C   UNL     1       5.913   5.450  18.973  0.00  0.00    +0.000 A 
ATOM     15  C   UNL     1       5.304   4.250  19.359  0.00  0.00    +0.000 A 
ATOM     16  C   UNL     1       4.690   3.421  18.413  0.00  0.00    +0.000 A 
ATOM     17  C   UNL     1       4.689   3.821  17.071  0.00  0.00    +0.000 A 
ATOM     18  C   UNL     1       5.296   5.023  16.685  0.00  0.00    +0.000 A 
ENDBRANCH  11  16
ENDBRANCH  10  11
ENDBRANCH   9  10
ENDBRANCH   7   9
ENDBRANCH   1   7
BRANCH   4  19
ATOM     19  C   UNL     1       2.488   8.574  18.086  0.00  0.00    +0.000 C 
BRANCH  19  20
ATOM     20  O   UNL     1       1.688   9.506  18.816  0.00  0.00    +0.000 OA
BRANCH  20  21
ATOM     21  C   UNL     1       0.637  10.062  18.017  0.00  0.00    +0.000 C 
BRANCH  21  22
ATOM     22  C   UNL     1      -0.202  11.066  18.856  0.00  0.00    +0.000 C 
ATOM     23  C   UNL     1      -0.418  10.522  20.276  0.00  0.00    +0.000 C 
BRANCH  22  24
ATOM     24  N   UNL     1       0.507  12.372  18.942  0.00  0.00    +0.000 NA
ATOM     25  H   UNL     1      -0.067  13.028  19.474  0.00  0.00    +0.000 HD
ATOM     26  H   UNL     1       0.569  12.777  18.005  0.00  0.00    +0.000 HD
ENDBRANCH  22  24
BRANCH  22  27
ATOM     27  C   UNL     1      -1.578  11.308  18.185  0.00  0.00    +0.000 C 
BRANCH  27  28
ATOM     28  O   UNL     1      -1.499  12.377  17.239  0.00  0.00    +0.000 OA
ATOM     29  H   UNL     1      -0.615  12.283  16.830  0.00  0.00    +0.000 HD
ENDBRANCH  27  28
ENDBRANCH  22  27
ENDBRANCH  21  22
ENDBRANCH  20  21
ENDBRANCH  19  20
ENDBRANCH   4  19
TORSDOF 12
ENDMDL
