MODEL 1
REMARK VINA RESULT:      -7.2      0.000      0.000
REMARK  Name = 
REMARK  7 active torsions:
REMARK  status: ('A' for Active; 'I' for Inactive)
REMARK    1  A    between atoms: C_1  and  N_2
REMARK    2  A    between atoms: N_2  and  C_3
REMARK    3  A    between atoms: N_2  and  S_4
REMARK    4  A    between atoms: S_4  and  N_7
REMARK    5  A    between atoms: C_11  and  C_12
REMARK    6  A    between atoms: N_16  and  C_17
REMARK    7  A    between atoms: C_17  and  C_18
REMARK                            x       y       z     vdW  Elec       q    Type
REMARK                         _______ _______ _______ _____ _____    ______ ____
ROOT
ATOM      1  N   UNL     1       5.975   4.912  17.678  0.00  0.00    +0.000 NA
ATOM      2  C   UNL     1       6.068   3.936  16.561  0.00  0.00    +0.000 C 
ATOM      3  C   UNL     1       4.764   3.924  15.772  0.00  0.00    +0.000 C 
ATOM      4  C   UNL     1       3.575   3.606  16.672  0.00  0.00    +0.000 C 
ATOM      5  C   UNL     1       3.501   4.598  17.847  0.00  0.00    +0.000 C 
ATOM      6  C   UNL     1       4.841   4.618  18.609  0.00  0.00    +0.000 C 
ENDROOT
BRANCH   5   7
ATOM      7  C   UNL     1       2.380   4.223  18.778  0.00  0.00    +0.000 A 
ATOM      8  N   UNL     1       1.634   3.141  18.622  0.00  0.00    +0.000 NA
ATOM      9  C   UNL     1       0.749   3.125  19.659  0.00  0.00    +0.000 A 
ATOM     10  C   UNL     1       0.946   4.213  20.474  0.00  0.00    +0.000 A 
ATOM     11  N   UNL     1       1.981   4.915  19.906  0.00  0.00    +0.000 N 
BRANCH  11  12
ATOM     12  C   UNL     1       2.559   6.116  20.497  0.00  0.00    +0.000 C 
BRANCH  12  13
ATOM     13  C   UNL     1       2.025   7.364  19.853  0.00  0.00    +0.000 A 
ATOM     14  C   UNL     1       2.307   7.690  18.520  0.00  0.00    +0.000 A 
ATOM     15  C   UNL     1       1.872   8.905  17.996  0.00  0.00    +0.000 A 
ATOM     16  C   UNL     1       1.152   9.754  18.819  0.00  0.00    +0.000 A 
ATOM     17  N   UNL     1       0.820   9.455  20.092  0.00  0.00    +0.000 NA
ATOM     18  C   UNL     1       1.261   8.273  20.576  0.00  0.00    +0.000 A 
ENDBRANCH  12  13
ENDBRANCH  11  12
ENDBRANCH   5   7
BRANCH   1  19
ATOM     19  S   UNL     1       7.456   5.233  18.448  0.00  0.00    +0.000 S 
ATOM     20  O   UNL     1       8.461   4.328  17.936  0.00  0.00    +0.000 OA
ATOM     21  O   UNL     1       7.248   5.402  19.864  0.00  0.00    +0.000 OA
BRANCH  19  23
ATOM     22  C   UNL     1       6.617   7.366  17.142  0.00  0.00    +0.000 C 
ATOM     23  N   UNL     1       7.810   6.767  17.794  0.00  0.00    +0.000 NA
ATOM     24  C   UNL     1       8.437   7.724  18.729  0.00  0.00    +0.000 C 
ENDBRANCH  19  23
ENDBRANCH   1  19
TORSDOF 5
ENDMDL
MODEL 2
REMARK VINA RESULT:      -7.1      1.654      2.745
REMARK  Name = 
REMARK  7 active torsions:
REMARK  status: ('A' for Active; 'I' for Inactive)
REMARK    1  A    between atoms: C_1  and  N_2
REMARK    2  A    between atoms: N_2  and  C_3
REMARK    3  A    between atoms: N_2  and  S_4
REMARK    4  A    between atoms: S_4  and  N_7
REMARK    5  A    between atoms: C_11  and  C_12
REMARK    6  A    between atoms: N_16  and  C_17
REMARK    7  A    between atoms: C_17  and  C_18
REMARK                            x       y       z     vdW  Elec       q    Type
REMARK                         _______ _______ _______ _____ _____    ______ ____
ROOT
ATOM      1  N   UNL     1       5.372   5.180  17.026  0.00  0.00    +0.000 NA
ATOM      2  C   UNL     1       4.954   3.754  16.974  0.00  0.00    +0.000 C 
ATOM      3  C   UNL     1       3.444   3.664  16.786  0.00  0.00    +0.000 C 
ATOM      4  C   UNL     1       2.702   4.408  17.891  0.00  0.00    +0.000 C 
ATOM      5  C   UNL     1       3.162   5.875  17.963  0.00  0.00    +0.000 C 
ATOM      6  C   UNL     1       4.694   5.943  18.120  0.00  0.00    +0.000 C 
ENDROOT
BRANCH   5   7
ATOM      7  C   UNL     1       2.492   6.577  19.113  0.00  0.00    +0.000 A 
ATOM      8  N   UNL     1       2.307   6.020  20.299  0.00  0.00    +0.000 NA
ATOM      9  C   UNL     1       1.695   6.957  21.079  0.00  0.00    +0.000 A 
ATOM     10  C   UNL     1       1.498   8.115  20.369  0.00  0.00    +0.000 A 
ATOM     11  N   UNL     1       2.000   7.868  19.114  0.00  0.00    +0.000 N 
BRANCH  11  12
ATOM     12  C   UNL     1       2.049   8.870  18.056  0.00  0.00    +0.000 C 
BRANCH  12  13
ATOM     13  C   UNL     1       1.024   9.948  18.262  0.00  0.00    +0.000 A 
ATOM     14  C   UNL     1      -0.327   9.758  17.944  0.00  0.00    +0.000 A 
ATOM     15  C   UNL     1      -1.223  10.819  18.059  0.00  0.00    +0.000 A 
ATOM     16  C   UNL     1      -0.743  12.037  18.506  0.00  0.00    +0.000 A 
ATOM     17  N   UNL     1       0.541  12.246  18.868  0.00  0.00    +0.000 NA
ATOM     18  C   UNL     1       1.389  11.202  18.738  0.00  0.00    +0.000 A 
ENDBRANCH  12  13
ENDBRANCH  11  12
ENDBRANCH   5   7
BRANCH   1  19
ATOM     19  S   UNL     1       7.054   5.415  16.936  0.00  0.00    +0.000 S 
ATOM     20  O   UNL     1       7.371   6.099  15.703  0.00  0.00    +0.000 OA
ATOM     21  O   UNL     1       7.739   4.208  17.325  0.00  0.00    +0.000 OA
BRANCH  19  23
ATOM     22  C   UNL     1       7.988   5.957  19.343  0.00  0.00    +0.000 C 
ATOM     23  N   UNL     1       7.267   6.552  18.188  0.00  0.00    +0.000 NA
ATOM     24  C   UNL     1       7.883   7.832  17.782  0.00  0.00    +0.000 C 
ENDBRANCH  19  23
ENDBRANCH   1  19
TORSDOF 5
ENDMDL
MODEL 3
REMARK VINA RESULT:      -6.8      2.396      3.999
REMARK  Name = 
REMARK  7 active torsions:
REMARK  status: ('A' for Active; 'I' for Inactive)
REMARK    1  A    between atoms: C_1  and  N_2
REMARK    2  A    between atoms: N_2  and  C_3
REMARK    3  A    between atoms: N_2  and  S_4
REMARK    4  A    between atoms: S_4  and  N_7
REMARK    5  A    between atoms: C_11  and  C_12
REMARK    6  A    between atoms: N_16  and  C_17
REMARK    7  A    between atoms: C_17  and  C_18
REMARK                            x       y       z     vdW  Elec       q    Type
REMARK                         _______ _______ _______ _____ _____    ______ ____
ROOT
ATOM      1  N   UNL     1       3.977   5.959  17.264  0.00  0.00    +0.000 NA
ATOM      2  C   UNL     1       3.839   4.565  17.764  0.00  0.00    +0.000 C 
ATOM      3  C   UNL     1       2.392   4.297  18.158  0.00  0.00    +0.000 C 
ATOM      4  C   UNL     1       1.906   5.299  19.200  0.00  0.00    +0.000 C 
ATOM      5  C   UNL     1       2.081   6.741  18.692  0.00  0.00    +0.000 C 
ATOM      6  C   UNL     1       3.544   6.979  18.268  0.00  0.00    +0.000 C 
ENDROOT
BRANCH   5   7
ATOM      7  C   UNL     1       1.684   7.724  19.760  0.00  0.00    +0.000 A 
ATOM      8  N   UNL     1       1.713   7.446  21.053  0.00  0.00    +0.000 NA
ATOM      9  C   UNL     1       1.310   8.575  21.704  0.00  0.00    +0.000 A 
ATOM     10  C   UNL     1       1.027   9.571  20.802  0.00  0.00    +0.000 A 
ATOM     11  N   UNL     1       1.258   9.024  19.564  0.00  0.00    +0.000 N 
BRANCH  11  12
ATOM     12  C   UNL     1       1.140   9.772  18.318  0.00  0.00    +0.000 C 
BRANCH  12  13
ATOM     13  C   UNL     1      -0.243  10.329  18.133  0.00  0.00    +0.000 A 
ATOM     14  C   UNL     1      -1.239   9.625  17.442  0.00  0.00    +0.000 A 
ATOM     15  C   UNL     1      -2.476  10.223  17.210  0.00  0.00    +0.000 A 
ATOM     16  C   UNL     1      -2.686  11.504  17.690  0.00  0.00    +0.000 A 
ATOM     17  N   UNL     1      -1.769  12.195  18.401  0.00  0.00    +0.000 NA
ATOM     18  C   UNL     1      -0.576  11.593  18.604  0.00  0.00    +0.000 A 
ENDBRANCH  12  13
ENDBRANCH  11  12
ENDBRANCH   5   7
BRANCH   1  19
ATOM     19  S   UNL     1       5.471   6.286  16.521  0.00  0.00    +0.000 S 
ATOM     20  O   UNL     1       6.279   7.084  17.415  0.00  0.00    +0.000 OA
ATOM     21  O   UNL     1       5.262   6.673  15.149  0.00  0.00    +0.000 OA
BRANCH  19  23
ATOM     22  C   UNL     1       6.372   4.233  15.131  0.00  0.00    +0.000 C 
ATOM     23  N   UNL     1       6.155   4.725  16.516  0.00  0.00    +0.000 NA
ATOM     24  C   UNL     1       7.377   4.566  17.331  0.00  0.00    +0.000 C 
ENDBRANCH  19  23
ENDBRANCH   1  19
TORSDOF 5
ENDMDL
MODEL 4
REMARK VINA RESULT:      -6.8      1.960      3.143
REMARK  Name = 
REMARK  7 active torsions:
REMARK  status: ('A' for Active; 'I' for Inactive)
REMARK    1  A    between atoms: C_1  and  N_2
REMARK    2  A    between atoms: N_2  and  C_3
REMARK    3  A    between atoms: N_2  and  S_4
REMARK    4  A    between atoms: S_4  and  N_7
REMARK    5  A    between atoms: C_11  and  C_12
REMARK    6  A    between atoms: N_16  and  C_17
REMARK    7  A    between atoms: C_17  and  C_18
REMARK                            x       y       z     vdW  Elec       q    Type
REMARK                         _______ _______ _______ _____ _____    ______ ____
ROOT
ATOM      1  N   UNL     1       4.453   5.038  16.811  0.00  0.00    +0.000 NA
ATOM      2  C   UNL     1       4.119   3.618  17.102  0.00  0.00    +0.000 C 
ATOM      3  C   UNL     1       2.616   3.471  17.304  0.00  0.00    +0.000 C 
ATOM      4  C   UNL     1       2.113   4.386  18.415  0.00  0.00    +0.000 C 
ATOM      5  C   UNL     1       2.490   5.850  18.127  0.00  0.00    +0.000 C 
ATOM      6  C   UNL     1       4.009   5.970  17.893  0.00  0.00    +0.000 C 
ENDROOT
BRANCH   5   7
ATOM      7  C   UNL     1       2.069   6.733  19.270  0.00  0.00    +0.000 A 
ATOM      8  N   UNL     1       1.886   6.290  20.504  0.00  0.00    +0.000 NA
ATOM      9  C   UNL     1       1.536   7.371  21.258  0.00  0.00    +0.000 A 
ATOM     10  C   UNL     1       1.501   8.504  20.483  0.00  0.00    +0.000 A 
ATOM     11  N   UNL     1       1.834   8.094  19.216  0.00  0.00    +0.000 N 
BRANCH  11  12
ATOM     12  C   UNL     1       1.981   9.005  18.087  0.00  0.00    +0.000 C 
BRANCH  12  13
ATOM     13  C   UNL     1       1.076  10.198  18.215  0.00  0.00    +0.000 A 
ATOM     14  C   UNL     1       1.558  11.456  18.600  0.00  0.00    +0.000 A 
ATOM     15  C   UNL     1       0.667  12.508  18.801  0.00  0.00    +0.000 A 
ATOM     16  C   UNL     1      -0.681  12.275  18.594  0.00  0.00    +0.000 A 
ATOM     17  N   UNL     1      -1.178  11.091  18.177  0.00  0.00    +0.000 NA
ATOM     18  C   UNL     1      -0.292  10.086  17.997  0.00  0.00    +0.000 A 
ENDBRANCH  12  13
ENDBRANCH  11  12
ENDBRANCH   5   7
BRANCH   1  19
ATOM     19  S   UNL     1       6.049   5.281  16.279  0.00  0.00    +0.000 S 
ATOM     20  O   UNL     1       6.049   6.257  15.213  0.00  0.00    +0.000 OA
ATOM     21  O   UNL     1       6.718   4.013  16.137  0.00  0.00    +0.000 OA
BRANCH  19  23
ATOM     22  C   UNL     1       7.590   5.144  18.416  0.00  0.00    +0.000 C 
ATOM     23  N   UNL     1       6.708   6.058  17.645  0.00  0.00    +0.000 NA
ATOM     24  C   UNL     1       7.386   7.344  17.377  0.00  0.00    +0.000 C 
ENDBRANCH  19  23
ENDBRANCH   1  19
TORSDOF 5
ENDMDL
MODEL 5
REMARK VINA RESULT:      -6.7      3.262      6.268
REMARK  Name = 
REMARK  7 active torsions:
REMARK  status: ('A' for Active; 'I' for Inactive)
REMARK    1  A    between atoms: C_1  and  N_2
REMARK    2  A    between atoms: N_2  and  C_3
REMARK    3  A    between atoms: N_2  and  S_4
REMARK    4  A    between atoms: S_4  and  N_7
REMARK    5  A    between atoms: C_11  and  C_12
REMARK    6  A    between atoms: N_16  and  C_17
REMARK    7  A    between atoms: C_17  and  C_18
REMARK                            x       y       z     vdW  Elec       q    Type
REMARK                         _______ _______ _______ _____ _____    ______ ____
ROOT
ATOM      1  N   UNL     1       1.681   8.866  19.207  0.00  0.00    +0.000 NA
ATOM      2  C   UNL     1       0.941   8.696  20.485  0.00  0.00    +0.000 C 
ATOM      3  C   UNL     1       1.645   7.666  21.359  0.00  0.00    +0.000 C 
ATOM      4  C   UNL     1       1.792   6.332  20.636  0.00  0.00    +0.000 C 
ATOM      5  C   UNL     1       2.530   6.517  19.298  0.00  0.00    +0.000 C 
ATOM      6  C   UNL     1       1.820   7.587  18.444  0.00  0.00    +0.000 C 
ENDROOT
BRANCH   5   7
ATOM      7  C   UNL     1       2.591   5.213  18.549  0.00  0.00    +0.000 A 
ATOM      8  N   UNL     1       1.768   4.202  18.779  0.00  0.00    +0.000 NA
ATOM      9  C   UNL     1       2.110   3.214  17.903  0.00  0.00    +0.000 A 
ATOM     10  C   UNL     1       3.161   3.616  17.116  0.00  0.00    +0.000 A 
ATOM     11  N   UNL     1       3.470   4.887  17.534  0.00  0.00    +0.000 N 
BRANCH  11  12
ATOM     12  C   UNL     1       4.496   5.713  16.910  0.00  0.00    +0.000 C 
BRANCH  12  13
ATOM     13  C   UNL     1       5.705   5.859  17.790  0.00  0.00    +0.000 A 
ATOM     14  C   UNL     1       6.722   6.780  17.507  0.00  0.00    +0.000 A 
ATOM     15  C   UNL     1       7.869   6.810  18.296  0.00  0.00    +0.000 A 
ATOM     16  C   UNL     1       7.959   5.927  19.358  0.00  0.00    +0.000 A 
ATOM     17  N   UNL     1       6.981   5.059  19.691  0.00  0.00    +0.000 NA
ATOM     18  C   UNL     1       5.882   5.046  18.903  0.00  0.00    +0.000 A 
ENDBRANCH  12  13
ENDBRANCH  11  12
ENDBRANCH   5   7
BRANCH   1  19
ATOM     19  S   UNL     1       1.168  10.192  18.276  0.00  0.00    +0.000 S 
ATOM     20  O   UNL     1      -0.087   9.865  17.638  0.00  0.00    +0.000 OA
ATOM     21  O   UNL     1       2.277  10.725  17.526  0.00  0.00    +0.000 OA
BRANCH  19  23
ATOM     22  C   UNL     1       1.781  12.425  19.541  0.00  0.00    +0.000 C 
ATOM     23  N   UNL     1       0.803  11.307  19.514  0.00  0.00    +0.000 NA
ATOM     24  C   UNL     1      -0.584  11.817  19.518  0.00  0.00    +0.000 C 
ENDBRANCH  19  23
ENDBRANCH   1  19
TORSDOF 5
ENDMDL
MODEL 6
REMARK VINA RESULT:      -6.7      3.216      6.126
REMARK  Name = 
REMARK  7 active torsions:
REMARK  status: ('A' for Active; 'I' for Inactive)
REMARK    1  A    between atoms: C_1  and  N_2
REMARK    2  A    between atoms: N_2  and  C_3
REMARK    3  A    between atoms: N_2  and  S_4
REMARK    4  A    between atoms: S_4  and  N_7
REMARK    5  A    between atoms: C_11  and  C_12
REMARK    6  A    between atoms: N_16  and  C_17
REMARK    7  A    between atoms: C_17  and  C_18
REMARK                            x       y       z     vdW  Elec       q    Type
REMARK                         _______ _______ _______ _____ _____    ______ ____
ROOT
ATOM      1  N   UNL     1       1.768   8.651  19.266  0.00  0.00    +0.000 NA
ATOM      2  C   UNL     1       0.921   8.386  20.459  0.00  0.00    +0.000 C 
ATOM      3  C   UNL     1       1.590   7.345  21.348  0.00  0.00    +0.000 C 
ATOM      4  C   UNL     1       1.866   6.056  20.582  0.00  0.00    +0.000 C 
ATOM      5  C   UNL     1       2.715   6.339  19.330  0.00  0.00    +0.000 C 
ATOM      6  C   UNL     1       2.036   7.418  18.462  0.00  0.00    +0.000 C 
ENDROOT
BRANCH   5   7
ATOM      7  C   UNL     1       2.906   5.077  18.532  0.00  0.00    +0.000 A 
ATOM      8  N   UNL     1       1.999   4.599  17.696  0.00  0.00    +0.000 NA
ATOM      9  C   UNL     1       2.531   3.469  17.148  0.00  0.00    +0.000 A 
ATOM     10  C   UNL     1       3.788   3.240  17.649  0.00  0.00    +0.000 A 
ATOM     11  N   UNL     1       4.022   4.262  18.537  0.00  0.00    +0.000 N 
BRANCH  11  12
ATOM     12  C   UNL     1       5.282   4.437  19.249  0.00  0.00    +0.000 C 
BRANCH  12  13
ATOM     13  C   UNL     1       6.156   5.467  18.590  0.00  0.00    +0.000 A 
ATOM     14  C   UNL     1       7.363   5.890  19.161  0.00  0.00    +0.000 A 
ATOM     15  C   UNL     1       8.090   6.918  18.564  0.00  0.00    +0.000 A 
ATOM     16  C   UNL     1       7.594   7.482  17.401  0.00  0.00    +0.000 A 
ATOM     17  N   UNL     1       6.461   7.068  16.795  0.00  0.00    +0.000 NA
ATOM     18  C   UNL     1       5.773   6.075  17.401  0.00  0.00    +0.000 A 
ENDBRANCH  12  13
ENDBRANCH  11  12
ENDBRANCH   5   7
BRANCH   1  19
ATOM     19  S   UNL     1       1.280   9.998  18.352  0.00  0.00    +0.000 S 
ATOM     20  O   UNL     1      -0.025   9.739  17.786  0.00  0.00    +0.000 OA
ATOM     21  O   UNL     1       2.374  10.461  17.536  0.00  0.00    +0.000 OA
BRANCH  19  23
ATOM     22  C   UNL     1       1.831  12.378  19.347  0.00  0.00    +0.000 C 
ATOM     23  N   UNL     1       1.048  11.140  19.596  0.00  0.00    +0.000 NA
ATOM     24  C   UNL     1      -0.360  11.459  19.909  0.00  0.00    +0.000 C 
ENDBRANCH  19  23
ENDBRANCH   1  19
TORSDOF 5
ENDMDL
MODEL 7
REMARK VINA RESULT:      -6.6      3.036      4.932
REMARK  Name = 
REMARK  7 active torsions:
REMARK  status: ('A' for Active; 'I' for Inactive)
REMARK    1  A    between atoms: C_1  and  N_2
REMARK    2  A    between atoms: N_2  and  C_3
REMARK    3  A    between atoms: N_2  and  S_4
REMARK    4  A    between atoms: S_4  and  N_7
REMARK    5  A    between atoms: C_11  and  C_12
REMARK    6  A    between atoms: N_16  and  C_17
REMARK    7  A    between atoms: C_17  and  C_18
REMARK                            x       y       z     vdW  Elec       q    Type
REMARK                         _______ _______ _______ _____ _____    ______ ____
ROOT
ATOM      1  N   UNL     1       3.069   4.203  18.271  0.00  0.00    +0.000 NA
ATOM      2  C   UNL     1       4.133   4.156  17.233  0.00  0.00    +0.000 C 
ATOM      3  C   UNL     1       5.116   5.300  17.447  0.00  0.00    +0.000 C 
ATOM      4  C   UNL     1       4.408   6.650  17.438  0.00  0.00    +0.000 C 
ATOM      5  C   UNL     1       3.286   6.683  18.490  0.00  0.00    +0.000 C 
ATOM      6  C   UNL     1       2.322   5.499  18.275  0.00  0.00    +0.000 C 
ENDROOT
BRANCH   5   7
ATOM      7  C   UNL     1       2.534   7.984  18.413  0.00  0.00    +0.000 A 
ATOM      8  N   UNL     1       2.525   8.758  17.339  0.00  0.00    +0.000 NA
ATOM      9  C   UNL     1       1.728   9.825  17.633  0.00  0.00    +0.000 A 
ATOM     10  C   UNL     1       1.232   9.714  18.909  0.00  0.00    +0.000 A 
ATOM     11  N   UNL     1       1.753   8.544  19.406  0.00  0.00    +0.000 N 
BRANCH  11  12
ATOM     12  C   UNL     1       1.422   8.010  20.722  0.00  0.00    +0.000 C 
BRANCH  12  13
ATOM     13  C   UNL     1       0.571   8.965  21.511  0.00  0.00    +0.000 A 
ATOM     14  C   UNL     1      -0.405   9.765  20.902  0.00  0.00    +0.000 A 
ATOM     15  C   UNL     1      -1.101  10.706  21.659  0.00  0.00    +0.000 A 
ATOM     16  C   UNL     1      -0.810  10.807  23.008  0.00  0.00    +0.000 A 
ATOM     17  N   UNL     1       0.088  10.022  23.639  0.00  0.00    +0.000 NA
ATOM     18  C   UNL     1       0.754   9.124  22.880  0.00  0.00    +0.000 A 
ENDBRANCH  12  13
ENDBRANCH  11  12
ENDBRANCH   5   7
BRANCH   1  19
ATOM     19  S   UNL     1       2.084   2.818  18.320  0.00  0.00    +0.000 S 
ATOM     20  O   UNL     1       2.728   1.753  17.586  0.00  0.00    +0.000 OA
ATOM     21  O   UNL     1       0.712   3.183  18.068  0.00  0.00    +0.000 OA
BRANCH  19  23
ATOM     22  C   UNL     1       3.602   2.590  20.465  0.00  0.00    +0.000 C 
ATOM     23  N   UNL     1       2.212   2.415  19.971  0.00  0.00    +0.000 NA
ATOM     24  C   UNL     1       1.245   3.086  20.864  0.00  0.00    +0.000 C 
ENDBRANCH  19  23
ENDBRANCH   1  19
TORSDOF 5
ENDMDL
MODEL 8
REMARK VINA RESULT:      -6.6      2.409      4.035
REMARK  Name = 
REMARK  7 active torsions:
REMARK  status: ('A' for Active; 'I' for Inactive)
REMARK    1  A    between atoms: C_1  and  N_2
REMARK    2  A    between atoms: N_2  and  C_3
REMARK    3  A    between atoms: N_2  and  S_4
REMARK    4  A    between atoms: S_4  and  N_7
REMARK    5  A    between atoms: C_11  and  C_12
REMARK    6  A    between atoms: N_16  and  C_17
REMARK    7  A    between atoms: C_17  and  C_18
REMARK                            x       y       z     vdW  Elec       q    Type
REMARK                         _______ _______ _______ _____ _____    ______ ____
ROOT
ATOM      1  N   UNL     1       4.049   6.054  17.134  0.00  0.00    +0.000 NA
ATOM      2  C   UNL     1       3.831   4.639  17.532  0.00  0.00    +0.000 C 
ATOM      3  C   UNL     1       2.356   4.409  17.840  0.00  0.00    +0.000 C 
ATOM      4  C   UNL     1       1.861   5.360  18.924  0.00  0.00    +0.000 C 
ATOM      5  C   UNL     1       2.119   6.823  18.523  0.00  0.00    +0.000 C 
ATOM      6  C   UNL     1       3.610   7.025  18.184  0.00  0.00    +0.000 C 
ENDROOT
BRANCH   5   7
ATOM      7  C   UNL     1       1.711   7.750  19.636  0.00  0.00    +0.000 A 
ATOM      8  N   UNL     1       1.761   7.419  20.916  0.00  0.00    +0.000 NA
ATOM      9  C   UNL     1       1.339   8.509  21.619  0.00  0.00    +0.000 A 
ATOM     10  C   UNL     1       1.023   9.535  20.763  0.00  0.00    +0.000 A 
ATOM     11  N   UNL     1       1.253   9.047  19.500  0.00  0.00    +0.000 N 
BRANCH  11  12
ATOM     12  C   UNL     1       1.105   9.845  18.289  0.00  0.00    +0.000 C 
BRANCH  12  13
ATOM     13  C   UNL     1      -0.266  10.453  18.188  0.00  0.00    +0.000 A 
ATOM     14  C   UNL     1      -0.563  11.707  18.737  0.00  0.00    +0.000 A 
ATOM     15  C   UNL     1      -1.871  12.186  18.704  0.00  0.00    +0.000 A 
ATOM     16  C   UNL     1      -2.843  11.400  18.109  0.00  0.00    +0.000 A 
ATOM     17  N   UNL     1      -2.587  10.209  17.528  0.00  0.00    +0.000 NA
ATOM     18  C   UNL     1      -1.311   9.766  17.581  0.00  0.00    +0.000 A 
ENDBRANCH  12  13
ENDBRANCH  11  12
ENDBRANCH   5   7
BRANCH   1  19
ATOM     19  S   UNL     1       5.589   6.364  16.484  0.00  0.00    +0.000 S 
ATOM     20  O   UNL     1       6.339   7.180  17.413  0.00  0.00    +0.000 OA
ATOM     21  O   UNL     1       5.472   6.723  15.093  0.00  0.00    +0.000 OA
BRANCH  19  23
ATOM     22  C   UNL     1       6.572   4.281  15.199  0.00  0.00    +0.000 C 
ATOM     23  N   UNL     1       6.268   4.802  16.556  0.00  0.00    +0.000 NA
ATOM     24  C   UNL     1       7.435   4.659  17.452  0.00  0.00    +0.000 C 
ENDBRANCH  19  23
ENDBRANCH   1  19
TORSDOF 5
ENDMDL
MODEL 9
REMARK VINA RESULT:      -6.6      3.145      5.700
REMARK  Name = 
REMARK  7 active torsions:
REMARK  status: ('A' for Active; 'I' for Inactive)
REMARK    1  A    between atoms: C_1  and  N_2
REMARK    2  A    between atoms: N_2  and  C_3
REMARK    3  A    between atoms: N_2  and  S_4
REMARK    4  A    between atoms: S_4  and  N_7
REMARK    5  A    between atoms: C_11  and  C_12
REMARK    6  A    between atoms: N_16  and  C_17
REMARK    7  A    between atoms: C_17  and  C_18
REMARK                            x       y       z     vdW  Elec       q    Type
REMARK                         _______ _______ _______ _____ _____    ______ ____
ROOT
ATOM      1  N   UNL     1       2.596   6.478  18.640  0.00  0.00    +0.000 NA
ATOM      2  C   UNL     1       2.632   6.209  20.102  0.00  0.00    +0.000 C 
ATOM      3  C   UNL     1       1.424   6.847  20.777  0.00  0.00    +0.000 C 
ATOM      4  C   UNL     1       1.362   8.346  20.502  0.00  0.00    +0.000 C 
ATOM      5  C   UNL     1       1.358   8.621  18.988  0.00  0.00    +0.000 C 
ATOM      6  C   UNL     1       2.569   7.939  18.321  0.00  0.00    +0.000 C 
ENDROOT
BRANCH   5   7
ATOM      7  C   UNL     1       1.388  10.103  18.725  0.00  0.00    +0.000 A 
ATOM      8  N   UNL     1       2.439  10.733  18.226  0.00  0.00    +0.000 NA
ATOM      9  C   UNL     1       2.089  12.046  18.111  0.00  0.00    +0.000 A 
ATOM     10  C   UNL     1       0.800  12.236  18.544  0.00  0.00    +0.000 A 
ATOM     11  N   UNL     1       0.358  10.998  18.942  0.00  0.00    +0.000 N 
BRANCH  11  12
ATOM     12  C   UNL     1      -0.997  10.740  19.412  0.00  0.00    +0.000 C 
BRANCH  12  13
ATOM     13  C   UNL     1      -1.983  10.709  18.279  0.00  0.00    +0.000 A 
ATOM     14  C   UNL     1      -1.798   9.891  17.157  0.00  0.00    +0.000 A 
ATOM     15  C   UNL     1      -2.687   9.969  16.087  0.00  0.00    +0.000 A 
ATOM     16  C   UNL     1      -3.747  10.854  16.178  0.00  0.00    +0.000 A 
ATOM     17  N   UNL     1      -3.986  11.623  17.261  0.00  0.00    +0.000 NA
ATOM     18  C   UNL     1      -3.103  11.532  18.281  0.00  0.00    +0.000 A 
ENDBRANCH  12  13
ENDBRANCH  11  12
ENDBRANCH   5   7
BRANCH   1  19
ATOM     19  S   UNL     1       3.721   5.577  17.739  0.00  0.00    +0.000 S 
ATOM     20  O   UNL     1       4.494   6.476  16.913  0.00  0.00    +0.000 OA
ATOM     21  O   UNL     1       3.084   4.408  17.186  0.00  0.00    +0.000 OA
BRANCH  19  23
ATOM     22  C   UNL     1       4.738   3.575  19.124  0.00  0.00    +0.000 C 
ATOM     23  N   UNL     1       4.758   5.054  18.987  0.00  0.00    +0.000 NA
ATOM     24  C   UNL     1       6.145   5.559  18.910  0.00  0.00    +0.000 C 
ENDBRANCH  19  23
ENDBRANCH   1  19
TORSDOF 5
ENDMDL
