MODEL 1
REMARK VINA RESULT:      -8.9      0.000      0.000
REMARK  Name = 
REMARK  6 active torsions:
REMARK  status: ('A' for Active; 'I' for Inactive)
REMARK    1  A    between atoms: C_1  and  O_2
REMARK    2  A    between atoms: O_2  and  C_3
REMARK    3  A    between atoms: C_3  and  C_5
REMARK    4  A    between atoms: C_9  and  C_10
REMARK    5  A    between atoms: C_13  and  N_14
REMARK    6  A    between atoms: C_15  and  C_17
REMARK                            x       y       z     vdW  Elec       q    Type
REMARK                         _______ _______ _______ _____ _____    ______ ____
ROOT
ATOM      1  C   UNL     1       2.572   6.986  18.769  0.00  0.00    +0.000 A 
ATOM      2  C   UNL     1       2.190   8.146  18.087  0.00  0.00    +0.000 A 
ATOM      3  C   UNL     1       1.441   9.149  18.719  0.00  0.00    +0.000 A 
ATOM      4  C   UNL     1       1.019   9.027  20.046  0.00  0.00    +0.000 A 
ATOM      5  C   UNL     1       1.440   7.897  20.750  0.00  0.00    +0.000 A 
ATOM      6  C   UNL     1       2.194   6.894  20.119  0.00  0.00    +0.000 A 
ENDROOT
BRANCH   1  11
ATOM      7  C   UNL     1       5.283   5.025  16.963  0.00  0.00    +0.000 A 
ATOM      8  C   UNL     1       4.604   3.843  16.654  0.00  0.00    +0.000 A 
ATOM      9  C   UNL     1       3.296   3.659  17.093  0.00  0.00    +0.000 A 
ATOM     10  C   UNL     1       2.658   4.667  17.818  0.00  0.00    +0.000 A 
ATOM     11  C   UNL     1       3.310   5.876  18.130  0.00  0.00    +0.000 A 
ATOM     12  C   UNL     1       4.645   6.021  17.716  0.00  0.00    +0.000 A 
BRANCH   7  13
ATOM     13  C   UNL     1       6.653   5.205  16.398  0.00  0.00    +0.000 C 
ATOM     14  O   UNL     1       7.656   4.898  16.980  0.00  0.00    +0.000 OA
BRANCH  13  16
ATOM     15  C   UNL     1       6.900   4.846  14.109  0.00  0.00    +0.000 C 
ATOM     16  O   UNL     1       6.579   5.762  15.156  0.00  0.00    +0.000 OA
ENDBRANCH  13  16
ENDBRANCH   7  13
ENDBRANCH   1  11
BRANCH   4  17
ATOM     17  N   UNL     1       0.172  10.007  20.648  0.00  0.00    +0.000 N 
ATOM     18  C   UNL     1       0.631  11.215  21.198  0.00  0.00    +0.000 C 
ATOM     19  O   UNL     1       1.786  11.595  21.267  0.00  0.00    +0.000 OA
ATOM     20  H   UNL     1      -0.818   9.813  20.656  0.00  0.00    +0.000 HD
BRANCH  18  21
ATOM     21  C   UNL     1      -0.372  12.110  21.831  0.00  0.00    +0.000 A 
ATOM     22  C   UNL     1      -0.031  13.473  21.833  0.00  0.00    +0.000 A 
ATOM     23  C   UNL     1      -0.858  14.409  22.436  0.00  0.00    +0.000 A 
ATOM     24  C   UNL     1      -2.058  13.999  23.007  0.00  0.00    +0.000 A 
ATOM     25  C   UNL     1      -2.983  14.962  23.404  0.00  0.00    +0.000 A 
ATOM     26  C   UNL     1      -4.229  14.563  23.863  0.00  0.00    +0.000 A 
ATOM     27  C   UNL     1      -4.430  13.244  24.254  0.00  0.00    +0.000 A 
ATOM     28  C   UNL     1      -3.521  12.268  23.848  0.00  0.00    +0.000 A 
ATOM     29  C   UNL     1      -2.378  12.623  23.107  0.00  0.00    +0.000 A 
ATOM     30  C   UNL     1      -1.540  11.681  22.467  0.00  0.00    +0.000 A 
ENDBRANCH  18  21
ENDBRANCH   4  17
TORSDOF 5
ENDMDL
MODEL 2
REMARK VINA RESULT:      -8.8      2.521     11.365
REMARK  Name = 
REMARK  6 active torsions:
REMARK  status: ('A' for Active; 'I' for Inactive)
REMARK    1  A    between atoms: C_1  and  O_2
REMARK    2  A    between atoms: O_2  and  C_3
REMARK    3  A    between atoms: C_3  and  C_5
REMARK    4  A    between atoms: C_9  and  C_10
REMARK    5  A    between atoms: C_13  and  N_14
REMARK    6  A    between atoms: C_15  and  C_17
REMARK                            x       y       z     vdW  Elec       q    Type
REMARK                         _______ _______ _______ _____ _____    ______ ____
ROOT
ATOM      1  C   UNL     1      -0.571  11.115  21.961  0.00  0.00    +0.000 A 
ATOM      2  C   UNL     1      -0.129  11.303  20.648  0.00  0.00    +0.000 A 
ATOM      3  C   UNL     1       0.595  10.310  19.972  0.00  0.00    +0.000 A 
ATOM      4  C   UNL     1       0.930   9.099  20.587  0.00  0.00    +0.000 A 
ATOM      5  C   UNL     1       0.449   8.881  21.879  0.00  0.00    +0.000 A 
ATOM      6  C   UNL     1      -0.280   9.875  22.554  0.00  0.00    +0.000 A 
ENDROOT
BRANCH   1  11
ATOM      7  C   UNL     1      -3.326  13.008  23.772  0.00  0.00    +0.000 A 
ATOM      8  C   UNL     1      -2.726  14.258  23.950  0.00  0.00    +0.000 A 
ATOM      9  C   UNL     1      -1.409  14.460  23.546  0.00  0.00    +0.000 A 
ATOM     10  C   UNL     1      -0.702  13.420  22.941  0.00  0.00    +0.000 A 
ATOM     11  C   UNL     1      -1.285  12.155  22.733  0.00  0.00    +0.000 A 
ATOM     12  C   UNL     1      -2.598  11.961  23.190  0.00  0.00    +0.000 A 
BRANCH   7  13
ATOM     13  C   UNL     1      -4.764  12.871  24.148  0.00  0.00    +0.000 C 
ATOM     14  O   UNL     1      -5.180  12.018  24.882  0.00  0.00    +0.000 OA
BRANCH  13  16
ATOM     15  C   UNL     1      -6.192  13.372  22.376  0.00  0.00    +0.000 C 
ATOM     16  O   UNL     1      -5.504  13.840  23.536  0.00  0.00    +0.000 OA
ENDBRANCH  13  16
ENDBRANCH   7  13
ENDBRANCH   1  11
BRANCH   4  17
ATOM     17  N   UNL     1       1.754   8.136  19.926  0.00  0.00    +0.000 N 
ATOM     18  C   UNL     1       2.012   8.135  18.545  0.00  0.00    +0.000 C 
ATOM     19  O   UNL     1       1.573   8.913  17.718  0.00  0.00    +0.000 OA
ATOM     20  H   UNL     1       2.183   7.429  20.503  0.00  0.00    +0.000 HD
BRANCH  18  21
ATOM     21  C   UNL     1       2.853   7.036  18.003  0.00  0.00    +0.000 A 
ATOM     22  C   UNL     1       2.344   5.744  18.211  0.00  0.00    +0.000 A 
ATOM     23  C   UNL     1       3.055   4.628  17.799  0.00  0.00    +0.000 A 
ATOM     24  C   UNL     1       4.265   4.791  17.133  0.00  0.00    +0.000 A 
ATOM     25  C   UNL     1       4.858   3.688  16.523  0.00  0.00    +0.000 A 
ATOM     26  C   UNL     1       6.001   3.863  15.757  0.00  0.00    +0.000 A 
ATOM     27  C   UNL     1       6.739   5.034  15.879  0.00  0.00    +0.000 A 
ATOM     28  C   UNL     1       6.151   6.151  16.470  0.00  0.00    +0.000 A 
ATOM     29  C   UNL     1       4.848   6.075  16.998  0.00  0.00    +0.000 A 
ATOM     30  C   UNL     1       4.103   7.206  17.401  0.00  0.00    +0.000 A 
ENDBRANCH  18  21
ENDBRANCH   4  17
TORSDOF 5
ENDMDL
MODEL 3
REMARK VINA RESULT:      -8.6      1.766      2.810
REMARK  Name = 
REMARK  6 active torsions:
REMARK  status: ('A' for Active; 'I' for Inactive)
REMARK    1  A    between atoms: C_1  and  O_2
REMARK    2  A    between atoms: O_2  and  C_3
REMARK    3  A    between atoms: C_3  and  C_5
REMARK    4  A    between atoms: C_9  and  C_10
REMARK    5  A    between atoms: C_13  and  N_14
REMARK    6  A    between atoms: C_15  and  C_17
REMARK                            x       y       z     vdW  Elec       q    Type
REMARK                         _______ _______ _______ _____ _____    ______ ____
ROOT
ATOM      1  C   UNL     1       2.207   7.702  18.823  0.00  0.00    +0.000 A 
ATOM      2  C   UNL     1       1.744   8.890  18.248  0.00  0.00    +0.000 A 
ATOM      3  C   UNL     1       0.998   9.817  18.990  0.00  0.00    +0.000 A 
ATOM      4  C   UNL     1       0.659   9.586  20.327  0.00  0.00    +0.000 A 
ATOM      5  C   UNL     1       1.160   8.428  20.924  0.00  0.00    +0.000 A 
ATOM      6  C   UNL     1       1.912   7.502  20.182  0.00  0.00    +0.000 A 
ENDROOT
BRANCH   1  11
ATOM      7  C   UNL     1       3.404   4.323  17.557  0.00  0.00    +0.000 A 
ATOM      8  C   UNL     1       4.548   4.690  16.842  0.00  0.00    +0.000 A 
ATOM      9  C   UNL     1       4.885   6.034  16.715  0.00  0.00    +0.000 A 
ATOM     10  C   UNL     1       4.094   7.009  17.324  0.00  0.00    +0.000 A 
ATOM     11  C   UNL     1       2.946   6.669  18.066  0.00  0.00    +0.000 A 
ATOM     12  C   UNL     1       2.599   5.310  18.142  0.00  0.00    +0.000 A 
BRANCH   7  13
ATOM     13  C   UNL     1       3.134   2.865  17.731  0.00  0.00    +0.000 C 
ATOM     14  O   UNL     1       2.163   2.312  17.295  0.00  0.00    +0.000 OA
BRANCH  13  16
ATOM     15  C   UNL     1       3.981   2.433  19.859  0.00  0.00    +0.000 C 
ATOM     16  O   UNL     1       4.139   2.284  18.449  0.00  0.00    +0.000 OA
ENDBRANCH  13  16
ENDBRANCH   7  13
ENDBRANCH   1  11
BRANCH   4  17
ATOM     17  N   UNL     1      -0.187  10.487  21.043  0.00  0.00    +0.000 N 
ATOM     18  C   UNL     1       0.217  11.753  21.500  0.00  0.00    +0.000 C 
ATOM     19  O   UNL     1       1.320  12.255  21.381  0.00  0.00    +0.000 OA
ATOM     20  H   UNL     1      -1.136  10.189  21.209  0.00  0.00    +0.000 HD
BRANCH  18  21
ATOM     21  C   UNL     1      -0.768  12.554  22.272  0.00  0.00    +0.000 A 
ATOM     22  C   UNL     1      -1.860  11.825  22.773  0.00  0.00    +0.000 A 
ATOM     23  C   UNL     1      -2.877  12.461  23.468  0.00  0.00    +0.000 A 
ATOM     24  C   UNL     1      -2.794  13.828  23.709  0.00  0.00    +0.000 A 
ATOM     25  C   UNL     1      -3.693  14.416  24.596  0.00  0.00    +0.000 A 
ATOM     26  C   UNL     1      -3.543  15.753  24.935  0.00  0.00    +0.000 A 
ATOM     27  C   UNL     1      -2.745  16.577  24.150  0.00  0.00    +0.000 A 
ATOM     28  C   UNL     1      -1.828  16.002  23.271  0.00  0.00    +0.000 A 
ATOM     29  C   UNL     1      -1.757  14.602  23.132  0.00  0.00    +0.000 A 
ATOM     30  C   UNL     1      -0.714  13.939  22.446  0.00  0.00    +0.000 A 
ENDBRANCH  18  21
ENDBRANCH   4  17
TORSDOF 5
ENDMDL
MODEL 4
REMARK VINA RESULT:      -8.6      0.905      1.099
REMARK  Name = 
REMARK  6 active torsions:
REMARK  status: ('A' for Active; 'I' for Inactive)
REMARK    1  A    between atoms: C_1  and  O_2
REMARK    2  A    between atoms: O_2  and  C_3
REMARK    3  A    between atoms: C_3  and  C_5
REMARK    4  A    between atoms: C_9  and  C_10
REMARK    5  A    between atoms: C_13  and  N_14
REMARK    6  A    between atoms: C_15  and  C_17
REMARK                            x       y       z     vdW  Elec       q    Type
REMARK                         _______ _______ _______ _____ _____    ______ ____
ROOT
ATOM      1  C   UNL     1       2.731   7.137  18.625  0.00  0.00    +0.000 A 
ATOM      2  C   UNL     1       2.372   8.253  17.863  0.00  0.00    +0.000 A 
ATOM      3  C   UNL     1       1.563   9.268  18.393  0.00  0.00    +0.000 A 
ATOM      4  C   UNL     1       1.058   9.201  19.695  0.00  0.00    +0.000 A 
ATOM      5  C   UNL     1       1.453   8.117  20.481  0.00  0.00    +0.000 A 
ATOM      6  C   UNL     1       2.268   7.102  19.951  0.00  0.00    +0.000 A 
ENDROOT
BRANCH   1  11
ATOM      7  C   UNL     1       5.639   5.127  17.226  0.00  0.00    +0.000 A 
ATOM      8  C   UNL     1       4.988   3.964  16.803  0.00  0.00    +0.000 A 
ATOM      9  C   UNL     1       3.625   3.809  17.036  0.00  0.00    +0.000 A 
ATOM     10  C   UNL     1       2.908   4.825  17.669  0.00  0.00    +0.000 A 
ATOM     11  C   UNL     1       3.533   6.015  18.091  0.00  0.00    +0.000 A 
ATOM     12  C   UNL     1       4.918   6.131  17.887  0.00  0.00    +0.000 A 
BRANCH   7  13
ATOM     13  C   UNL     1       7.084   5.277  16.878  0.00  0.00    +0.000 C 
ATOM     14  O   UNL     1       7.879   4.381  16.943  0.00  0.00    +0.000 OA
BRANCH  13  16
ATOM     15  C   UNL     1       7.806   7.384  17.563  0.00  0.00    +0.000 C 
ATOM     16  O   UNL     1       7.342   6.560  16.494  0.00  0.00    +0.000 OA
ENDBRANCH  13  16
ENDBRANCH   7  13
ENDBRANCH   1  11
BRANCH   4  17
ATOM     17  N   UNL     1       0.153  10.189  20.192  0.00  0.00    +0.000 N 
ATOM     18  C   UNL     1       0.173  10.687  21.505  0.00  0.00    +0.000 C 
ATOM     19  O   UNL     1       0.924  10.353  22.403  0.00  0.00    +0.000 OA
ATOM     20  H   UNL     1      -0.526  10.554  19.542  0.00  0.00    +0.000 HD
BRANCH  18  21
ATOM     21  C   UNL     1      -0.866  11.681  21.881  0.00  0.00    +0.000 A 
ATOM     22  C   UNL     1      -0.734  12.937  21.266  0.00  0.00    +0.000 A 
ATOM     23  C   UNL     1      -1.609  13.969  21.568  0.00  0.00    +0.000 A 
ATOM     24  C   UNL     1      -2.655  13.745  22.457  0.00  0.00    +0.000 A 
ATOM     25  C   UNL     1      -3.657  14.705  22.581  0.00  0.00    +0.000 A 
ATOM     26  C   UNL     1      -4.762  14.440  23.375  0.00  0.00    +0.000 A 
ATOM     27  C   UNL     1      -4.714  13.404  24.300  0.00  0.00    +0.000 A 
ATOM     28  C   UNL     1      -3.728  12.426  24.176  0.00  0.00    +0.000 A 
ATOM     29  C   UNL     1      -2.751  12.523  23.166  0.00  0.00    +0.000 A 
ATOM     30  C   UNL     1      -1.869  11.471  22.832  0.00  0.00    +0.000 A 
ENDBRANCH  18  21
ENDBRANCH   4  17
TORSDOF 5
ENDMDL
MODEL 5
REMARK VINA RESULT:      -8.6      1.032      1.272
REMARK  Name = 
REMARK  6 active torsions:
REMARK  status: ('A' for Active; 'I' for Inactive)
REMARK    1  A    between atoms: C_1  and  O_2
REMARK    2  A    between atoms: O_2  and  C_3
REMARK    3  A    between atoms: C_3  and  C_5
REMARK    4  A    between atoms: C_9  and  C_10
REMARK    5  A    between atoms: C_13  and  N_14
REMARK    6  A    between atoms: C_15  and  C_17
REMARK                            x       y       z     vdW  Elec       q    Type
REMARK                         _______ _______ _______ _____ _____    ______ ____
ROOT
ATOM      1  C   UNL     1       2.743   7.268  18.433  0.00  0.00    +0.000 A 
ATOM      2  C   UNL     1       2.382   8.383  17.670  0.00  0.00    +0.000 A 
ATOM      3  C   UNL     1       1.528   9.371  18.182  0.00  0.00    +0.000 A 
ATOM      4  C   UNL     1       0.978   9.275  19.464  0.00  0.00    +0.000 A 
ATOM      5  C   UNL     1       1.374   8.194  20.252  0.00  0.00    +0.000 A 
ATOM      6  C   UNL     1       2.234   7.206  19.741  0.00  0.00    +0.000 A 
ENDROOT
BRANCH   1  11
ATOM      7  C   UNL     1       5.642   5.402  16.830  0.00  0.00    +0.000 A 
ATOM      8  C   UNL     1       5.089   4.128  16.668  0.00  0.00    +0.000 A 
ATOM      9  C   UNL     1       3.808   3.862  17.142  0.00  0.00    +0.000 A 
ATOM     10  C   UNL     1       3.070   4.876  17.754  0.00  0.00    +0.000 A 
ATOM     11  C   UNL     1       3.592   6.174  17.916  0.00  0.00    +0.000 A 
ATOM     12  C   UNL     1       4.904   6.407  17.472  0.00  0.00    +0.000 A 
BRANCH   7  13
ATOM     13  C   UNL     1       6.986   5.654  16.231  0.00  0.00    +0.000 C 
ATOM     14  O   UNL     1       7.638   6.636  16.454  0.00  0.00    +0.000 OA
BRANCH  13  16
ATOM     15  C   UNL     1       7.225   4.943  14.025  0.00  0.00    +0.000 C 
ATOM     16  O   UNL     1       7.336   4.622  15.411  0.00  0.00    +0.000 OA
ENDBRANCH  13  16
ENDBRANCH   7  13
ENDBRANCH   1  11
BRANCH   4  17
ATOM     17  N   UNL     1       0.030  10.234  19.937  0.00  0.00    +0.000 N 
ATOM     18  C   UNL     1       0.187  10.981  21.117  0.00  0.00    +0.000 C 
ATOM     19  O   UNL     1       1.112  10.916  21.906  0.00  0.00    +0.000 OA
ATOM     20  H   UNL     1      -0.789  10.385  19.370  0.00  0.00    +0.000 HD
BRANCH  18  21
ATOM     21  C   UNL     1      -0.912  11.906  21.498  0.00  0.00    +0.000 A 
ATOM     22  C   UNL     1      -1.880  12.116  20.502  0.00  0.00    +0.000 A 
ATOM     23  C   UNL     1      -2.931  12.995  20.711  0.00  0.00    +0.000 A 
ATOM     24  C   UNL     1      -3.053  13.643  21.936  0.00  0.00    +0.000 A 
ATOM     25  C   UNL     1      -4.225  14.340  22.221  0.00  0.00    +0.000 A 
ATOM     26  C   UNL     1      -4.404  14.888  23.482  0.00  0.00    +0.000 A 
ATOM     27  C   UNL     1      -3.311  15.048  24.325  0.00  0.00    +0.000 A 
ATOM     28  C   UNL     1      -2.138  14.342  24.062  0.00  0.00    +0.000 A 
ATOM     29  C   UNL     1      -2.039  13.526  22.918  0.00  0.00    +0.000 A 
ATOM     30  C   UNL     1      -0.986  12.609  22.704  0.00  0.00    +0.000 A 
ENDBRANCH  18  21
ENDBRANCH   4  17
TORSDOF 5
ENDMDL
MODEL 6
REMARK VINA RESULT:      -8.6      1.967      3.057
REMARK  Name = 
REMARK  6 active torsions:
REMARK  status: ('A' for Active; 'I' for Inactive)
REMARK    1  A    between atoms: C_1  and  O_2
REMARK    2  A    between atoms: O_2  and  C_3
REMARK    3  A    between atoms: C_3  and  C_5
REMARK    4  A    between atoms: C_9  and  C_10
REMARK    5  A    between atoms: C_13  and  N_14
REMARK    6  A    between atoms: C_15  and  C_17
REMARK                            x       y       z     vdW  Elec       q    Type
REMARK                         _______ _______ _______ _____ _____    ______ ____
ROOT
ATOM      1  C   UNL     1       2.195   7.948  18.776  0.00  0.00    +0.000 A 
ATOM      2  C   UNL     1       1.849   9.154  18.158  0.00  0.00    +0.000 A 
ATOM      3  C   UNL     1       1.151  10.154  18.851  0.00  0.00    +0.000 A 
ATOM      4  C   UNL     1       0.747   9.983  20.178  0.00  0.00    +0.000 A 
ATOM      5  C   UNL     1       1.132   8.805  20.819  0.00  0.00    +0.000 A 
ATOM      6  C   UNL     1       1.835   7.804  20.126  0.00  0.00    +0.000 A 
ENDROOT
BRANCH   1  11
ATOM      7  C   UNL     1       3.120   4.460  17.577  0.00  0.00    +0.000 A 
ATOM      8  C   UNL     1       4.350   4.703  16.958  0.00  0.00    +0.000 A 
ATOM      9  C   UNL     1       4.839   6.003  16.871  0.00  0.00    +0.000 A 
ATOM     10  C   UNL     1       4.111   7.057  17.425  0.00  0.00    +0.000 A 
ATOM     11  C   UNL     1       2.877   6.842  18.070  0.00  0.00    +0.000 A 
ATOM     12  C   UNL     1       2.381   5.528  18.105  0.00  0.00    +0.000 A 
BRANCH   7  13
ATOM     13  C   UNL     1       2.682   3.040  17.715  0.00  0.00    +0.000 C 
ATOM     14  O   UNL     1       3.440   2.110  17.734  0.00  0.00    +0.000 OA
BRANCH  13  16
ATOM     15  C   UNL     1       0.869   2.249  18.947  0.00  0.00    +0.000 C 
ATOM     16  O   UNL     1       1.322   2.975  17.805  0.00  0.00    +0.000 OA
ENDBRANCH  13  16
ENDBRANCH   7  13
ENDBRANCH   1  11
BRANCH   4  17
ATOM     17  N   UNL     1      -0.051  10.965  20.842  0.00  0.00    +0.000 N 
ATOM     18  C   UNL     1      -0.213  11.038  22.236  0.00  0.00    +0.000 C 
ATOM     19  O   UNL     1       0.266  10.289  23.068  0.00  0.00    +0.000 OA
ATOM     20  H   UNL     1      -0.506  11.653  20.262  0.00  0.00    +0.000 HD
BRANCH  18  21
ATOM     21  C   UNL     1      -1.114  12.091  22.771  0.00  0.00    +0.000 A 
ATOM     22  C   UNL     1      -2.367  11.631  23.209  0.00  0.00    +0.000 A 
ATOM     23  C   UNL     1      -3.320  12.518  23.685  0.00  0.00    +0.000 A 
ATOM     24  C   UNL     1      -3.018  13.873  23.768  0.00  0.00    +0.000 A 
ATOM     25  C   UNL     1      -3.885  14.721  24.453  0.00  0.00    +0.000 A 
ATOM     26  C   UNL     1      -3.533  16.048  24.645  0.00  0.00    +0.000 A 
ATOM     27  C   UNL     1      -2.521  16.610  23.877  0.00  0.00    +0.000 A 
ATOM     28  C   UNL     1      -1.634  15.773  23.201  0.00  0.00    +0.000 A 
ATOM     29  C   UNL     1      -1.802  14.375  23.241  0.00  0.00    +0.000 A 
ATOM     30  C   UNL     1      -0.829  13.459  22.782  0.00  0.00    +0.000 A 
ENDBRANCH  18  21
ENDBRANCH   4  17
TORSDOF 5
ENDMDL
MODEL 7
REMARK VINA RESULT:      -8.6      1.013      1.601
REMARK  Name = 
REMARK  6 active torsions:
REMARK  status: ('A' for Active; 'I' for Inactive)
REMARK    1  A    between atoms: C_1  and  O_2
REMARK    2  A    between atoms: O_2  and  C_3
REMARK    3  A    between atoms: C_3  and  C_5
REMARK    4  A    between atoms: C_9  and  C_10
REMARK    5  A    between atoms: C_13  and  N_14
REMARK    6  A    between atoms: C_15  and  C_17
REMARK                            x       y       z     vdW  Elec       q    Type
REMARK                         _______ _______ _______ _____ _____    ______ ____
ROOT
ATOM      1  C   UNL     1       2.618   7.192  18.641  0.00  0.00    +0.000 A 
ATOM      2  C   UNL     1       2.212   8.299  17.888  0.00  0.00    +0.000 A 
ATOM      3  C   UNL     1       1.376   9.284  18.434  0.00  0.00    +0.000 A 
ATOM      4  C   UNL     1       0.888   9.193  19.741  0.00  0.00    +0.000 A 
ATOM      5  C   UNL     1       1.329   8.119  20.516  0.00  0.00    +0.000 A 
ATOM      6  C   UNL     1       2.172   7.135  19.971  0.00  0.00    +0.000 A 
ENDROOT
BRANCH   1  11
ATOM      7  C   UNL     1       5.566   5.296  17.167  0.00  0.00    +0.000 A 
ATOM      8  C   UNL     1       4.953   4.102  16.776  0.00  0.00    +0.000 A 
ATOM      9  C   UNL     1       3.606   3.889  17.055  0.00  0.00    +0.000 A 
ATOM     10  C   UNL     1       2.866   4.880  17.701  0.00  0.00    +0.000 A 
ATOM     11  C   UNL     1       3.451   6.100  18.091  0.00  0.00    +0.000 A 
ATOM     12  C   UNL     1       4.822   6.274  17.841  0.00  0.00    +0.000 A 
BRANCH   7  13
ATOM     13  C   UNL     1       6.990   5.505  16.771  0.00  0.00    +0.000 C 
ATOM     14  O   UNL     1       7.325   6.128  15.802  0.00  0.00    +0.000 OA
BRANCH  13  16
ATOM     15  C   UNL     1       7.870   5.538  18.929  0.00  0.00    +0.000 C 
ATOM     16  O   UNL     1       7.819   4.887  17.660  0.00  0.00    +0.000 OA
ENDBRANCH  13  16
ENDBRANCH   7  13
ENDBRANCH   1  11
BRANCH   4  17
ATOM     17  N   UNL     1      -0.044  10.147  20.253  0.00  0.00    +0.000 N 
ATOM     18  C   UNL     1       0.323  11.328  20.920  0.00  0.00    +0.000 C 
ATOM     19  O   UNL     1       1.453  11.701  21.177  0.00  0.00    +0.000 OA
ATOM     20  H   UNL     1      -1.023   9.956  20.103  0.00  0.00    +0.000 HD
BRANCH  18  21
ATOM     21  C   UNL     1      -0.767  12.196  21.434  0.00  0.00    +0.000 A 
ATOM     22  C   UNL     1      -1.837  12.392  20.545  0.00  0.00    +0.000 A 
ATOM     23  C   UNL     1      -2.896  13.220  20.882  0.00  0.00    +0.000 A 
ATOM     24  C   UNL     1      -2.920  13.832  22.131  0.00  0.00    +0.000 A 
ATOM     25  C   UNL     1      -4.083  14.473  22.550  0.00  0.00    +0.000 A 
ATOM     26  C   UNL     1      -4.157  14.980  23.838  0.00  0.00    +0.000 A 
ATOM     27  C   UNL     1      -2.993  15.165  24.574  0.00  0.00    +0.000 A 
ATOM     28  C   UNL     1      -1.825  14.514  24.176  0.00  0.00    +0.000 A 
ATOM     29  C   UNL     1      -1.809  13.732  23.005  0.00  0.00    +0.000 A 
ATOM     30  C   UNL     1      -0.748  12.866  22.661  0.00  0.00    +0.000 A 
ENDBRANCH  18  21
ENDBRANCH   4  17
TORSDOF 5
ENDMDL
MODEL 8
REMARK VINA RESULT:      -8.5      1.080      1.918
REMARK  Name = 
REMARK  6 active torsions:
REMARK  status: ('A' for Active; 'I' for Inactive)
REMARK    1  A    between atoms: C_1  and  O_2
REMARK    2  A    between atoms: O_2  and  C_3
REMARK    3  A    between atoms: C_3  and  C_5
REMARK    4  A    between atoms: C_9  and  C_10
REMARK    5  A    between atoms: C_13  and  N_14
REMARK    6  A    between atoms: C_15  and  C_17
REMARK                            x       y       z     vdW  Elec       q    Type
REMARK                         _______ _______ _______ _____ _____    ______ ____
ROOT
ATOM      1  C   UNL     1       2.235   7.593  18.925  0.00  0.00    +0.000 A 
ATOM      2  C   UNL     1       1.916   8.778  18.254  0.00  0.00    +0.000 A 
ATOM      3  C   UNL     1       1.220   9.813  18.894  0.00  0.00    +0.000 A 
ATOM      4  C   UNL     1       0.791   9.701  20.220  0.00  0.00    +0.000 A 
ATOM      5  C   UNL     1       1.151   8.544  20.914  0.00  0.00    +0.000 A 
ATOM      6  C   UNL     1       1.852   7.508  20.274  0.00  0.00    +0.000 A 
ENDROOT
BRANCH   1  11
ATOM      7  C   UNL     1       4.726   5.555  16.901  0.00  0.00    +0.000 A 
ATOM      8  C   UNL     1       4.056   4.333  16.794  0.00  0.00    +0.000 A 
ATOM      9  C   UNL     1       2.834   4.154  17.436  0.00  0.00    +0.000 A 
ATOM     10  C   UNL     1       2.271   5.203  18.163  0.00  0.00    +0.000 A 
ATOM     11  C   UNL     1       2.914   6.451  18.275  0.00  0.00    +0.000 A 
ATOM     12  C   UNL     1       4.167   6.595  17.657  0.00  0.00    +0.000 A 
BRANCH   7  13
ATOM     13  C   UNL     1       5.992   5.721  16.126  0.00  0.00    +0.000 C 
ATOM     14  O   UNL     1       6.044   5.704  14.928  0.00  0.00    +0.000 OA
BRANCH  13  16
ATOM     15  C   UNL     1       7.488   4.658  17.563  0.00  0.00    +0.000 C 
ATOM     16  O   UNL     1       7.045   5.882  16.978  0.00  0.00    +0.000 OA
ENDBRANCH  13  16
ENDBRANCH   7  13
ENDBRANCH   1  11
BRANCH   4  17
ATOM     17  N   UNL     1      -0.004  10.719  20.831  0.00  0.00    +0.000 N 
ATOM     18  C   UNL     1      -0.156  10.873  22.219  0.00  0.00    +0.000 C 
ATOM     19  O   UNL     1       0.329  10.174  23.090  0.00  0.00    +0.000 OA
ATOM     20  H   UNL     1      -0.464  11.371  20.215  0.00  0.00    +0.000 HD
BRANCH  18  21
ATOM     21  C   UNL     1      -1.056  11.954  22.698  0.00  0.00    +0.000 A 
ATOM     22  C   UNL     1      -2.276  11.513  23.237  0.00  0.00    +0.000 A 
ATOM     23  C   UNL     1      -3.227  12.422  23.675  0.00  0.00    +0.000 A 
ATOM     24  C   UNL     1      -2.953  13.785  23.617  0.00  0.00    +0.000 A 
ATOM     25  C   UNL     1      -3.807  14.676  24.263  0.00  0.00    +0.000 A 
ATOM     26  C   UNL     1      -3.478  16.022  24.312  0.00  0.00    +0.000 A 
ATOM     27  C   UNL     1      -2.516  16.529  23.447  0.00  0.00    +0.000 A 
ATOM     28  C   UNL     1      -1.643  15.649  22.809  0.00  0.00    +0.000 A 
ATOM     29  C   UNL     1      -1.776  14.259  22.987  0.00  0.00    +0.000 A 
ATOM     30  C   UNL     1      -0.804  13.323  22.568  0.00  0.00    +0.000 A 
ENDBRANCH  18  21
ENDBRANCH   4  17
TORSDOF 5
ENDMDL
MODEL 9
REMARK VINA RESULT:      -8.5      1.891      2.791
REMARK  Name = 
REMARK  6 active torsions:
REMARK  status: ('A' for Active; 'I' for Inactive)
REMARK    1  A    between atoms: C_1  and  O_2
REMARK    2  A    between atoms: O_2  and  C_3
REMARK    3  A    between atoms: C_3  and  C_5
REMARK    4  A    between atoms: C_9  and  C_10
REMARK    5  A    between atoms: C_13  and  N_14
REMARK    6  A    between atoms: C_15  and  C_17
REMARK                            x       y       z     vdW  Elec       q    Type
REMARK                         _______ _______ _______ _____ _____    ______ ____
ROOT
ATOM      1  C   UNL     1       2.194   7.844  18.611  0.00  0.00    +0.000 A 
ATOM      2  C   UNL     1       1.711   8.961  17.922  0.00  0.00    +0.000 A 
ATOM      3  C   UNL     1       0.932   9.933  18.565  0.00  0.00    +0.000 A 
ATOM      4  C   UNL     1       0.580   9.820  19.913  0.00  0.00    +0.000 A 
ATOM      5  C   UNL     1       1.101   8.736  20.623  0.00  0.00    +0.000 A 
ATOM      6  C   UNL     1       1.885   7.764  19.979  0.00  0.00    +0.000 A 
ENDROOT
BRANCH   1  11
ATOM      7  C   UNL     1       3.376   4.389  17.550  0.00  0.00    +0.000 A 
ATOM      8  C   UNL     1       4.610   4.691  16.967  0.00  0.00    +0.000 A 
ATOM      9  C   UNL     1       5.021   6.016  16.859  0.00  0.00    +0.000 A 
ATOM     10  C   UNL     1       4.210   7.037  17.355  0.00  0.00    +0.000 A 
ATOM     11  C   UNL     1       2.969   6.764  17.963  0.00  0.00    +0.000 A 
ATOM     12  C   UNL     1       2.554   5.423  18.020  0.00  0.00    +0.000 A 
BRANCH   7  13
ATOM     13  C   UNL     1       3.021   2.948  17.715  0.00  0.00    +0.000 C 
ATOM     14  O   UNL     1       3.829   2.084  17.912  0.00  0.00    +0.000 OA
BRANCH  13  16
ATOM     15  C   UNL     1       1.074   2.230  18.774  0.00  0.00    +0.000 C 
ATOM     16  O   UNL     1       1.672   2.781  17.601  0.00  0.00    +0.000 OA
ENDBRANCH  13  16
ENDBRANCH   7  13
ENDBRANCH   1  11
BRANCH   4  17
ATOM     17  N   UNL     1      -0.298  10.762  20.532  0.00  0.00    +0.000 N 
ATOM     18  C   UNL     1       0.132  11.939  21.168  0.00  0.00    +0.000 C 
ATOM     19  O   UNL     1       1.281  12.318  21.307  0.00  0.00    +0.000 OA
ATOM     20  H   UNL     1      -1.285  10.565  20.487  0.00  0.00    +0.000 HD
BRANCH  18  21
ATOM     21  C   UNL     1      -0.902  12.795  21.806  0.00  0.00    +0.000 A 
ATOM     22  C   UNL     1      -2.073  12.969  21.050  0.00  0.00    +0.000 A 
ATOM     23  C   UNL     1      -3.097  13.785  21.508  0.00  0.00    +0.000 A 
ATOM     24  C   UNL     1      -2.980  14.402  22.749  0.00  0.00    +0.000 A 
ATOM     25  C   UNL     1      -4.095  15.029  23.302  0.00  0.00    +0.000 A 
ATOM     26  C   UNL     1      -4.022  15.542  24.588  0.00  0.00    +0.000 A 
ATOM     27  C   UNL     1      -2.781  15.748  25.178  0.00  0.00    +0.000 A 
ATOM     28  C   UNL     1      -1.660  15.112  24.646  0.00  0.00    +0.000 A 
ATOM     29  C   UNL     1      -1.772  14.324  23.484  0.00  0.00    +0.000 A 
ATOM     30  C   UNL     1      -0.746  13.471  23.019  0.00  0.00    +0.000 A 
ENDBRANCH  18  21
ENDBRANCH   4  17
TORSDOF 5
ENDMDL
