MODEL 1
REMARK VINA RESULT:      -6.8      0.000      0.000
REMARK  Name = 
REMARK  3 active torsions:
REMARK  status: ('A' for Active; 'I' for Inactive)
REMARK    1  A    between atoms: C_1  and  S_2
REMARK    2  A    between atoms: S_2  and  C_5
REMARK    3  A    between atoms: C_8  and  C_9
REMARK                            x       y       z     vdW  Elec       q    Type
REMARK                         _______ _______ _______ _____ _____    ______ ____
ROOT
ATOM      1  C   UNL     1       5.667   4.864  18.217  0.00  0.00    +0.000 A 
ATOM      2  C   UNL     1       4.880   5.231  19.311  0.00  0.00    +0.000 A 
ATOM      3  C   UNL     1       3.523   4.903  19.325  0.00  0.00    +0.000 A 
ATOM      4  C   UNL     1       2.943   4.215  18.247  0.00  0.00    +0.000 A 
ATOM      5  C   UNL     1       3.746   3.876  17.144  0.00  0.00    +0.000 A 
ATOM      6  C   UNL     1       5.105   4.198  17.125  0.00  0.00    +0.000 A 
ENDROOT
BRANCH   1   8
ATOM      7  C   UNL     1       7.496   6.846  17.520  0.00  0.00    +0.000 C 
ATOM      8  S   UNL     1       7.414   5.222  18.236  0.00  0.00    +0.000 S 
ATOM      9  N   UNL     1       8.064   4.230  17.253  0.00  0.00    +0.000 NA
ATOM     10  O   UNL     1       7.807   5.354  19.624  0.00  0.00    +0.000 OA
ATOM     11  H   UNL     1       9.082   4.262  17.330  0.00  0.00    +0.000 HD
ENDBRANCH   1   8
BRANCH   4  12
ATOM     12  C   UNL     1       1.481   3.837  18.259  0.00  0.00    +0.000 C 
ATOM     13  F   UNL     1       0.847   4.152  19.423  0.00  0.00    +0.000 F 
ATOM     14  F   UNL     1       0.773   4.448  17.269  0.00  0.00    +0.000 F 
ATOM     15  F   UNL     1       1.291   2.500  18.084  0.00  0.00    +0.000 F 
ENDBRANCH   4  12
TORSDOF 2
ENDMDL
MODEL 2
REMARK VINA RESULT:      -6.7      1.168      1.539
REMARK  Name = 
REMARK  3 active torsions:
REMARK  status: ('A' for Active; 'I' for Inactive)
REMARK    1  A    between atoms: C_1  and  S_2
REMARK    2  A    between atoms: S_2  and  C_5
REMARK    3  A    between atoms: C_8  and  C_9
REMARK                            x       y       z     vdW  Elec       q    Type
REMARK                         _______ _______ _______ _____ _____    ______ ____
ROOT
ATOM      1  C   UNL     1       5.689   4.994  17.756  0.00  0.00    +0.000 A 
ATOM      2  C   UNL     1       4.966   5.437  18.866  0.00  0.00    +0.000 A 
ATOM      3  C   UNL     1       3.626   5.073  19.006  0.00  0.00    +0.000 A 
ATOM      4  C   UNL     1       2.998   4.272  18.037  0.00  0.00    +0.000 A 
ATOM      5  C   UNL     1       3.736   3.855  16.915  0.00  0.00    +0.000 A 
ATOM      6  C   UNL     1       5.078   4.214  16.772  0.00  0.00    +0.000 A 
ENDROOT
BRANCH   1   8
ATOM      7  C   UNL     1       7.863   5.827  19.287  0.00  0.00    +0.000 C 
ATOM      8  S   UNL     1       7.419   5.402  17.619  0.00  0.00    +0.000 S 
ATOM      9  N   UNL     1       7.490   6.681  16.763  0.00  0.00    +0.000 NA
ATOM     10  O   UNL     1       8.123   4.178  17.295  0.00  0.00    +0.000 OA
ATOM     11  H   UNL     1       8.456   6.887  16.503  0.00  0.00    +0.000 HD
ENDBRANCH   1   8
BRANCH   4  12
ATOM     12  C   UNL     1       1.554   3.854  18.187  0.00  0.00    +0.000 C 
ATOM     13  F   UNL     1       1.363   2.510  18.072  0.00  0.00    +0.000 F 
ATOM     14  F   UNL     1       1.029   4.206  19.392  0.00  0.00    +0.000 F 
ATOM     15  F   UNL     1       0.751   4.425  17.247  0.00  0.00    +0.000 F 
ENDBRANCH   4  12
TORSDOF 2
ENDMDL
MODEL 3
REMARK VINA RESULT:      -6.7      1.078      1.682
REMARK  Name = 
REMARK  3 active torsions:
REMARK  status: ('A' for Active; 'I' for Inactive)
REMARK    1  A    between atoms: C_1  and  S_2
REMARK    2  A    between atoms: S_2  and  C_5
REMARK    3  A    between atoms: C_8  and  C_9
REMARK                            x       y       z     vdW  Elec       q    Type
REMARK                         _______ _______ _______ _____ _____    ______ ____
ROOT
ATOM      1  C   UNL     1       5.764   4.817  17.897  0.00  0.00    +0.000 A 
ATOM      2  C   UNL     1       5.098   4.215  16.827  0.00  0.00    +0.000 A 
ATOM      3  C   UNL     1       3.746   3.891  16.951  0.00  0.00    +0.000 A 
ATOM      4  C   UNL     1       3.054   4.158  18.144  0.00  0.00    +0.000 A 
ATOM      5  C   UNL     1       3.747   4.742  19.219  0.00  0.00    +0.000 A 
ATOM      6  C   UNL     1       5.100   5.071  19.099  0.00  0.00    +0.000 A 
ENDROOT
BRANCH   1   8
ATOM      7  C   UNL     1       7.865   6.004  19.289  0.00  0.00    +0.000 C 
ATOM      8  S   UNL     1       7.472   5.293  17.709  0.00  0.00    +0.000 S 
ATOM      9  N   UNL     1       7.488   6.419  16.658  0.00  0.00    +0.000 NA
ATOM     10  O   UNL     1       8.245   4.073  17.593  0.00  0.00    +0.000 OA
ATOM     11  H   UNL     1       8.446   6.633  16.375  0.00  0.00    +0.000 HD
ENDBRANCH   1   8
BRANCH   4  12
ATOM     12  C   UNL     1       1.586   3.831  18.284  0.00  0.00    +0.000 C 
ATOM     13  F   UNL     1       1.051   4.230  19.472  0.00  0.00    +0.000 F 
ATOM     14  F   UNL     1       0.825   4.412  17.316  0.00  0.00    +0.000 F 
ATOM     15  F   UNL     1       1.344   2.494  18.199  0.00  0.00    +0.000 F 
ENDBRANCH   4  12
TORSDOF 2
ENDMDL
MODEL 4
REMARK VINA RESULT:      -6.6      1.867      2.486
REMARK  Name = 
REMARK  3 active torsions:
REMARK  status: ('A' for Active; 'I' for Inactive)
REMARK    1  A    between atoms: C_1  and  S_2
REMARK    2  A    between atoms: S_2  and  C_5
REMARK    3  A    between atoms: C_8  and  C_9
REMARK                            x       y       z     vdW  Elec       q    Type
REMARK                         _______ _______ _______ _____ _____    ______ ____
ROOT
ATOM      1  C   UNL     1       4.746   4.317  17.946  0.00  0.00    +0.000 A 
ATOM      2  C   UNL     1       3.520   4.639  17.358  0.00  0.00    +0.000 A 
ATOM      3  C   UNL     1       2.333   4.258  17.985  0.00  0.00    +0.000 A 
ATOM      4  C   UNL     1       2.361   3.548  19.197  0.00  0.00    +0.000 A 
ATOM      5  C   UNL     1       3.604   3.212  19.761  0.00  0.00    +0.000 A 
ATOM      6  C   UNL     1       4.796   3.593  19.139  0.00  0.00    +0.000 A 
ENDROOT
BRANCH   1   8
ATOM      7  C   UNL     1       6.244   4.018  15.616  0.00  0.00    +0.000 C 
ATOM      8  S   UNL     1       6.258   4.868  17.177  0.00  0.00    +0.000 S 
ATOM      9  N   UNL     1       7.404   4.291  18.029  0.00  0.00    +0.000 NA
ATOM     10  O   UNL     1       6.100   6.279  16.890  0.00  0.00    +0.000 OA
ATOM     11  H   UNL     1       8.299   4.696  17.748  0.00  0.00    +0.000 HD
ENDBRANCH   1   8
BRANCH   4  12
ATOM     12  C   UNL     1       1.084   3.148  19.896  0.00  0.00    +0.000 C 
ATOM     13  F   UNL     1       0.218   2.464  19.097  0.00  0.00    +0.000 F 
ATOM     14  F   UNL     1       1.306   2.351  20.977  0.00  0.00    +0.000 F 
ATOM     15  F   UNL     1       0.389   4.224  20.359  0.00  0.00    +0.000 F 
ENDBRANCH   4  12
TORSDOF 2
ENDMDL
MODEL 5
REMARK VINA RESULT:      -6.6      1.912      2.404
REMARK  Name = 
REMARK  3 active torsions:
REMARK  status: ('A' for Active; 'I' for Inactive)
REMARK    1  A    between atoms: C_1  and  S_2
REMARK    2  A    between atoms: S_2  and  C_5
REMARK    3  A    between atoms: C_8  and  C_9
REMARK                            x       y       z     vdW  Elec       q    Type
REMARK                         _______ _______ _______ _____ _____    ______ ____
ROOT
ATOM      1  C   UNL     1       4.708   4.421  18.015  0.00  0.00    +0.000 A 
ATOM      2  C   UNL     1       4.765   3.521  19.082  0.00  0.00    +0.000 A 
ATOM      3  C   UNL     1       3.586   3.134  19.721  0.00  0.00    +0.000 A 
ATOM      4  C   UNL     1       2.346   3.647  19.306  0.00  0.00    +0.000 A 
ATOM      5  C   UNL     1       2.311   4.571  18.246  0.00  0.00    +0.000 A 
ATOM      6  C   UNL     1       3.488   4.959  17.601  0.00  0.00    +0.000 A 
ENDROOT
BRANCH   1   8
ATOM      7  C   UNL     1       6.096   3.915  15.654  0.00  0.00    +0.000 C 
ATOM      8  S   UNL     1       6.209   4.857  17.157  0.00  0.00    +0.000 S 
ATOM      9  N   UNL     1       7.364   4.284  17.998  0.00  0.00    +0.000 NA
ATOM     10  O   UNL     1       6.098   6.254  16.787  0.00  0.00    +0.000 OA
ATOM     11  H   UNL     1       8.263   4.632  17.659  0.00  0.00    +0.000 HD
ENDBRANCH   1   8
BRANCH   4  12
ATOM     12  C   UNL     1       1.061   3.221  19.976  0.00  0.00    +0.000 C 
ATOM     13  F   UNL     1       0.241   2.496  19.166  0.00  0.00    +0.000 F 
ATOM     14  F   UNL     1       1.276   2.453  21.079  0.00  0.00    +0.000 F 
ATOM     15  F   UNL     1       0.321   4.284  20.397  0.00  0.00    +0.000 F 
ENDBRANCH   4  12
TORSDOF 2
ENDMDL
MODEL 6
REMARK VINA RESULT:      -6.6      1.702      1.913
REMARK  Name = 
REMARK  3 active torsions:
REMARK  status: ('A' for Active; 'I' for Inactive)
REMARK    1  A    between atoms: C_1  and  S_2
REMARK    2  A    between atoms: S_2  and  C_5
REMARK    3  A    between atoms: C_8  and  C_9
REMARK                            x       y       z     vdW  Elec       q    Type
REMARK                         _______ _______ _______ _____ _____    ______ ____
ROOT
ATOM      1  C   UNL     1       5.310   4.381  17.384  0.00  0.00    +0.000 A 
ATOM      2  C   UNL     1       5.289   4.250  18.775  0.00  0.00    +0.000 A 
ATOM      3  C   UNL     1       4.140   3.771  19.406  0.00  0.00    +0.000 A 
ATOM      4  C   UNL     1       3.004   3.426  18.655  0.00  0.00    +0.000 A 
ATOM      5  C   UNL     1       3.035   3.586  17.259  0.00  0.00    +0.000 A 
ATOM      6  C   UNL     1       4.184   4.063  16.622  0.00  0.00    +0.000 A 
ENDROOT
BRANCH   1   8
ATOM      7  C   UNL     1       6.641   4.256  14.940  0.00  0.00    +0.000 C 
ATOM      8  S   UNL     1       6.804   4.926  16.578  0.00  0.00    +0.000 S 
ATOM      9  N   UNL     1       7.961   4.195  17.284  0.00  0.00    +0.000 NA
ATOM     10  O   UNL     1       6.719   6.367  16.453  0.00  0.00    +0.000 OA
ATOM     11  H   UNL     1       8.861   4.578  16.988  0.00  0.00    +0.000 HD
ENDBRANCH   1   8
BRANCH   4  12
ATOM     12  C   UNL     1       1.762   2.886  19.323  0.00  0.00    +0.000 C 
ATOM     13  F   UNL     1       2.018   2.187  20.464  0.00  0.00    +0.000 F 
ATOM     14  F   UNL     1       0.887   3.868  19.674  0.00  0.00    +0.000 F 
ATOM     15  F   UNL     1       1.068   2.037  18.516  0.00  0.00    +0.000 F 
ENDBRANCH   4  12
TORSDOF 2
ENDMDL
MODEL 7
REMARK VINA RESULT:      -6.6      1.607      2.124
REMARK  Name = 
REMARK  3 active torsions:
REMARK  status: ('A' for Active; 'I' for Inactive)
REMARK    1  A    between atoms: C_1  and  S_2
REMARK    2  A    between atoms: S_2  and  C_5
REMARK    3  A    between atoms: C_8  and  C_9
REMARK                            x       y       z     vdW  Elec       q    Type
REMARK                         _______ _______ _______ _____ _____    ______ ____
ROOT
ATOM      1  C   UNL     1       4.772   4.242  18.134  0.00  0.00    +0.000 A 
ATOM      2  C   UNL     1       4.766   3.467  19.297  0.00  0.00    +0.000 A 
ATOM      3  C   UNL     1       3.552   3.140  19.902  0.00  0.00    +0.000 A 
ATOM      4  C   UNL     1       2.338   3.588  19.355  0.00  0.00    +0.000 A 
ATOM      5  C   UNL     1       2.365   4.387  18.198  0.00  0.00    +0.000 A 
ATOM      6  C   UNL     1       3.577   4.715  17.587  0.00  0.00    +0.000 A 
ENDROOT
BRANCH   1   8
ATOM      7  C   UNL     1       6.173   6.321  16.919  0.00  0.00    +0.000 C 
ATOM      8  S   UNL     1       6.321   4.597  17.326  0.00  0.00    +0.000 S 
ATOM      9  N   UNL     1       6.313   3.791  16.014  0.00  0.00    +0.000 NA
ATOM     10  O   UNL     1       7.360   4.490  18.330  0.00  0.00    +0.000 OA
ATOM     11  H   UNL     1       7.235   3.813  15.572  0.00  0.00    +0.000 HD
ENDBRANCH   1   8
BRANCH   4  12
ATOM     12  C   UNL     1       1.016   3.224  19.988  0.00  0.00    +0.000 C 
ATOM     13  F   UNL     1       0.193   2.521  19.161  0.00  0.00    +0.000 F 
ATOM     14  F   UNL     1       1.163   2.463  21.107  0.00  0.00    +0.000 F 
ATOM     15  F   UNL     1       0.307   4.322  20.372  0.00  0.00    +0.000 F 
ENDBRANCH   4  12
TORSDOF 2
ENDMDL
MODEL 8
REMARK VINA RESULT:      -6.5      1.636      2.078
REMARK  Name = 
REMARK  3 active torsions:
REMARK  status: ('A' for Active; 'I' for Inactive)
REMARK    1  A    between atoms: C_1  and  S_2
REMARK    2  A    between atoms: S_2  and  C_5
REMARK    3  A    between atoms: C_8  and  C_9
REMARK                            x       y       z     vdW  Elec       q    Type
REMARK                         _______ _______ _______ _____ _____    ______ ____
ROOT
ATOM      1  C   UNL     1       4.748   4.180  18.107  0.00  0.00    +0.000 A 
ATOM      2  C   UNL     1       3.556   4.668  17.567  0.00  0.00    +0.000 A 
ATOM      3  C   UNL     1       2.346   4.392  18.206  0.00  0.00    +0.000 A 
ATOM      4  C   UNL     1       2.317   3.624  19.382  0.00  0.00    +0.000 A 
ATOM      5  C   UNL     1       3.525   3.122  19.897  0.00  0.00    +0.000 A 
ATOM      6  C   UNL     1       4.739   3.396  19.263  0.00  0.00    +0.000 A 
ENDROOT
BRANCH   1   8
ATOM      7  C   UNL     1       6.088   6.309  16.911  0.00  0.00    +0.000 C 
ATOM      8  S   UNL     1       6.297   4.594  17.327  0.00  0.00    +0.000 S 
ATOM      9  N   UNL     1       6.345   3.784  16.017  0.00  0.00    +0.000 NA
ATOM     10  O   UNL     1       7.321   4.531  18.350  0.00  0.00    +0.000 OA
ATOM     11  H   UNL     1       7.273   3.842  15.593  0.00  0.00    +0.000 HD
ENDBRANCH   1   8
BRANCH   4  12
ATOM     12  C   UNL     1       1.017   3.336  20.094  0.00  0.00    +0.000 C 
ATOM     13  F   UNL     1       0.342   4.459  20.469  0.00  0.00    +0.000 F 
ATOM     14  F   UNL     1       0.151   2.615  19.332  0.00  0.00    +0.000 F 
ATOM     15  F   UNL     1       1.201   2.617  21.236  0.00  0.00    +0.000 F 
ENDBRANCH   4  12
TORSDOF 2
ENDMDL
MODEL 9
REMARK VINA RESULT:      -6.5      1.666      1.835
REMARK  Name = 
REMARK  3 active torsions:
REMARK  status: ('A' for Active; 'I' for Inactive)
REMARK    1  A    between atoms: C_1  and  S_2
REMARK    2  A    between atoms: S_2  and  C_5
REMARK    3  A    between atoms: C_8  and  C_9
REMARK                            x       y       z     vdW  Elec       q    Type
REMARK                         _______ _______ _______ _____ _____    ______ ____
ROOT
ATOM      1  C   UNL     1       4.973   4.466  17.656  0.00  0.00    +0.000 A 
ATOM      2  C   UNL     1       4.780   4.629  19.030  0.00  0.00    +0.000 A 
ATOM      3  C   UNL     1       3.590   4.193  19.615  0.00  0.00    +0.000 A 
ATOM      4  C   UNL     1       2.586   3.599  18.834  0.00  0.00    +0.000 A 
ATOM      5  C   UNL     1       2.788   3.464  17.450  0.00  0.00    +0.000 A 
ATOM      6  C   UNL     1       3.978   3.897  16.858  0.00  0.00    +0.000 A 
ENDROOT
BRANCH   1   8
ATOM      7  C   UNL     1       6.521   4.104  15.368  0.00  0.00    +0.000 C 
ATOM      8  S   UNL     1       6.523   4.960  16.925  0.00  0.00    +0.000 S 
ATOM      9  N   UNL     1       7.626   4.348  17.809  0.00  0.00    +0.000 NA
ATOM     10  O   UNL     1       6.422   6.374  16.628  0.00  0.00    +0.000 OA
ATOM     11  H   UNL     1       8.542   4.721  17.550  0.00  0.00    +0.000 HD
ENDBRANCH   1   8
BRANCH   4  12
ATOM     12  C   UNL     1       1.302   3.104  19.459  0.00  0.00    +0.000 C 
ATOM     13  F   UNL     1       0.579   4.086  20.066  0.00  0.00    +0.000 F 
ATOM     14  F   UNL     1       0.466   2.528  18.552  0.00  0.00    +0.000 F 
ATOM     15  F   UNL     1       1.524   2.161  20.416  0.00  0.00    +0.000 F 
ENDBRANCH   4  12
TORSDOF 2
ENDMDL
