MODEL 1
REMARK VINA RESULT:      -8.3      0.000      0.000
REMARK  Name = 
REMARK  13 active torsions:
REMARK  status: ('A' for Active; 'I' for Inactive)
REMARK    1  A    between atoms: C_2  and  C_3
REMARK    2  A    between atoms: C_2  and  C_21
REMARK    3  A    between atoms: C_4  and  C_5
REMARK    4  A    between atoms: C_9  and  N_10
REMARK    5  A    between atoms: N_10  and  C_11
REMARK    6  A    between atoms: C_11  and  N_13
REMARK    7  A    between atoms: N_13  and  C_14
REMARK    8  A    between atoms: C_21  and  C_22
REMARK    9  A    between atoms: C_24  and  C_25
REMARK   10  A    between atoms: C_25  and  O_26
REMARK   11  A    between atoms: C_27  and  O_28
REMARK   12  A    between atoms: C_29  and  O_30
REMARK   13  A    between atoms: C_31  and  O_32
REMARK                            x       y       z     vdW  Elec       q    Type
REMARK                         _______ _______ _______ _____ _____    ______ ____
ROOT
ATOM      1  C   UNL     1       1.349   9.268  18.017  0.00  0.00    +0.000 C 
ATOM      2  C   UNL     1       0.692   9.396  19.172  0.00  0.00    +0.000 C 
ENDROOT
BRANCH   2   3
ATOM      3  C   UNL     1      -0.396  10.363  19.352  0.00  0.00    +0.000 A 
ATOM      4  C   UNL     1      -0.693  10.969  20.580  0.00  0.00    +0.000 A 
ATOM      5  C   UNL     1      -1.741  11.878  20.683  0.00  0.00    +0.000 A 
ATOM      6  C   UNL     1      -2.509  12.201  19.561  0.00  0.00    +0.000 A 
ATOM      7  C   UNL     1      -2.203  11.627  18.327  0.00  0.00    +0.000 A 
ATOM      8  C   UNL     1      -1.184  10.681  18.236  0.00  0.00    +0.000 A 
BRANCH   7   9
ATOM      9  N   UNL     1      -3.008  11.956  17.229  0.00  0.00    +0.000 N 
ATOM     10  H   UNL     1      -3.025  12.930  16.954  0.00  0.00    +0.000 HD
BRANCH   9  11
ATOM     11  C   UNL     1      -3.702  11.127  16.372  0.00  0.00    +0.000 C 
ATOM     12  S   UNL     1      -3.064  10.163  15.165  0.00  0.00    +0.000 S 
BRANCH  11  13
ATOM     13  N   UNL     1      -5.068  11.254  16.465  0.00  0.00    +0.000 N 
ATOM     14  H   UNL     1      -5.604  10.897  15.680  0.00  0.00    +0.000 HD
BRANCH  13  15
ATOM     15  C   UNL     1      -5.789  11.587  17.628  0.00  0.00    +0.000 A 
ATOM     16  C   UNL     1      -6.240  12.897  17.788  0.00  0.00    +0.000 A 
ATOM     17  C   UNL     1      -6.941  13.251  18.943  0.00  0.00    +0.000 A 
ATOM     18  C   UNL     1      -7.240  12.292  19.909  0.00  0.00    +0.000 A 
ATOM     19  C   UNL     1      -6.830  10.975  19.727  0.00  0.00    +0.000 A 
ATOM     20  C   UNL     1      -6.102  10.623  18.596  0.00  0.00    +0.000 A 
ENDBRANCH  13  15
ENDBRANCH  11  13
ENDBRANCH   9  11
ENDBRANCH   7   9
ENDBRANCH   2   3
BRANCH   1  22
ATOM     21  O   UNL     1       3.197   8.253  16.919  0.00  0.00    +0.000 OA
ATOM     22  C   UNL     1       2.386   8.213  17.835  0.00  0.00    +0.000 C 
BRANCH  22  23
ATOM     23  C   UNL     1       2.406   7.134  18.899  0.00  0.00    +0.000 C 
BRANCH  23  24
ATOM     24  C   UNL     1       2.798   5.781  18.313  0.00  0.00    +0.000 C 
ATOM     25  O   UNL     1       1.959   4.773  18.916  0.00  0.00    +0.000 OA
ATOM     26  C   UNL     1       2.161   3.482  18.300  0.00  0.00    +0.000 C 
ATOM     27  C   UNL     1       3.587   2.981  18.569  0.00  0.00    +0.000 C 
ATOM     28  C   UNL     1       4.602   4.045  18.110  0.00  0.00    +0.000 C 
ATOM     29  C   UNL     1       4.260   5.440  18.645  0.00  0.00    +0.000 C 
BRANCH  27  30
ATOM     30  O   UNL     1       3.803   1.761  17.853  0.00  0.00    +0.000 OA
ATOM     31  H   UNL     1       4.440   1.952  17.137  0.00  0.00    +0.000 HD
ENDBRANCH  27  30
BRANCH  28  32
ATOM     32  O   UNL     1       5.914   3.658  18.535  0.00  0.00    +0.000 OA
ATOM     33  H   UNL     1       5.909   2.677  18.564  0.00  0.00    +0.000 HD
ENDBRANCH  28  32
BRANCH  29  34
ATOM     34  O   UNL     1       4.477   5.446  20.068  0.00  0.00    +0.000 OA
ATOM     35  H   UNL     1       5.291   4.933  20.239  0.00  0.00    +0.000 HD
ENDBRANCH  29  34
BRANCH  26  36
ATOM     36  C   UNL     1       1.098   2.521  18.841  0.00  0.00    +0.000 C 
BRANCH  36  37
ATOM     37  O   UNL     1       0.480   3.054  20.011  0.00  0.00    +0.000 OA
ATOM     38  H   UNL     1      -0.393   3.376  19.713  0.00  0.00    +0.000 HD
ENDBRANCH  36  37
ENDBRANCH  26  36
ENDBRANCH  23  24
ENDBRANCH  22  23
ENDBRANCH   1  22
TORSDOF 13
ENDMDL
MODEL 2
REMARK VINA RESULT:      -8.2      7.172      9.703
REMARK  Name = 
REMARK  13 active torsions:
REMARK  status: ('A' for Active; 'I' for Inactive)
REMARK    1  A    between atoms: C_2  and  C_3
REMARK    2  A    between atoms: C_2  and  C_21
REMARK    3  A    between atoms: C_4  and  C_5
REMARK    4  A    between atoms: C_9  and  N_10
REMARK    5  A    between atoms: N_10  and  C_11
REMARK    6  A    between atoms: C_11  and  N_13
REMARK    7  A    between atoms: N_13  and  C_14
REMARK    8  A    between atoms: C_21  and  C_22
REMARK    9  A    between atoms: C_24  and  C_25
REMARK   10  A    between atoms: C_25  and  O_26
REMARK   11  A    between atoms: C_27  and  O_28
REMARK   12  A    between atoms: C_29  and  O_30
REMARK   13  A    between atoms: C_31  and  O_32
REMARK                            x       y       z     vdW  Elec       q    Type
REMARK                         _______ _______ _______ _____ _____    ______ ____
ROOT
ATOM      1  C   UNL     1       8.131   7.874  18.353  0.00  0.00    +0.000 C 
ATOM      2  C   UNL     1       8.276   9.090  17.821  0.00  0.00    +0.000 C 
ENDROOT
BRANCH   2   3
ATOM      3  C   UNL     1       8.929  10.189  18.540  0.00  0.00    +0.000 A 
ATOM      4  C   UNL     1       9.175  10.168  19.919  0.00  0.00    +0.000 A 
ATOM      5  C   UNL     1       9.799  11.245  20.541  0.00  0.00    +0.000 A 
ATOM      6  C   UNL     1      10.190  12.362  19.795  0.00  0.00    +0.000 A 
ATOM      7  C   UNL     1       9.977  12.379  18.416  0.00  0.00    +0.000 A 
ATOM      8  C   UNL     1       9.309  11.320  17.804  0.00  0.00    +0.000 A 
BRANCH   7   9
ATOM      9  N   UNL     1      10.361  13.523  17.705  0.00  0.00    +0.000 N 
ATOM     10  H   UNL     1      10.713  13.378  16.768  0.00  0.00    +0.000 HD
BRANCH   9  11
ATOM     11  C   UNL     1      10.219  14.854  18.045  0.00  0.00    +0.000 C 
ATOM     12  S   UNL     1      11.005  15.670  19.273  0.00  0.00    +0.000 S 
BRANCH  11  13
ATOM     13  N   UNL     1       9.208  15.492  17.366  0.00  0.00    +0.000 N 
ATOM     14  H   UNL     1       9.391  15.706  16.390  0.00  0.00    +0.000 HD
BRANCH  13  15
ATOM     15  C   UNL     1       7.880  15.641  17.811  0.00  0.00    +0.000 A 
ATOM     16  C   UNL     1       6.981  14.595  17.602  0.00  0.00    +0.000 A 
ATOM     17  C   UNL     1       5.654  14.730  18.020  0.00  0.00    +0.000 A 
ATOM     18  C   UNL     1       5.240  15.879  18.692  0.00  0.00    +0.000 A 
ATOM     19  C   UNL     1       6.149  16.903  18.939  0.00  0.00    +0.000 A 
ATOM     20  C   UNL     1       7.461  16.789  18.496  0.00  0.00    +0.000 A 
ENDBRANCH  13  15
ENDBRANCH  11  13
ENDBRANCH   9  11
ENDBRANCH   7   9
ENDBRANCH   2   3
BRANCH   1  22
ATOM     21  O   UNL     1       7.613   6.721  16.341  0.00  0.00    +0.000 OA
ATOM     22  C   UNL     1       7.548   6.753  17.563  0.00  0.00    +0.000 C 
BRANCH  22  23
ATOM     23  C   UNL     1       6.939   5.632  18.380  0.00  0.00    +0.000 C 
BRANCH  23  24
ATOM     24  C   UNL     1       5.482   5.392  17.997  0.00  0.00    +0.000 C 
ATOM     25  O   UNL     1       4.648   5.982  19.016  0.00  0.00    +0.000 OA
ATOM     26  C   UNL     1       3.252   5.934  18.648  0.00  0.00    +0.000 C 
ATOM     27  C   UNL     1       2.771   4.477  18.579  0.00  0.00    +0.000 C 
ATOM     28  C   UNL     1       3.683   3.677  17.629  0.00  0.00    +0.000 C 
ATOM     29  C   UNL     1       5.169   3.888  17.942  0.00  0.00    +0.000 C 
BRANCH  27  30
ATOM     30  O   UNL     1       1.423   4.447  18.098  0.00  0.00    +0.000 OA
ATOM     31  H   UNL     1       0.834   4.495  18.876  0.00  0.00    +0.000 HD
ENDBRANCH  27  30
BRANCH  28  32
ATOM     32  O   UNL     1       3.349   2.287  17.715  0.00  0.00    +0.000 OA
ATOM     33  H   UNL     1       2.511   2.243  18.223  0.00  0.00    +0.000 HD
ENDBRANCH  28  32
BRANCH  29  34
ATOM     34  O   UNL     1       5.461   3.257  19.203  0.00  0.00    +0.000 OA
ATOM     35  H   UNL     1       6.232   2.673  19.062  0.00  0.00    +0.000 HD
ENDBRANCH  29  34
BRANCH  26  36
ATOM     36  C   UNL     1       2.458   6.757  19.668  0.00  0.00    +0.000 C 
BRANCH  36  37
ATOM     37  O   UNL     1       2.072   5.952  20.780  0.00  0.00    +0.000 OA
ATOM     38  H   UNL     1       1.449   5.294  20.414  0.00  0.00    +0.000 HD
ENDBRANCH  36  37
ENDBRANCH  26  36
ENDBRANCH  23  24
ENDBRANCH  22  23
ENDBRANCH   1  22
TORSDOF 13
ENDMDL
MODEL 3
REMARK VINA RESULT:      -8.2      5.071     10.398
REMARK  Name = 
REMARK  13 active torsions:
REMARK  status: ('A' for Active; 'I' for Inactive)
REMARK    1  A    between atoms: C_2  and  C_3
REMARK    2  A    between atoms: C_2  and  C_21
REMARK    3  A    between atoms: C_4  and  C_5
REMARK    4  A    between atoms: C_9  and  N_10
REMARK    5  A    between atoms: N_10  and  C_11
REMARK    6  A    between atoms: C_11  and  N_13
REMARK    7  A    between atoms: N_13  and  C_14
REMARK    8  A    between atoms: C_21  and  C_22
REMARK    9  A    between atoms: C_24  and  C_25
REMARK   10  A    between atoms: C_25  and  O_26
REMARK   11  A    between atoms: C_27  and  O_28
REMARK   12  A    between atoms: C_29  and  O_30
REMARK   13  A    between atoms: C_31  and  O_32
REMARK                            x       y       z     vdW  Elec       q    Type
REMARK                         _______ _______ _______ _____ _____    ______ ____
ROOT
ATOM      1  C   UNL     1       1.848   7.898  17.830  0.00  0.00    +0.000 C 
ATOM      2  C   UNL     1       2.592   7.007  18.489  0.00  0.00    +0.000 C 
ENDROOT
BRANCH   2   3
ATOM      3  C   UNL     1       2.697   5.606  18.067  0.00  0.00    +0.000 A 
ATOM      4  C   UNL     1       1.665   4.673  18.229  0.00  0.00    +0.000 A 
ATOM      5  C   UNL     1       1.830   3.358  17.807  0.00  0.00    +0.000 A 
ATOM      6  C   UNL     1       3.028   2.952  17.212  0.00  0.00    +0.000 A 
ATOM      7  C   UNL     1       4.051   3.881  17.017  0.00  0.00    +0.000 A 
ATOM      8  C   UNL     1       3.901   5.185  17.484  0.00  0.00    +0.000 A 
BRANCH   7   9
ATOM      9  N   UNL     1       5.246   3.433  16.439  0.00  0.00    +0.000 N 
ATOM     10  H   UNL     1       5.606   2.547  16.770  0.00  0.00    +0.000 HD
BRANCH   9  11
ATOM     11  C   UNL     1       5.959   3.961  15.382  0.00  0.00    +0.000 C 
ATOM     12  S   UNL     1       5.552   3.903  13.762  0.00  0.00    +0.000 S 
BRANCH  11  13
ATOM     13  N   UNL     1       7.196   4.446  15.737  0.00  0.00    +0.000 N 
ATOM     14  H   UNL     1       7.938   4.315  15.058  0.00  0.00    +0.000 HD
BRANCH  13  15
ATOM     15  C   UNL     1       7.465   5.314  16.813  0.00  0.00    +0.000 A 
ATOM     16  C   UNL     1       7.360   6.689  16.609  0.00  0.00    +0.000 A 
ATOM     17  C   UNL     1       7.640   7.568  17.660  0.00  0.00    +0.000 A 
ATOM     18  C   UNL     1       7.970   7.076  18.922  0.00  0.00    +0.000 A 
ATOM     19  C   UNL     1       8.030   5.702  19.136  0.00  0.00    +0.000 A 
ATOM     20  C   UNL     1       7.785   4.824  18.086  0.00  0.00    +0.000 A 
ENDBRANCH  13  15
ENDBRANCH  11  13
ENDBRANCH   9  11
ENDBRANCH   7   9
ENDBRANCH   2   3
BRANCH   1  22
ATOM     21  O   UNL     1       2.295  10.209  17.505  0.00  0.00    +0.000 OA
ATOM     22  C   UNL     1       1.836   9.334  18.227  0.00  0.00    +0.000 C 
BRANCH  22  23
ATOM     23  C   UNL     1       1.155   9.636  19.546  0.00  0.00    +0.000 C 
BRANCH  23  24
ATOM     24  C   UNL     1      -0.266  10.150  19.335  0.00  0.00    +0.000 C 
ATOM     25  O   UNL     1      -0.593  10.000  17.937  0.00  0.00    +0.000 OA
ATOM     26  C   UNL     1      -1.978  10.320  17.682  0.00  0.00    +0.000 C 
ATOM     27  C   UNL     1      -2.240  11.807  17.962  0.00  0.00    +0.000 C 
ATOM     28  C   UNL     1      -1.785  12.150  19.393  0.00  0.00    +0.000 C 
ATOM     29  C   UNL     1      -0.368  11.643  19.687  0.00  0.00    +0.000 C 
BRANCH  27  30
ATOM     30  O   UNL     1      -3.638  12.076  17.819  0.00  0.00    +0.000 OA
ATOM     31  H   UNL     1      -3.886  11.858  16.900  0.00  0.00    +0.000 HD
ENDBRANCH  27  30
BRANCH  28  32
ATOM     32  O   UNL     1      -1.854  13.569  19.582  0.00  0.00    +0.000 OA
ATOM     33  H   UNL     1      -2.808  13.783  19.664  0.00  0.00    +0.000 HD
ENDBRANCH  28  32
BRANCH  29  34
ATOM     34  O   UNL     1       0.562  12.418  18.907  0.00  0.00    +0.000 OA
ATOM     35  H   UNL     1       1.188  12.832  19.533  0.00  0.00    +0.000 HD
ENDBRANCH  29  34
BRANCH  26  36
ATOM     36  C   UNL     1      -2.300   9.939  16.233  0.00  0.00    +0.000 C 
BRANCH  36  37
ATOM     37  O   UNL     1      -3.694  10.081  15.969  0.00  0.00    +0.000 OA
ATOM     38  H   UNL     1      -3.993   9.192  15.696  0.00  0.00    +0.000 HD
ENDBRANCH  36  37
ENDBRANCH  26  36
ENDBRANCH  23  24
ENDBRANCH  22  23
ENDBRANCH   1  22
TORSDOF 13
ENDMDL
MODEL 4
REMARK VINA RESULT:      -8.0      2.532      4.328
REMARK  Name = 
REMARK  13 active torsions:
REMARK  status: ('A' for Active; 'I' for Inactive)
REMARK    1  A    between atoms: C_2  and  C_3
REMARK    2  A    between atoms: C_2  and  C_21
REMARK    3  A    between atoms: C_4  and  C_5
REMARK    4  A    between atoms: C_9  and  N_10
REMARK    5  A    between atoms: N_10  and  C_11
REMARK    6  A    between atoms: C_11  and  N_13
REMARK    7  A    between atoms: N_13  and  C_14
REMARK    8  A    between atoms: C_21  and  C_22
REMARK    9  A    between atoms: C_24  and  C_25
REMARK   10  A    between atoms: C_25  and  O_26
REMARK   11  A    between atoms: C_27  and  O_28
REMARK   12  A    between atoms: C_29  and  O_30
REMARK   13  A    between atoms: C_31  and  O_32
REMARK                            x       y       z     vdW  Elec       q    Type
REMARK                         _______ _______ _______ _____ _____    ______ ____
ROOT
ATOM      1  C   UNL     1       2.101   5.493  20.457  0.00  0.00    +0.000 C 
ATOM      2  C   UNL     1       2.135   6.612  19.729  0.00  0.00    +0.000 C 
ENDROOT
BRANCH   2   3
ATOM      3  C   UNL     1       1.650   7.897  20.242  0.00  0.00    +0.000 A 
ATOM      4  C   UNL     1       1.394   8.138  21.599  0.00  0.00    +0.000 A 
ATOM      5  C   UNL     1       0.934   9.381  22.020  0.00  0.00    +0.000 A 
ATOM      6  C   UNL     1       0.725  10.408  21.094  0.00  0.00    +0.000 A 
ATOM      7  C   UNL     1       1.006  10.189  19.745  0.00  0.00    +0.000 A 
ATOM      8  C   UNL     1       1.420   8.928  19.320  0.00  0.00    +0.000 A 
BRANCH   7   9
ATOM      9  N   UNL     1       0.762  11.232  18.844  0.00  0.00    +0.000 N 
ATOM     10  H   UNL     1       1.413  11.329  18.075  0.00  0.00    +0.000 HD
BRANCH   9  11
ATOM     11  C   UNL     1      -0.315  12.092  18.770  0.00  0.00    +0.000 C 
ATOM     12  S   UNL     1      -0.272  13.762  18.757  0.00  0.00    +0.000 S 
BRANCH  11  13
ATOM     13  N   UNL     1      -1.533  11.461  18.867  0.00  0.00    +0.000 N 
ATOM     14  H   UNL     1      -1.950  11.436  19.792  0.00  0.00    +0.000 HD
BRANCH  13  15
ATOM     15  C   UNL     1      -2.357  11.085  17.788  0.00  0.00    +0.000 A 
ATOM     16  C   UNL     1      -3.609  11.685  17.658  0.00  0.00    +0.000 A 
ATOM     17  C   UNL     1      -4.449  11.313  16.605  0.00  0.00    +0.000 A 
ATOM     18  C   UNL     1      -4.020  10.388  15.654  0.00  0.00    +0.000 A 
ATOM     19  C   UNL     1      -2.752   9.823  15.760  0.00  0.00    +0.000 A 
ATOM     20  C   UNL     1      -1.926  10.165  16.824  0.00  0.00    +0.000 A 
ENDBRANCH  13  15
ENDBRANCH  11  13
ENDBRANCH   9  11
ENDBRANCH   7   9
ENDBRANCH   2   3
BRANCH   1  22
ATOM     21  O   UNL     1       3.028   3.318  20.693  0.00  0.00    +0.000 OA
ATOM     22  C   UNL     1       2.688   4.223  19.943  0.00  0.00    +0.000 C 
BRANCH  22  23
ATOM     23  C   UNL     1       2.764   4.108  18.434  0.00  0.00    +0.000 C 
BRANCH  23  24
ATOM     24  C   UNL     1       3.987   4.833  17.882  0.00  0.00    +0.000 C 
ATOM     25  O   UNL     1       4.276   4.292  16.575  0.00  0.00    +0.000 OA
ATOM     26  C   UNL     1       5.327   5.032  15.918  0.00  0.00    +0.000 C 
ATOM     27  C   UNL     1       6.649   4.869  16.682  0.00  0.00    +0.000 C 
ATOM     28  C   UNL     1       6.446   5.270  18.155  0.00  0.00    +0.000 C 
ATOM     29  C   UNL     1       5.217   4.595  18.774  0.00  0.00    +0.000 C 
BRANCH  27  30
ATOM     30  O   UNL     1       7.647   5.705  16.084  0.00  0.00    +0.000 OA
ATOM     31  H   UNL     1       7.259   6.596  15.982  0.00  0.00    +0.000 HD
ENDBRANCH  27  30
BRANCH  28  32
ATOM     32  O   UNL     1       7.623   4.937  18.900  0.00  0.00    +0.000 OA
ATOM     33  H   UNL     1       7.799   3.989  18.717  0.00  0.00    +0.000 HD
ENDBRANCH  28  32
BRANCH  29  34
ATOM     34  O   UNL     1       5.490   3.187  18.904  0.00  0.00    +0.000 OA
ATOM     35  H   UNL     1       4.698   2.775  19.304  0.00  0.00    +0.000 HD
ENDBRANCH  29  34
BRANCH  26  36
ATOM     36  C   UNL     1       5.430   4.538  14.471  0.00  0.00    +0.000 C 
BRANCH  36  37
ATOM     37  O   UNL     1       6.357   3.460  14.368  0.00  0.00    +0.000 OA
ATOM     38  H   UNL     1       6.708   3.339  15.272  0.00  0.00    +0.000 HD
ENDBRANCH  36  37
ENDBRANCH  26  36
ENDBRANCH  23  24
ENDBRANCH  22  23
ENDBRANCH   1  22
TORSDOF 13
ENDMDL
MODEL 5
REMARK VINA RESULT:      -7.9      4.982     10.244
REMARK  Name = 
REMARK  13 active torsions:
REMARK  status: ('A' for Active; 'I' for Inactive)
REMARK    1  A    between atoms: C_2  and  C_3
REMARK    2  A    between atoms: C_2  and  C_21
REMARK    3  A    between atoms: C_4  and  C_5
REMARK    4  A    between atoms: C_9  and  N_10
REMARK    5  A    between atoms: N_10  and  C_11
REMARK    6  A    between atoms: C_11  and  N_13
REMARK    7  A    between atoms: N_13  and  C_14
REMARK    8  A    between atoms: C_21  and  C_22
REMARK    9  A    between atoms: C_24  and  C_25
REMARK   10  A    between atoms: C_25  and  O_26
REMARK   11  A    between atoms: C_27  and  O_28
REMARK   12  A    between atoms: C_29  and  O_30
REMARK   13  A    between atoms: C_31  and  O_32
REMARK                            x       y       z     vdW  Elec       q    Type
REMARK                         _______ _______ _______ _____ _____    ______ ____
ROOT
ATOM      1  C   UNL     1       1.197   7.549  20.882  0.00  0.00    +0.000 C 
ATOM      2  C   UNL     1       2.062   7.025  20.011  0.00  0.00    +0.000 C 
ENDROOT
BRANCH   2   3
ATOM      3  C   UNL     1       2.082   5.594  19.689  0.00  0.00    +0.000 A 
ATOM      4  C   UNL     1       1.337   4.636  20.390  0.00  0.00    +0.000 A 
ATOM      5  C   UNL     1       1.402   3.293  20.034  0.00  0.00    +0.000 A 
ATOM      6  C   UNL     1       2.209   2.883  18.968  0.00  0.00    +0.000 A 
ATOM      7  C   UNL     1       2.930   3.833  18.243  0.00  0.00    +0.000 A 
ATOM      8  C   UNL     1       2.901   5.170  18.633  0.00  0.00    +0.000 A 
BRANCH   7   9
ATOM      9  N   UNL     1       3.746   3.383  17.198  0.00  0.00    +0.000 N 
ATOM     10  H   UNL     1       3.391   2.612  16.645  0.00  0.00    +0.000 HD
BRANCH   9  11
ATOM     11  C   UNL     1       4.925   3.914  16.716  0.00  0.00    +0.000 C 
ATOM     12  S   UNL     1       5.372   4.092  15.116  0.00  0.00    +0.000 S 
BRANCH  11  13
ATOM     13  N   UNL     1       5.855   4.172  17.696  0.00  0.00    +0.000 N 
ATOM     14  H   UNL     1       6.185   3.368  18.221  0.00  0.00    +0.000 HD
BRANCH  13  15
ATOM     15  C   UNL     1       6.569   5.375  17.862  0.00  0.00    +0.000 A 
ATOM     16  C   UNL     1       7.541   5.447  18.858  0.00  0.00    +0.000 A 
ATOM     17  C   UNL     1       8.248   6.637  19.050  0.00  0.00    +0.000 A 
ATOM     18  C   UNL     1       8.024   7.733  18.217  0.00  0.00    +0.000 A 
ATOM     19  C   UNL     1       7.084   7.645  17.195  0.00  0.00    +0.000 A 
ATOM     20  C   UNL     1       6.355   6.474  17.020  0.00  0.00    +0.000 A 
ENDBRANCH  13  15
ENDBRANCH  11  13
ENDBRANCH   9  11
ENDBRANCH   7   9
ENDBRANCH   2   3
BRANCH   1  22
ATOM     21  O   UNL     1       1.242   9.499  22.240  0.00  0.00    +0.000 OA
ATOM     22  C   UNL     1       1.138   9.020  21.118  0.00  0.00    +0.000 C 
BRANCH  22  23
ATOM     23  C   UNL     1       1.014   9.871  19.872  0.00  0.00    +0.000 C 
BRANCH  23  24
ATOM     24  C   UNL     1      -0.432  10.292  19.627  0.00  0.00    +0.000 C 
ATOM     25  O   UNL     1      -0.701  10.171  18.214  0.00  0.00    +0.000 OA
ATOM     26  C   UNL     1      -2.096  10.401  17.920  0.00  0.00    +0.000 C 
ATOM     27  C   UNL     1      -2.473  11.855  18.241  0.00  0.00    +0.000 C 
ATOM     28  C   UNL     1      -2.092  12.176  19.699  0.00  0.00    +0.000 C 
ATOM     29  C   UNL     1      -0.653  11.760  20.026  0.00  0.00    +0.000 C 
BRANCH  27  30
ATOM     30  O   UNL     1      -3.882  12.029  18.057  0.00  0.00    +0.000 OA
ATOM     31  H   UNL     1      -4.238  11.188  17.711  0.00  0.00    +0.000 HD
ENDBRANCH  27  30
BRANCH  28  32
ATOM     32  O   UNL     1      -2.269  13.578  19.933  0.00  0.00    +0.000 OA
ATOM     33  H   UNL     1      -1.811  13.770  20.780  0.00  0.00    +0.000 HD
ENDBRANCH  28  32
BRANCH  29  34
ATOM     34  O   UNL     1       0.245  12.627  19.307  0.00  0.00    +0.000 OA
ATOM     35  H   UNL     1      -0.185  13.503  19.249  0.00  0.00    +0.000 HD
ENDBRANCH  29  34
BRANCH  26  36
ATOM     36  C   UNL     1      -2.340  10.051  16.449  0.00  0.00    +0.000 C 
BRANCH  36  37
ATOM     37  O   UNL     1      -2.500  11.233  15.666  0.00  0.00    +0.000 OA
ATOM     38  H   UNL     1      -3.040  10.959  14.899  0.00  0.00    +0.000 HD
ENDBRANCH  36  37
ENDBRANCH  26  36
ENDBRANCH  23  24
ENDBRANCH  22  23
ENDBRANCH   1  22
TORSDOF 13
ENDMDL
MODEL 6
REMARK VINA RESULT:      -7.9      2.652      4.339
REMARK  Name = 
REMARK  13 active torsions:
REMARK  status: ('A' for Active; 'I' for Inactive)
REMARK    1  A    between atoms: C_2  and  C_3
REMARK    2  A    between atoms: C_2  and  C_21
REMARK    3  A    between atoms: C_4  and  C_5
REMARK    4  A    between atoms: C_9  and  N_10
REMARK    5  A    between atoms: N_10  and  C_11
REMARK    6  A    between atoms: C_11  and  N_13
REMARK    7  A    between atoms: N_13  and  C_14
REMARK    8  A    between atoms: C_21  and  C_22
REMARK    9  A    between atoms: C_24  and  C_25
REMARK   10  A    between atoms: C_25  and  O_26
REMARK   11  A    between atoms: C_27  and  O_28
REMARK   12  A    between atoms: C_29  and  O_30
REMARK   13  A    between atoms: C_31  and  O_32
REMARK                            x       y       z     vdW  Elec       q    Type
REMARK                         _______ _______ _______ _____ _____    ______ ____
ROOT
ATOM      1  C   UNL     1       2.163   7.172  20.034  0.00  0.00    +0.000 C 
ATOM      2  C   UNL     1       1.182   7.316  20.928  0.00  0.00    +0.000 C 
ENDROOT
BRANCH   2   3
ATOM      3  C   UNL     1       0.679   8.633  21.335  0.00  0.00    +0.000 A 
ATOM      4  C   UNL     1       0.121   8.888  22.594  0.00  0.00    +0.000 A 
ATOM      5  C   UNL     1      -0.339  10.161  22.917  0.00  0.00    +0.000 A 
ATOM      6  C   UNL     1      -0.247  11.202  21.988  0.00  0.00    +0.000 A 
ATOM      7  C   UNL     1       0.335  10.966  20.742  0.00  0.00    +0.000 A 
ATOM      8  C   UNL     1       0.751   9.679  20.404  0.00  0.00    +0.000 A 
BRANCH   7   9
ATOM      9  N   UNL     1       0.389  12.026  19.829  0.00  0.00    +0.000 N 
ATOM     10  H   UNL     1       1.267  12.164  19.346  0.00  0.00    +0.000 HD
BRANCH   9  11
ATOM     11  C   UNL     1      -0.624  12.853  19.386  0.00  0.00    +0.000 C 
ATOM     12  S   UNL     1      -0.525  14.493  19.082  0.00  0.00    +0.000 S 
BRANCH  11  13
ATOM     13  N   UNL     1      -1.856  12.245  19.347  0.00  0.00    +0.000 N 
ATOM     14  H   UNL     1      -2.499  12.492  20.093  0.00  0.00    +0.000 HD
BRANCH  13  15
ATOM     15  C   UNL     1      -2.392  11.531  18.257  0.00  0.00    +0.000 A 
ATOM     16  C   UNL     1      -1.631  10.516  17.680  0.00  0.00    +0.000 A 
ATOM     17  C   UNL     1      -2.136   9.808  16.586  0.00  0.00    +0.000 A 
ATOM     18  C   UNL     1      -3.417  10.075  16.105  0.00  0.00    +0.000 A 
ATOM     19  C   UNL     1      -4.194  11.059  16.710  0.00  0.00    +0.000 A 
ATOM     20  C   UNL     1      -3.683  11.788  17.778  0.00  0.00    +0.000 A 
ENDBRANCH  13  15
ENDBRANCH  11  13
ENDBRANCH   9  11
ENDBRANCH   7   9
ENDBRANCH   2   3
BRANCH   1  22
ATOM     21  O   UNL     1       2.532   4.839  20.299  0.00  0.00    +0.000 OA
ATOM     22  C   UNL     1       2.588   5.820  19.570  0.00  0.00    +0.000 C 
BRANCH  22  23
ATOM     23  C   UNL     1       3.024   5.740  18.121  0.00  0.00    +0.000 C 
BRANCH  23  24
ATOM     24  C   UNL     1       4.344   4.989  17.978  0.00  0.00    +0.000 C 
ATOM     25  O   UNL     1       5.355   5.716  18.709  0.00  0.00    +0.000 OA
ATOM     26  C   UNL     1       6.601   4.988  18.753  0.00  0.00    +0.000 C 
ATOM     27  C   UNL     1       7.191   4.861  17.341  0.00  0.00    +0.000 C 
ATOM     28  C   UNL     1       6.146   4.231  16.400  0.00  0.00    +0.000 C 
ATOM     29  C   UNL     1       4.782   4.923  16.506  0.00  0.00    +0.000 C 
BRANCH  27  30
ATOM     30  O   UNL     1       8.360   4.036  17.390  0.00  0.00    +0.000 OA
ATOM     31  H   UNL     1       9.098   4.551  17.011  0.00  0.00    +0.000 HD
ENDBRANCH  27  30
BRANCH  28  32
ATOM     32  O   UNL     1       6.630   4.290  15.053  0.00  0.00    +0.000 OA
ATOM     33  H   UNL     1       6.317   3.468  14.619  0.00  0.00    +0.000 HD
ENDBRANCH  28  32
BRANCH  29  34
ATOM     34  O   UNL     1       4.899   6.244  15.946  0.00  0.00    +0.000 OA
ATOM     35  H   UNL     1       5.815   6.339  15.618  0.00  0.00    +0.000 HD
ENDBRANCH  29  34
BRANCH  26  36
ATOM     36  C   UNL     1       7.548   5.716  19.712  0.00  0.00    +0.000 C 
BRANCH  36  37
ATOM     37  O   UNL     1       8.380   6.633  19.006  0.00  0.00    +0.000 OA
ATOM     38  H   UNL     1       9.213   6.149  18.843  0.00  0.00    +0.000 HD
ENDBRANCH  36  37
ENDBRANCH  26  36
ENDBRANCH  23  24
ENDBRANCH  22  23
ENDBRANCH   1  22
TORSDOF 13
ENDMDL
MODEL 7
REMARK VINA RESULT:      -7.9      4.957     10.454
REMARK  Name = 
REMARK  13 active torsions:
REMARK  status: ('A' for Active; 'I' for Inactive)
REMARK    1  A    between atoms: C_2  and  C_3
REMARK    2  A    between atoms: C_2  and  C_21
REMARK    3  A    between atoms: C_4  and  C_5
REMARK    4  A    between atoms: C_9  and  N_10
REMARK    5  A    between atoms: N_10  and  C_11
REMARK    6  A    between atoms: C_11  and  N_13
REMARK    7  A    between atoms: N_13  and  C_14
REMARK    8  A    between atoms: C_21  and  C_22
REMARK    9  A    between atoms: C_24  and  C_25
REMARK   10  A    between atoms: C_25  and  O_26
REMARK   11  A    between atoms: C_27  and  O_28
REMARK   12  A    between atoms: C_29  and  O_30
REMARK   13  A    between atoms: C_31  and  O_32
REMARK                            x       y       z     vdW  Elec       q    Type
REMARK                         _______ _______ _______ _____ _____    ______ ____
ROOT
ATOM      1  C   UNL     1       2.361   7.479  19.796  0.00  0.00    +0.000 C 
ATOM      2  C   UNL     1       1.897   6.406  19.152  0.00  0.00    +0.000 C 
ENDROOT
BRANCH   2   3
ATOM      3  C   UNL     1       2.697   5.188  18.977  0.00  0.00    +0.000 A 
ATOM      4  C   UNL     1       2.977   4.295  20.019  0.00  0.00    +0.000 A 
ATOM      5  C   UNL     1       3.744   3.158  19.786  0.00  0.00    +0.000 A 
ATOM      6  C   UNL     1       4.241   2.890  18.507  0.00  0.00    +0.000 A 
ATOM      7  C   UNL     1       3.942   3.757  17.456  0.00  0.00    +0.000 A 
ATOM      8  C   UNL     1       3.215   4.920  17.702  0.00  0.00    +0.000 A 
BRANCH   7   9
ATOM      9  N   UNL     1       4.476   3.470  16.193  0.00  0.00    +0.000 N 
ATOM     10  H   UNL     1       3.886   2.948  15.559  0.00  0.00    +0.000 HD
BRANCH   9  11
ATOM     11  C   UNL     1       5.657   3.900  15.624  0.00  0.00    +0.000 C 
ATOM     12  S   UNL     1       5.942   4.214  14.008  0.00  0.00    +0.000 S 
BRANCH  11  13
ATOM     13  N   UNL     1       6.719   3.916  16.498  0.00  0.00    +0.000 N 
ATOM     14  H   UNL     1       7.331   3.107  16.471  0.00  0.00    +0.000 HD
BRANCH  13  15
ATOM     15  C   UNL     1       7.173   5.033  17.226  0.00  0.00    +0.000 A 
ATOM     16  C   UNL     1       7.100   6.294  16.635  0.00  0.00    +0.000 A 
ATOM     17  C   UNL     1       7.563   7.413  17.334  0.00  0.00    +0.000 A 
ATOM     18  C   UNL     1       8.045   7.282  18.635  0.00  0.00    +0.000 A 
ATOM     19  C   UNL     1       8.076   6.029  19.240  0.00  0.00    +0.000 A 
ATOM     20  C   UNL     1       7.649   4.908  18.538  0.00  0.00    +0.000 A 
ENDBRANCH  13  15
ENDBRANCH  11  13
ENDBRANCH   9  11
ENDBRANCH   7   9
ENDBRANCH   2   3
BRANCH   1  22
ATOM     21  O   UNL     1       1.080   8.946  21.157  0.00  0.00    +0.000 OA
ATOM     22  C   UNL     1       1.493   8.665  20.040  0.00  0.00    +0.000 C 
BRANCH  22  23
ATOM     23  C   UNL     1       1.220   9.529  18.825  0.00  0.00    +0.000 C 
BRANCH  23  24
ATOM     24  C   UNL     1      -0.203  10.078  18.840  0.00  0.00    +0.000 C 
ATOM     25  O   UNL     1      -0.750   9.940  17.512  0.00  0.00    +0.000 OA
ATOM     26  C   UNL     1      -2.150  10.294  17.479  0.00  0.00    +0.000 C 
ATOM     27  C   UNL     1      -2.328  11.786  17.794  0.00  0.00    +0.000 C 
ATOM     28  C   UNL     1      -1.644  12.115  19.135  0.00  0.00    +0.000 C 
ATOM     29  C   UNL     1      -0.212  11.573  19.202  0.00  0.00    +0.000 C 
BRANCH  27  30
ATOM     30  O   UNL     1      -3.725  12.089  17.874  0.00  0.00    +0.000 OA
ATOM     31  H   UNL     1      -3.967  12.568  17.058  0.00  0.00    +0.000 HD
ENDBRANCH  27  30
BRANCH  28  32
ATOM     32  O   UNL     1      -1.648  13.534  19.330  0.00  0.00    +0.000 OA
ATOM     33  H   UNL     1      -2.568  13.827  19.158  0.00  0.00    +0.000 HD
ENDBRANCH  28  32
BRANCH  29  34
ATOM     34  O   UNL     1       0.602  12.326  18.283  0.00  0.00    +0.000 OA
ATOM     35  H   UNL     1       0.293  13.253  18.318  0.00  0.00    +0.000 HD
ENDBRANCH  29  34
BRANCH  26  36
ATOM     36  C   UNL     1      -2.706   9.924  16.100  0.00  0.00    +0.000 C 
BRANCH  36  37
ATOM     37  O   UNL     1      -2.956  11.093  15.323  0.00  0.00    +0.000 OA
ATOM     38  H   UNL     1      -3.116  11.803  15.976  0.00  0.00    +0.000 HD
ENDBRANCH  36  37
ENDBRANCH  26  36
ENDBRANCH  23  24
ENDBRANCH  22  23
ENDBRANCH   1  22
TORSDOF 13
ENDMDL
MODEL 8
REMARK VINA RESULT:      -7.9      2.582      4.019
REMARK  Name = 
REMARK  13 active torsions:
REMARK  status: ('A' for Active; 'I' for Inactive)
REMARK    1  A    between atoms: C_2  and  C_3
REMARK    2  A    between atoms: C_2  and  C_21
REMARK    3  A    between atoms: C_4  and  C_5
REMARK    4  A    between atoms: C_9  and  N_10
REMARK    5  A    between atoms: N_10  and  C_11
REMARK    6  A    between atoms: C_11  and  N_13
REMARK    7  A    between atoms: N_13  and  C_14
REMARK    8  A    between atoms: C_21  and  C_22
REMARK    9  A    between atoms: C_24  and  C_25
REMARK   10  A    between atoms: C_25  and  O_26
REMARK   11  A    between atoms: C_27  and  O_28
REMARK   12  A    between atoms: C_29  and  O_30
REMARK   13  A    between atoms: C_31  and  O_32
REMARK                            x       y       z     vdW  Elec       q    Type
REMARK                         _______ _______ _______ _____ _____    ______ ____
ROOT
ATOM      1  C   UNL     1       1.802   7.137  20.458  0.00  0.00    +0.000 C 
ATOM      2  C   UNL     1       0.666   7.535  21.036  0.00  0.00    +0.000 C 
ENDROOT
BRANCH   2   3
ATOM      3  C   UNL     1       0.342   8.951  21.235  0.00  0.00    +0.000 A 
ATOM      4  C   UNL     1      -0.236   9.452  22.409  0.00  0.00    +0.000 A 
ATOM      5  C   UNL     1      -0.520  10.808  22.533  0.00  0.00    +0.000 A 
ATOM      6  C   UNL     1      -0.229  11.690  21.487  0.00  0.00    +0.000 A 
ATOM      7  C   UNL     1       0.375  11.206  20.326  0.00  0.00    +0.000 A 
ATOM      8  C   UNL     1       0.614   9.841  20.185  0.00  0.00    +0.000 A 
BRANCH   7   9
ATOM      9  N   UNL     1       0.630  12.114  19.290  0.00  0.00    +0.000 N 
ATOM     10  H   UNL     1       1.482  11.971  18.761  0.00  0.00    +0.000 HD
BRANCH   9  11
ATOM     11  C   UNL     1      -0.171  13.119  18.789  0.00  0.00    +0.000 C 
ATOM     12  S   UNL     1      -0.424  14.632  19.452  0.00  0.00    +0.000 S 
BRANCH  11  13
ATOM     13  N   UNL     1      -0.932  12.733  17.710  0.00  0.00    +0.000 N 
ATOM     14  H   UNL     1      -0.598  13.033  16.799  0.00  0.00    +0.000 HD
BRANCH  13  15
ATOM     15  C   UNL     1      -1.957  11.769  17.725  0.00  0.00    +0.000 A 
ATOM     16  C   UNL     1      -3.146  12.063  18.391  0.00  0.00    +0.000 A 
ATOM     17  C   UNL     1      -4.170  11.112  18.433  0.00  0.00    +0.000 A 
ATOM     18  C   UNL     1      -4.029   9.895  17.767  0.00  0.00    +0.000 A 
ATOM     19  C   UNL     1      -2.860   9.620  17.065  0.00  0.00    +0.000 A 
ATOM     20  C   UNL     1      -1.825  10.549  17.048  0.00  0.00    +0.000 A 
ENDBRANCH  13  15
ENDBRANCH  11  13
ENDBRANCH   9  11
ENDBRANCH   7   9
ENDBRANCH   2   3
BRANCH   1  22
ATOM     21  O   UNL     1       1.991   4.847  21.065  0.00  0.00    +0.000 OA
ATOM     22  C   UNL     1       2.061   5.694  20.185  0.00  0.00    +0.000 C 
BRANCH  22  23
ATOM     23  C   UNL     1       2.344   5.350  18.737  0.00  0.00    +0.000 C 
BRANCH  23  24
ATOM     24  C   UNL     1       3.768   5.731  18.342  0.00  0.00    +0.000 C 
ATOM     25  O   UNL     1       4.084   5.061  17.103  0.00  0.00    +0.000 OA
ATOM     26  C   UNL     1       5.359   5.492  16.581  0.00  0.00    +0.000 C 
ATOM     27  C   UNL     1       6.492   5.066  17.526  0.00  0.00    +0.000 C 
ATOM     28  C   UNL     1       6.202   5.590  18.946  0.00  0.00    +0.000 C 
ATOM     29  C   UNL     1       4.777   5.262  19.403  0.00  0.00    +0.000 C 
BRANCH  27  30
ATOM     30  O   UNL     1       7.730   5.605  17.052  0.00  0.00    +0.000 OA
ATOM     31  H   UNL     1       8.276   5.817  17.835  0.00  0.00    +0.000 HD
ENDBRANCH  27  30
BRANCH  28  32
ATOM     32  O   UNL     1       7.157   5.033  19.857  0.00  0.00    +0.000 OA
ATOM     33  H   UNL     1       7.570   4.277  19.386  0.00  0.00    +0.000 HD
ENDBRANCH  28  32
BRANCH  29  34
ATOM     34  O   UNL     1       4.681   3.840  19.608  0.00  0.00    +0.000 OA
ATOM     35  H   UNL     1       5.593   3.486  19.603  0.00  0.00    +0.000 HD
ENDBRANCH  29  34
BRANCH  26  36
ATOM     36  C   UNL     1       5.526   4.902  15.176  0.00  0.00    +0.000 C 
BRANCH  36  37
ATOM     37  O   UNL     1       6.671   5.452  14.529  0.00  0.00    +0.000 OA
ATOM     38  H   UNL     1       7.045   4.716  14.005  0.00  0.00    +0.000 HD
ENDBRANCH  36  37
ENDBRANCH  26  36
ENDBRANCH  23  24
ENDBRANCH  22  23
ENDBRANCH   1  22
TORSDOF 13
ENDMDL
MODEL 9
REMARK VINA RESULT:      -7.8      6.084     11.224
REMARK  Name = 
REMARK  13 active torsions:
REMARK  status: ('A' for Active; 'I' for Inactive)
REMARK    1  A    between atoms: C_2  and  C_3
REMARK    2  A    between atoms: C_2  and  C_21
REMARK    3  A    between atoms: C_4  and  C_5
REMARK    4  A    between atoms: C_9  and  N_10
REMARK    5  A    between atoms: N_10  and  C_11
REMARK    6  A    between atoms: C_11  and  N_13
REMARK    7  A    between atoms: N_13  and  C_14
REMARK    8  A    between atoms: C_21  and  C_22
REMARK    9  A    between atoms: C_24  and  C_25
REMARK   10  A    between atoms: C_25  and  O_26
REMARK   11  A    between atoms: C_27  and  O_28
REMARK   12  A    between atoms: C_29  and  O_30
REMARK   13  A    between atoms: C_31  and  O_32
REMARK                            x       y       z     vdW  Elec       q    Type
REMARK                         _______ _______ _______ _____ _____    ______ ____
ROOT
ATOM      1  C   UNL     1       0.416   9.487  21.107  0.00  0.00    +0.000 C 
ATOM      2  C   UNL     1       1.141   8.391  21.341  0.00  0.00    +0.000 C 
ENDROOT
BRANCH   2   3
ATOM      3  C   UNL     1       1.781   7.628  20.263  0.00  0.00    +0.000 A 
ATOM      4  C   UNL     1       2.011   8.149  18.983  0.00  0.00    +0.000 A 
ATOM      5  C   UNL     1       2.622   7.371  18.004  0.00  0.00    +0.000 A 
ATOM      6  C   UNL     1       3.018   6.060  18.289  0.00  0.00    +0.000 A 
ATOM      7  C   UNL     1       2.822   5.543  19.570  0.00  0.00    +0.000 A 
ATOM      8  C   UNL     1       2.166   6.307  20.533  0.00  0.00    +0.000 A 
BRANCH   7   9
ATOM      9  N   UNL     1       3.210   4.220  19.812  0.00  0.00    +0.000 N 
ATOM     10  H   UNL     1       2.847   3.787  20.653  0.00  0.00    +0.000 HD
BRANCH   9  11
ATOM     11  C   UNL     1       3.925   3.355  19.008  0.00  0.00    +0.000 C 
ATOM     12  S   UNL     1       3.328   2.056  18.144  0.00  0.00    +0.000 S 
BRANCH  11  13
ATOM     13  N   UNL     1       5.286   3.537  19.076  0.00  0.00    +0.000 N 
ATOM     14  H   UNL     1       5.816   2.786  19.509  0.00  0.00    +0.000 HD
BRANCH  13  15
ATOM     15  C   UNL     1       6.024   4.519  18.388  0.00  0.00    +0.000 A 
ATOM     16  C   UNL     1       6.786   5.425  19.125  0.00  0.00    +0.000 A 
ATOM     17  C   UNL     1       7.511   6.419  18.461  0.00  0.00    +0.000 A 
ATOM     18  C   UNL     1       7.520   6.475  17.068  0.00  0.00    +0.000 A 
ATOM     19  C   UNL     1       6.795   5.543  16.333  0.00  0.00    +0.000 A 
ATOM     20  C   UNL     1       6.045   4.573  16.988  0.00  0.00    +0.000 A 
ENDBRANCH  13  15
ENDBRANCH  11  13
ENDBRANCH   9  11
ENDBRANCH   7   9
ENDBRANCH   2   3
BRANCH   1  22
ATOM     21  O   UNL     1       0.090  10.023  23.399  0.00  0.00    +0.000 OA
ATOM     22  C   UNL     1      -0.142  10.294  22.229  0.00  0.00    +0.000 C 
BRANCH  22  23
ATOM     23  C   UNL     1      -0.953  11.506  21.815  0.00  0.00    +0.000 C 
BRANCH  23  24
ATOM     24  C   UNL     1      -1.427  12.299  23.028  0.00  0.00    +0.000 C 
ATOM     25  O   UNL     1      -2.862  12.172  23.113  0.00  0.00    +0.000 OA
ATOM     26  C   UNL     1      -3.374  12.767  24.325  0.00  0.00    +0.000 C 
ATOM     27  C   UNL     1      -3.141  14.284  24.312  0.00  0.00    +0.000 C 
ATOM     28  C   UNL     1      -1.648  14.575  24.069  0.00  0.00    +0.000 C 
ATOM     29  C   UNL     1      -1.093  13.792  22.874  0.00  0.00    +0.000 C 
BRANCH  27  30
ATOM     30  O   UNL     1      -3.545  14.836  25.570  0.00  0.00    +0.000 OA
ATOM     31  H   UNL     1      -4.314  14.320  25.882  0.00  0.00    +0.000 HD
ENDBRANCH  27  30
BRANCH  28  32
ATOM     32  O   UNL     1      -1.468  15.982  23.869  0.00  0.00    +0.000 OA
ATOM     33  H   UNL     1      -0.869  16.281  24.586  0.00  0.00    +0.000 HD
ENDBRANCH  28  32
BRANCH  29  34
ATOM     34  O   UNL     1      -1.678  14.326  21.671  0.00  0.00    +0.000 OA
ATOM     35  H   UNL     1      -0.955  14.437  21.023  0.00  0.00    +0.000 HD
ENDBRANCH  29  34
BRANCH  26  36
ATOM     36  C   UNL     1      -4.859  12.410  24.445  0.00  0.00    +0.000 C 
BRANCH  36  37
ATOM     37  O   UNL     1      -5.518  12.554  23.189  0.00  0.00    +0.000 OA
ATOM     38  H   UNL     1      -5.722  13.507  23.116  0.00  0.00    +0.000 HD
ENDBRANCH  36  37
ENDBRANCH  26  36
ENDBRANCH  23  24
ENDBRANCH  22  23
ENDBRANCH   1  22
TORSDOF 13
ENDMDL
