MODEL 1
REMARK VINA RESULT:      -7.1      0.000      0.000
REMARK  Name = 
REMARK  19 active torsions:
REMARK  status: ('A' for Active; 'I' for Inactive)
REMARK    1  A    between atoms: C_1  and  O_2
REMARK    2  A    between atoms: O_2  and  C_3
REMARK    3  A    between atoms: C_3  and  C_5
REMARK    4  A    between atoms: C_5  and  C_6
REMARK    5  A    between atoms: C_6  and  C_7
REMARK    6  A    between atoms: C_10  and  O_11
REMARK    7  A    between atoms: O_11  and  C_12
REMARK    8  A    between atoms: C_12  and  C_13
REMARK    9  A    between atoms: C_13  and  C_14
REMARK   10  A    between atoms: C_14  and  C_15
REMARK   11  A    between atoms: C_15  and  O_16
REMARK   12  A    between atoms: O_16  and  C_17
REMARK   13  A    between atoms: C_20  and  C_21
REMARK   14  A    between atoms: C_21  and  C_23
REMARK   15  A    between atoms: C_23  and  C_24
REMARK   16  A    between atoms: C_24  and  C_25
REMARK   17  A    between atoms: C_24  and  C_26
REMARK   18  A    between atoms: C_27  and  O_28
REMARK   19  A    between atoms: C_29  and  C_30
REMARK                            x       y       z     vdW  Elec       q    Type
REMARK                         _______ _______ _______ _____ _____    ______ ____
ROOT
ATOM      1  C   UNL     1       2.133   6.495  19.986  0.00  0.00    +0.000 C 
ENDROOT
BRANCH   1   2
ATOM      2  C   UNL     1       1.908   5.294  20.907  0.00  0.00    +0.000 C 
BRANCH   2   3
ATOM      3  C   UNL     1       0.913   4.295  20.306  0.00  0.00    +0.000 C 
BRANCH   3   4
ATOM      4  C   UNL     1       1.542   3.467  19.185  0.00  0.00    +0.000 C 
BRANCH   4   5
ATOM      5  O   UNL     1       2.814   2.971  19.589  0.00  0.00    +0.000 OA
BRANCH   5   9
ATOM      6  C   UNL     1       5.881   4.308  17.081  0.00  0.00    +0.000 A 
ATOM      7  C   UNL     1       4.729   3.703  16.594  0.00  0.00    +0.000 A 
ATOM      8  C   UNL     1       3.719   3.285  17.466  0.00  0.00    +0.000 A 
ATOM      9  C   UNL     1       3.863   3.443  18.838  0.00  0.00    +0.000 A 
ATOM     10  C   UNL     1       5.015   4.063  19.346  0.00  0.00    +0.000 A 
ATOM     11  C   UNL     1       6.022   4.496  18.466  0.00  0.00    +0.000 A 
BRANCH   6  12
ATOM     12  C   UNL     1       6.988   4.755  16.157  0.00  0.00    +0.000 C 
BRANCH  12  13
ATOM     13  C   UNL     1       6.462   5.512  14.938  0.00  0.00    +0.000 C 
BRANCH  13  14
ATOM     14  C   UNL     1       6.989   4.914  13.661  0.00  0.00    +0.000 C 
ATOM     15  O   UNL     1       7.892   5.378  12.980  0.00  0.00    +0.000 OA
BRANCH  14  17
ATOM     16  C   UNL     1       6.508   3.279  12.057  0.00  0.00    +0.000 C 
ATOM     17  O   UNL     1       6.311   3.764  13.385  0.00  0.00    +0.000 OA
ENDBRANCH  14  17
ENDBRANCH  13  14
ENDBRANCH  12  13
ENDBRANCH   6  12
ENDBRANCH   5   9
ENDBRANCH   4   5
ENDBRANCH   3   4
ENDBRANCH   2   3
ENDBRANCH   1   2
BRANCH   1  18
ATOM     18  O   UNL     1       2.089   7.728  20.684  0.00  0.00    +0.000 OA
BRANCH  18  19
ATOM     19  C   UNL     1       1.202   8.707  20.325  0.00  0.00    +0.000 A 
ATOM     20  C   UNL     1       1.293   8.973  18.951  0.00  0.00    +0.000 A 
ATOM     21  C   UNL     1       0.535   9.979  18.350  0.00  0.00    +0.000 A 
ATOM     22  C   UNL     1      -0.333  10.749  19.118  0.00  0.00    +0.000 A 
ATOM     23  C   UNL     1      -0.412  10.503  20.500  0.00  0.00    +0.000 A 
ATOM     24  C   UNL     1       0.353   9.491  21.127  0.00  0.00    +0.000 A 
ATOM     25  C   UNL     1       0.228   9.362  22.622  0.00  0.00    +0.000 C 
BRANCH  22  26
ATOM     26  C   UNL     1      -1.146  11.831  18.486  0.00  0.00    +0.000 C 
ATOM     27  O   UNL     1      -0.602  12.905  18.246  0.00  0.00    +0.000 OA
BRANCH  26  28
ATOM     28  C   UNL     1      -2.623  11.540  18.227  0.00  0.00    +0.000 C 
BRANCH  28  29
ATOM     29  C   UNL     1      -3.025  11.272  16.769  0.00  0.00    +0.000 C 
ATOM     30  C   UNL     1      -2.611   9.878  16.297  0.00  0.00    +0.000 C 
ATOM     31  C   UNL     1      -4.550  11.407  16.643  0.00  0.00    +0.000 C 
ENDBRANCH  28  29
ENDBRANCH  26  28
ENDBRANCH  22  26
BRANCH  23  32
ATOM     32  O   UNL     1      -1.236  11.252  21.308  0.00  0.00    +0.000 OA
ATOM     33  H   UNL     1      -0.678  11.913  21.773  0.00  0.00    +0.000 HD
ENDBRANCH  23  32
ENDBRANCH  18  19
ENDBRANCH   1  18
TORSDOF 15
ENDMDL
MODEL 2
REMARK VINA RESULT:      -7.1      1.649      2.752
REMARK  Name = 
REMARK  19 active torsions:
REMARK  status: ('A' for Active; 'I' for Inactive)
REMARK    1  A    between atoms: C_1  and  O_2
REMARK    2  A    between atoms: O_2  and  C_3
REMARK    3  A    between atoms: C_3  and  C_5
REMARK    4  A    between atoms: C_5  and  C_6
REMARK    5  A    between atoms: C_6  and  C_7
REMARK    6  A    between atoms: C_10  and  O_11
REMARK    7  A    between atoms: O_11  and  C_12
REMARK    8  A    between atoms: C_12  and  C_13
REMARK    9  A    between atoms: C_13  and  C_14
REMARK   10  A    between atoms: C_14  and  C_15
REMARK   11  A    between atoms: C_15  and  O_16
REMARK   12  A    between atoms: O_16  and  C_17
REMARK   13  A    between atoms: C_20  and  C_21
REMARK   14  A    between atoms: C_21  and  C_23
REMARK   15  A    between atoms: C_23  and  C_24
REMARK   16  A    between atoms: C_24  and  C_25
REMARK   17  A    between atoms: C_24  and  C_26
REMARK   18  A    between atoms: C_27  and  O_28
REMARK   19  A    between atoms: C_29  and  C_30
REMARK                            x       y       z     vdW  Elec       q    Type
REMARK                         _______ _______ _______ _____ _____    ______ ____
ROOT
ATOM      1  C   UNL     1       1.785   4.947  21.371  0.00  0.00    +0.000 C 
ENDROOT
BRANCH   1   2
ATOM      2  C   UNL     1       1.346   3.521  21.033  0.00  0.00    +0.000 C 
BRANCH   2   3
ATOM      3  C   UNL     1       0.976   3.375  19.552  0.00  0.00    +0.000 C 
BRANCH   3   4
ATOM      4  C   UNL     1       1.566   2.104  18.940  0.00  0.00    +0.000 C 
BRANCH   4   5
ATOM      5  O   UNL     1       2.935   1.966  19.307  0.00  0.00    +0.000 OA
BRANCH   5   9
ATOM      6  C   UNL     1       5.671   4.352  17.232  0.00  0.00    +0.000 A 
ATOM      7  C   UNL     1       5.700   4.213  18.615  0.00  0.00    +0.000 A 
ATOM      8  C   UNL     1       4.776   3.392  19.269  0.00  0.00    +0.000 A 
ATOM      9  C   UNL     1       3.796   2.721  18.549  0.00  0.00    +0.000 A 
ATOM     10  C   UNL     1       3.760   2.842  17.151  0.00  0.00    +0.000 A 
ATOM     11  C   UNL     1       4.699   3.657  16.495  0.00  0.00    +0.000 A 
BRANCH   6  12
ATOM     12  C   UNL     1       6.652   5.243  16.509  0.00  0.00    +0.000 C 
BRANCH  12  13
ATOM     13  C   UNL     1       6.202   5.574  15.087  0.00  0.00    +0.000 C 
BRANCH  13  14
ATOM     14  C   UNL     1       7.212   5.099  14.076  0.00  0.00    +0.000 C 
ATOM     15  O   UNL     1       8.185   5.733  13.694  0.00  0.00    +0.000 OA
BRANCH  14  17
ATOM     16  C   UNL     1       5.590   3.757  13.054  0.00  0.00    +0.000 C 
ATOM     17  O   UNL     1       6.880   3.845  13.658  0.00  0.00    +0.000 OA
ENDBRANCH  14  17
ENDBRANCH  13  14
ENDBRANCH  12  13
ENDBRANCH   6  12
ENDBRANCH   5   9
ENDBRANCH   4   5
ENDBRANCH   3   4
ENDBRANCH   2   3
ENDBRANCH   1   2
BRANCH   1  18
ATOM     18  O   UNL     1       2.444   5.581  20.288  0.00  0.00    +0.000 OA
BRANCH  18  19
ATOM     19  C   UNL     1       2.131   6.864  19.929  0.00  0.00    +0.000 A 
ATOM     20  C   UNL     1       1.455   7.515  20.971  0.00  0.00    +0.000 A 
ATOM     21  C   UNL     1       0.970   8.816  20.827  0.00  0.00    +0.000 A 
ATOM     22  C   UNL     1       1.149   9.496  19.627  0.00  0.00    +0.000 A 
ATOM     23  C   UNL     1       1.806   8.841  18.570  0.00  0.00    +0.000 A 
ATOM     24  C   UNL     1       2.298   7.521  18.696  0.00  0.00    +0.000 A 
ATOM     25  C   UNL     1       2.930   6.904  17.477  0.00  0.00    +0.000 C 
BRANCH  22  26
ATOM     26  C   UNL     1       0.631  10.888  19.461  0.00  0.00    +0.000 C 
ATOM     27  O   UNL     1       1.298  11.683  18.804  0.00  0.00    +0.000 OA
BRANCH  26  28
ATOM     28  C   UNL     1      -0.675  11.240  20.168  0.00  0.00    +0.000 C 
BRANCH  28  29
ATOM     29  C   UNL     1      -1.437  12.463  19.635  0.00  0.00    +0.000 C 
ATOM     30  C   UNL     1      -2.954  12.290  19.730  0.00  0.00    +0.000 C 
ATOM     31  C   UNL     1      -1.026  13.698  20.449  0.00  0.00    +0.000 C 
ENDBRANCH  28  29
ENDBRANCH  26  28
ENDBRANCH  22  26
BRANCH  23  32
ATOM     32  O   UNL     1       1.986   9.460  17.355  0.00  0.00    +0.000 OA
ATOM     33  H   UNL     1       1.364  10.219  17.311  0.00  0.00    +0.000 HD
ENDBRANCH  23  32
ENDBRANCH  18  19
ENDBRANCH   1  18
TORSDOF 15
ENDMDL
MODEL 3
REMARK VINA RESULT:      -7.0      1.434      2.040
REMARK  Name = 
REMARK  19 active torsions:
REMARK  status: ('A' for Active; 'I' for Inactive)
REMARK    1  A    between atoms: C_1  and  O_2
REMARK    2  A    between atoms: O_2  and  C_3
REMARK    3  A    between atoms: C_3  and  C_5
REMARK    4  A    between atoms: C_5  and  C_6
REMARK    5  A    between atoms: C_6  and  C_7
REMARK    6  A    between atoms: C_10  and  O_11
REMARK    7  A    between atoms: O_11  and  C_12
REMARK    8  A    between atoms: C_12  and  C_13
REMARK    9  A    between atoms: C_13  and  C_14
REMARK   10  A    between atoms: C_14  and  C_15
REMARK   11  A    between atoms: C_15  and  O_16
REMARK   12  A    between atoms: O_16  and  C_17
REMARK   13  A    between atoms: C_20  and  C_21
REMARK   14  A    between atoms: C_21  and  C_23
REMARK   15  A    between atoms: C_23  and  C_24
REMARK   16  A    between atoms: C_24  and  C_25
REMARK   17  A    between atoms: C_24  and  C_26
REMARK   18  A    between atoms: C_27  and  O_28
REMARK   19  A    between atoms: C_29  and  C_30
REMARK                            x       y       z     vdW  Elec       q    Type
REMARK                         _______ _______ _______ _____ _____    ______ ____
ROOT
ATOM      1  C   UNL     1       2.279   6.295  19.657  0.00  0.00    +0.000 C 
ENDROOT
BRANCH   1   2
ATOM      2  C   UNL     1       1.498   5.509  20.711  0.00  0.00    +0.000 C 
BRANCH   2   3
ATOM      3  C   UNL     1       2.273   4.276  21.192  0.00  0.00    +0.000 C 
BRANCH   3   4
ATOM      4  C   UNL     1       1.370   3.049  21.316  0.00  0.00    +0.000 C 
BRANCH   4   5
ATOM      5  O   UNL     1       1.440   2.261  20.132  0.00  0.00    +0.000 OA
BRANCH   5   9
ATOM      6  C   UNL     1       4.260   3.475  17.293  0.00  0.00    +0.000 A 
ATOM      7  C   UNL     1       2.892   3.513  17.050  0.00  0.00    +0.000 A 
ATOM      8  C   UNL     1       1.981   3.113  18.033  0.00  0.00    +0.000 A 
ATOM      9  C   UNL     1       2.430   2.645  19.262  0.00  0.00    +0.000 A 
ATOM     10  C   UNL     1       3.807   2.611  19.527  0.00  0.00    +0.000 A 
ATOM     11  C   UNL     1       4.721   3.027  18.542  0.00  0.00    +0.000 A 
BRANCH   6  12
ATOM     12  C   UNL     1       5.259   3.890  16.241  0.00  0.00    +0.000 C 
BRANCH  12  13
ATOM     13  C   UNL     1       5.366   5.408  16.103  0.00  0.00    +0.000 C 
BRANCH  13  14
ATOM     14  C   UNL     1       6.800   5.837  15.939  0.00  0.00    +0.000 C 
ATOM     15  O   UNL     1       7.594   5.367  15.137  0.00  0.00    +0.000 OA
BRANCH  14  17
ATOM     16  C   UNL     1       7.450   6.392  18.118  0.00  0.00    +0.000 C 
ATOM     17  O   UNL     1       7.076   6.843  16.816  0.00  0.00    +0.000 OA
ENDBRANCH  14  17
ENDBRANCH  13  14
ENDBRANCH  12  13
ENDBRANCH   6  12
ENDBRANCH   5   9
ENDBRANCH   4   5
ENDBRANCH   3   4
ENDBRANCH   2   3
ENDBRANCH   1   2
BRANCH   1  18
ATOM     18  O   UNL     1       2.488   7.646  20.034  0.00  0.00    +0.000 OA
BRANCH  18  19
ATOM     19  C   UNL     1       1.510   8.586  19.850  0.00  0.00    +0.000 A 
ATOM     20  C   UNL     1       1.391   8.910  18.490  0.00  0.00    +0.000 A 
ATOM     21  C   UNL     1       0.504   9.894  18.049  0.00  0.00    +0.000 A 
ATOM     22  C   UNL     1      -0.284  10.582  18.966  0.00  0.00    +0.000 A 
ATOM     23  C   UNL     1      -0.153  10.278  20.333  0.00  0.00    +0.000 A 
ATOM     24  C   UNL     1       0.745   9.288  20.798  0.00  0.00    +0.000 A 
ATOM     25  C   UNL     1       0.840   9.094  22.288  0.00  0.00    +0.000 C 
BRANCH  22  26
ATOM     26  C   UNL     1      -1.234  11.640  18.505  0.00  0.00    +0.000 C 
ATOM     27  O   UNL     1      -1.492  12.564  19.270  0.00  0.00    +0.000 OA
BRANCH  26  28
ATOM     28  C   UNL     1      -1.861  11.466  17.124  0.00  0.00    +0.000 C 
BRANCH  28  29
ATOM     29  C   UNL     1      -3.300  10.930  17.085  0.00  0.00    +0.000 C 
ATOM     30  C   UNL     1      -3.862  10.872  15.664  0.00  0.00    +0.000 C 
ATOM     31  C   UNL     1      -3.319   9.517  17.685  0.00  0.00    +0.000 C 
ENDBRANCH  28  29
ENDBRANCH  26  28
ENDBRANCH  22  26
BRANCH  23  32
ATOM     32  O   UNL     1      -0.891  10.947  21.282  0.00  0.00    +0.000 OA
ATOM     33  H   UNL     1      -0.276  11.233  21.992  0.00  0.00    +0.000 HD
ENDBRANCH  23  32
ENDBRANCH  18  19
ENDBRANCH   1  18
TORSDOF 15
ENDMDL
MODEL 4
REMARK VINA RESULT:      -6.8      3.790      5.148
REMARK  Name = 
REMARK  19 active torsions:
REMARK  status: ('A' for Active; 'I' for Inactive)
REMARK    1  A    between atoms: C_1  and  O_2
REMARK    2  A    between atoms: O_2  and  C_3
REMARK    3  A    between atoms: C_3  and  C_5
REMARK    4  A    between atoms: C_5  and  C_6
REMARK    5  A    between atoms: C_6  and  C_7
REMARK    6  A    between atoms: C_10  and  O_11
REMARK    7  A    between atoms: O_11  and  C_12
REMARK    8  A    between atoms: C_12  and  C_13
REMARK    9  A    between atoms: C_13  and  C_14
REMARK   10  A    between atoms: C_14  and  C_15
REMARK   11  A    between atoms: C_15  and  O_16
REMARK   12  A    between atoms: O_16  and  C_17
REMARK   13  A    between atoms: C_20  and  C_21
REMARK   14  A    between atoms: C_21  and  C_23
REMARK   15  A    between atoms: C_23  and  C_24
REMARK   16  A    between atoms: C_24  and  C_25
REMARK   17  A    between atoms: C_24  and  C_26
REMARK   18  A    between atoms: C_27  and  O_28
REMARK   19  A    between atoms: C_29  and  C_30
REMARK                            x       y       z     vdW  Elec       q    Type
REMARK                         _______ _______ _______ _____ _____    ______ ____
ROOT
ATOM      1  C   UNL     1       2.137   5.072  19.240  0.00  0.00    +0.000 C 
ENDROOT
BRANCH   1   2
ATOM      2  C   UNL     1       3.301   4.449  18.467  0.00  0.00    +0.000 C 
BRANCH   2   3
ATOM      3  C   UNL     1       4.068   3.430  19.317  0.00  0.00    +0.000 C 
BRANCH   3   4
ATOM      4  C   UNL     1       5.555   3.773  19.414  0.00  0.00    +0.000 C 
BRANCH   4   5
ATOM      5  O   UNL     1       6.091   4.025  18.120  0.00  0.00    +0.000 OA
BRANCH   5   9
ATOM      6  C   UNL     1       7.731   7.861  17.840  0.00  0.00    +0.000 A 
ATOM      7  C   UNL     1       8.136   6.945  18.803  0.00  0.00    +0.000 A 
ATOM      8  C   UNL     1       7.573   5.666  18.852  0.00  0.00    +0.000 A 
ATOM      9  C   UNL     1       6.579   5.298  17.954  0.00  0.00    +0.000 A 
ATOM     10  C   UNL     1       6.167   6.207  16.968  0.00  0.00    +0.000 A 
ATOM     11  C   UNL     1       6.745   7.488  16.912  0.00  0.00    +0.000 A 
BRANCH   6  12
ATOM     12  C   UNL     1       8.317   9.251  17.778  0.00  0.00    +0.000 C 
BRANCH  12  13
ATOM     13  C   UNL     1       9.085   9.618  19.047  0.00  0.00    +0.000 C 
BRANCH  13  14
ATOM     14  C   UNL     1       9.800  10.934  18.885  0.00  0.00    +0.000 C 
ATOM     15  O   UNL     1      10.822  11.263  19.470  0.00  0.00    +0.000 OA
BRANCH  14  17
ATOM     16  C   UNL     1       9.160  13.097  18.264  0.00  0.00    +0.000 C 
ATOM     17  O   UNL     1       9.138  11.700  17.972  0.00  0.00    +0.000 OA
ENDBRANCH  14  17
ENDBRANCH  13  14
ENDBRANCH  12  13
ENDBRANCH   6  12
ENDBRANCH   5   9
ENDBRANCH   4   5
ENDBRANCH   3   4
ENDBRANCH   2   3
ENDBRANCH   1   2
BRANCH   1  18
ATOM     18  O   UNL     1       2.550   6.151  20.061  0.00  0.00    +0.000 OA
BRANCH  18  19
ATOM     19  C   UNL     1       2.107   7.425  19.823  0.00  0.00    +0.000 A 
ATOM     20  C   UNL     1       1.324   7.880  20.894  0.00  0.00    +0.000 A 
ATOM     21  C   UNL     1       0.700   9.129  20.864  0.00  0.00    +0.000 A 
ATOM     22  C   UNL     1       0.845   9.952  19.752  0.00  0.00    +0.000 A 
ATOM     23  C   UNL     1       1.612   9.493  18.665  0.00  0.00    +0.000 A 
ATOM     24  C   UNL     1       2.245   8.228  18.676  0.00  0.00    +0.000 A 
ATOM     25  C   UNL     1       2.987   7.821  17.431  0.00  0.00    +0.000 C 
BRANCH  22  26
ATOM     26  C   UNL     1       0.180  11.289  19.707  0.00  0.00    +0.000 C 
ATOM     27  O   UNL     1       0.731  12.194  19.086  0.00  0.00    +0.000 OA
BRANCH  26  28
ATOM     28  C   UNL     1      -1.122  11.452  20.488  0.00  0.00    +0.000 C 
BRANCH  28  29
ATOM     29  C   UNL     1      -1.044  12.254  21.795  0.00  0.00    +0.000 C 
ATOM     30  C   UNL     1      -1.925  13.504  21.766  0.00  0.00    +0.000 C 
ATOM     31  C   UNL     1      -1.496  11.355  22.956  0.00  0.00    +0.000 C 
ENDBRANCH  28  29
ENDBRANCH  26  28
ENDBRANCH  22  26
BRANCH  23  32
ATOM     32  O   UNL     1       1.765  10.257  17.532  0.00  0.00    +0.000 OA
ATOM     33  H   UNL     1       1.317   9.791  16.793  0.00  0.00    +0.000 HD
ENDBRANCH  23  32
ENDBRANCH  18  19
ENDBRANCH   1  18
TORSDOF 15
ENDMDL
MODEL 5
REMARK VINA RESULT:      -6.7      2.483      3.455
REMARK  Name = 
REMARK  19 active torsions:
REMARK  status: ('A' for Active; 'I' for Inactive)
REMARK    1  A    between atoms: C_1  and  O_2
REMARK    2  A    between atoms: O_2  and  C_3
REMARK    3  A    between atoms: C_3  and  C_5
REMARK    4  A    between atoms: C_5  and  C_6
REMARK    5  A    between atoms: C_6  and  C_7
REMARK    6  A    between atoms: C_10  and  O_11
REMARK    7  A    between atoms: O_11  and  C_12
REMARK    8  A    between atoms: C_12  and  C_13
REMARK    9  A    between atoms: C_13  and  C_14
REMARK   10  A    between atoms: C_14  and  C_15
REMARK   11  A    between atoms: C_15  and  O_16
REMARK   12  A    between atoms: O_16  and  C_17
REMARK   13  A    between atoms: C_20  and  C_21
REMARK   14  A    between atoms: C_21  and  C_23
REMARK   15  A    between atoms: C_23  and  C_24
REMARK   16  A    between atoms: C_24  and  C_25
REMARK   17  A    between atoms: C_24  and  C_26
REMARK   18  A    between atoms: C_27  and  O_28
REMARK   19  A    between atoms: C_29  and  C_30
REMARK                            x       y       z     vdW  Elec       q    Type
REMARK                         _______ _______ _______ _____ _____    ______ ____
ROOT
ATOM      1  C   UNL     1       1.717   6.036  21.134  0.00  0.00    +0.000 C 
ENDROOT
BRANCH   1   2
ATOM      2  C   UNL     1       2.223   4.628  20.817  0.00  0.00    +0.000 C 
BRANCH   2   3
ATOM      3  C   UNL     1       1.102   3.586  20.906  0.00  0.00    +0.000 C 
BRANCH   3   4
ATOM      4  C   UNL     1       1.279   2.467  19.879  0.00  0.00    +0.000 C 
BRANCH   4   5
ATOM      5  O   UNL     1       1.180   2.988  18.558  0.00  0.00    +0.000 OA
BRANCH   5   9
ATOM      6  C   UNL     1       4.797   3.773  16.613  0.00  0.00    +0.000 A 
ATOM      7  C   UNL     1       3.871   4.769  16.897  0.00  0.00    +0.000 A 
ATOM      8  C   UNL     1       2.680   4.467  17.564  0.00  0.00    +0.000 A 
ATOM      9  C   UNL     1       2.390   3.159  17.931  0.00  0.00    +0.000 A 
ATOM     10  C   UNL     1       3.319   2.143  17.661  0.00  0.00    +0.000 A 
ATOM     11  C   UNL     1       4.523   2.452  17.003  0.00  0.00    +0.000 A 
BRANCH   6  12
ATOM     12  C   UNL     1       6.083   4.077  15.883  0.00  0.00    +0.000 C 
BRANCH  12  13
ATOM     13  C   UNL     1       6.747   5.361  16.378  0.00  0.00    +0.000 C 
BRANCH  13  14
ATOM     14  C   UNL     1       7.573   5.102  17.610  0.00  0.00    +0.000 C 
ATOM     15  O   UNL     1       8.310   4.142  17.781  0.00  0.00    +0.000 OA
BRANCH  14  17
ATOM     16  C   UNL     1       7.886   7.376  18.068  0.00  0.00    +0.000 C 
ATOM     17  O   UNL     1       7.383   6.113  18.504  0.00  0.00    +0.000 OA
ENDBRANCH  14  17
ENDBRANCH  13  14
ENDBRANCH  12  13
ENDBRANCH   6  12
ENDBRANCH   5   9
ENDBRANCH   4   5
ENDBRANCH   3   4
ENDBRANCH   2   3
ENDBRANCH   1   2
BRANCH   1  18
ATOM     18  O   UNL     1       2.030   6.966  20.111  0.00  0.00    +0.000 OA
BRANCH  18  19
ATOM     19  C   UNL     1       1.581   8.258  20.175  0.00  0.00    +0.000 A 
ATOM     20  C   UNL     1       1.156   8.566  21.476  0.00  0.00    +0.000 A 
ATOM     21  C   UNL     1       0.594   9.806  21.786  0.00  0.00    +0.000 A 
ATOM     22  C   UNL     1       0.440  10.768  20.793  0.00  0.00    +0.000 A 
ATOM     23  C   UNL     1       0.844  10.458  19.482  0.00  0.00    +0.000 A 
ATOM     24  C   UNL     1       1.410   9.204  19.149  0.00  0.00    +0.000 A 
ATOM     25  C   UNL     1       1.747   8.967  17.701  0.00  0.00    +0.000 C 
BRANCH  22  26
ATOM     26  C   UNL     1      -0.163  12.097  21.114  0.00  0.00    +0.000 C 
ATOM     27  O   UNL     1       0.548  12.947  21.643  0.00  0.00    +0.000 OA
BRANCH  26  28
ATOM     28  C   UNL     1      -1.646  12.287  20.805  0.00  0.00    +0.000 C 
BRANCH  28  29
ATOM     29  C   UNL     1      -2.499  12.935  21.906  0.00  0.00    +0.000 C 
ATOM     30  C   UNL     1      -3.965  13.084  21.496  0.00  0.00    +0.000 C 
ATOM     31  C   UNL     1      -2.423  12.064  23.169  0.00  0.00    +0.000 C 
ENDBRANCH  28  29
ENDBRANCH  26  28
ENDBRANCH  22  26
BRANCH  23  32
ATOM     32  O   UNL     1       0.691  11.364  18.460  0.00  0.00    +0.000 OA
ATOM     33  H   UNL     1      -0.131  11.874  18.633  0.00  0.00    +0.000 HD
ENDBRANCH  23  32
ENDBRANCH  18  19
ENDBRANCH   1  18
TORSDOF 15
ENDMDL
MODEL 6
REMARK VINA RESULT:      -6.7      2.765     10.219
REMARK  Name = 
REMARK  19 active torsions:
REMARK  status: ('A' for Active; 'I' for Inactive)
REMARK    1  A    between atoms: C_1  and  O_2
REMARK    2  A    between atoms: O_2  and  C_3
REMARK    3  A    between atoms: C_3  and  C_5
REMARK    4  A    between atoms: C_5  and  C_6
REMARK    5  A    between atoms: C_6  and  C_7
REMARK    6  A    between atoms: C_10  and  O_11
REMARK    7  A    between atoms: O_11  and  C_12
REMARK    8  A    between atoms: C_12  and  C_13
REMARK    9  A    between atoms: C_13  and  C_14
REMARK   10  A    between atoms: C_14  and  C_15
REMARK   11  A    between atoms: C_15  and  O_16
REMARK   12  A    between atoms: O_16  and  C_17
REMARK   13  A    between atoms: C_20  and  C_21
REMARK   14  A    between atoms: C_21  and  C_23
REMARK   15  A    between atoms: C_23  and  C_24
REMARK   16  A    between atoms: C_24  and  C_25
REMARK   17  A    between atoms: C_24  and  C_26
REMARK   18  A    between atoms: C_27  and  O_28
REMARK   19  A    between atoms: C_29  and  C_30
REMARK                            x       y       z     vdW  Elec       q    Type
REMARK                         _______ _______ _______ _____ _____    ______ ____
ROOT
ATOM      1  C   UNL     1       1.020   4.081  20.077  0.00  0.00    +0.000 C 
ENDROOT
BRANCH   1   2
ATOM      2  C   UNL     1       2.333   4.391  20.797  0.00  0.00    +0.000 C 
BRANCH   2   3
ATOM      3  C   UNL     1       2.378   5.838  21.300  0.00  0.00    +0.000 C 
BRANCH   3   4
ATOM      4  C   UNL     1       1.100   6.603  20.953  0.00  0.00    +0.000 C 
BRANCH   4   5
ATOM      5  O   UNL     1       1.416   7.909  20.483  0.00  0.00    +0.000 OA
BRANCH   5   9
ATOM      6  C   UNL     1      -0.546  11.147  22.258  0.00  0.00    +0.000 A 
ATOM      7  C   UNL     1       0.241  11.283  21.121  0.00  0.00    +0.000 A 
ATOM      8  C   UNL     1       0.867  10.172  20.549  0.00  0.00    +0.000 A 
ATOM      9  C   UNL     1       0.734   8.914  21.124  0.00  0.00    +0.000 A 
ATOM     10  C   UNL     1      -0.067   8.757  22.266  0.00  0.00    +0.000 A 
ATOM     11  C   UNL     1      -0.707   9.874  22.831  0.00  0.00    +0.000 A 
BRANCH   6  12
ATOM     12  C   UNL     1      -1.220  12.336  22.898  0.00  0.00    +0.000 C 
BRANCH  12  13
ATOM     13  C   UNL     1      -2.623  12.010  23.406  0.00  0.00    +0.000 C 
BRANCH  13  14
ATOM     14  C   UNL     1      -3.675  12.662  22.548  0.00  0.00    +0.000 C 
ATOM     15  O   UNL     1      -3.462  13.298  21.525  0.00  0.00    +0.000 OA
BRANCH  14  17
ATOM     16  C   UNL     1      -5.686  13.601  23.291  0.00  0.00    +0.000 C 
ATOM     17  O   UNL     1      -4.907  12.423  23.080  0.00  0.00    +0.000 OA
ENDBRANCH  14  17
ENDBRANCH  13  14
ENDBRANCH  12  13
ENDBRANCH   6  12
ENDBRANCH   5   9
ENDBRANCH   4   5
ENDBRANCH   3   4
ENDBRANCH   2   3
ENDBRANCH   1   2
BRANCH   1  18
ATOM     18  O   UNL     1       1.160   4.094  18.666  0.00  0.00    +0.000 OA
BRANCH  18  19
ATOM     19  C   UNL     1       2.374   4.342  18.083  0.00  0.00    +0.000 A 
ATOM     20  C   UNL     1       2.530   5.714  17.839  0.00  0.00    +0.000 A 
ATOM     21  C   UNL     1       3.660   6.217  17.191  0.00  0.00    +0.000 A 
ATOM     22  C   UNL     1       4.662   5.349  16.766  0.00  0.00    +0.000 A 
ATOM     23  C   UNL     1       4.502   3.970  16.989  0.00  0.00    +0.000 A 
ATOM     24  C   UNL     1       3.360   3.443  17.639  0.00  0.00    +0.000 A 
ATOM     25  C   UNL     1       3.273   1.945  17.765  0.00  0.00    +0.000 C 
BRANCH  22  26
ATOM     26  C   UNL     1       5.874   5.876  16.069  0.00  0.00    +0.000 C 
ATOM     27  O   UNL     1       5.754   6.273  14.913  0.00  0.00    +0.000 OA
BRANCH  26  28
ATOM     28  C   UNL     1       7.197   5.834  16.830  0.00  0.00    +0.000 C 
BRANCH  28  29
ATOM     29  C   UNL     1       7.249   6.605  18.158  0.00  0.00    +0.000 C 
ATOM     30  C   UNL     1       7.991   5.833  19.250  0.00  0.00    +0.000 C 
ATOM     31  C   UNL     1       7.962   7.944  17.926  0.00  0.00    +0.000 C 
ENDBRANCH  28  29
ENDBRANCH  26  28
ENDBRANCH  22  26
BRANCH  23  32
ATOM     32  O   UNL     1       5.451   3.069  16.567  0.00  0.00    +0.000 OA
ATOM     33  H   UNL     1       6.332   3.487  16.678  0.00  0.00    +0.000 HD
ENDBRANCH  23  32
ENDBRANCH  18  19
ENDBRANCH   1  18
TORSDOF 15
ENDMDL
MODEL 7
REMARK VINA RESULT:      -6.7      2.412     10.585
REMARK  Name = 
REMARK  19 active torsions:
REMARK  status: ('A' for Active; 'I' for Inactive)
REMARK    1  A    between atoms: C_1  and  O_2
REMARK    2  A    between atoms: O_2  and  C_3
REMARK    3  A    between atoms: C_3  and  C_5
REMARK    4  A    between atoms: C_5  and  C_6
REMARK    5  A    between atoms: C_6  and  C_7
REMARK    6  A    between atoms: C_10  and  O_11
REMARK    7  A    between atoms: O_11  and  C_12
REMARK    8  A    between atoms: C_12  and  C_13
REMARK    9  A    between atoms: C_13  and  C_14
REMARK   10  A    between atoms: C_14  and  C_15
REMARK   11  A    between atoms: C_15  and  O_16
REMARK   12  A    between atoms: O_16  and  C_17
REMARK   13  A    between atoms: C_20  and  C_21
REMARK   14  A    between atoms: C_21  and  C_23
REMARK   15  A    between atoms: C_23  and  C_24
REMARK   16  A    between atoms: C_24  and  C_25
REMARK   17  A    between atoms: C_24  and  C_26
REMARK   18  A    between atoms: C_27  and  O_28
REMARK   19  A    between atoms: C_29  and  C_30
REMARK                            x       y       z     vdW  Elec       q    Type
REMARK                         _______ _______ _______ _____ _____    ______ ____
ROOT
ATOM      1  C   UNL     1       3.220   5.546  19.534  0.00  0.00    +0.000 C 
ENDROOT
BRANCH   1   2
ATOM      2  C   UNL     1       2.712   6.988  19.574  0.00  0.00    +0.000 C 
BRANCH   2   3
ATOM      3  C   UNL     1       2.506   7.558  18.165  0.00  0.00    +0.000 C 
BRANCH   3   4
ATOM      4  C   UNL     1       2.109   9.034  18.199  0.00  0.00    +0.000 C 
BRANCH   4   5
ATOM      5  O   UNL     1       0.724   9.182  17.906  0.00  0.00    +0.000 OA
BRANCH   5   9
ATOM      6  C   UNL     1      -1.219  11.527  20.771  0.00  0.00    +0.000 A 
ATOM      7  C   UNL     1      -0.338  10.508  21.113  0.00  0.00    +0.000 A 
ATOM      8  C   UNL     1       0.304   9.757  20.123  0.00  0.00    +0.000 A 
ATOM      9  C   UNL     1       0.051  10.000  18.779  0.00  0.00    +0.000 A 
ATOM     10  C   UNL     1      -0.827  11.033  18.416  0.00  0.00    +0.000 A 
ATOM     11  C   UNL     1      -1.461  11.796  19.414  0.00  0.00    +0.000 A 
BRANCH   6  12
ATOM     12  C   UNL     1      -1.932  12.340  21.825  0.00  0.00    +0.000 C 
BRANCH  12  13
ATOM     13  C   UNL     1      -0.971  12.937  22.850  0.00  0.00    +0.000 C 
BRANCH  13  14
ATOM     14  C   UNL     1      -0.607  14.353  22.490  0.00  0.00    +0.000 C 
ATOM     15  O   UNL     1      -0.598  14.818  21.359  0.00  0.00    +0.000 OA
BRANCH  14  17
ATOM     16  C   UNL     1      -1.342  15.057  24.597  0.00  0.00    +0.000 C 
ATOM     17  O   UNL     1      -0.298  15.045  23.623  0.00  0.00    +0.000 OA
ENDBRANCH  14  17
ENDBRANCH  13  14
ENDBRANCH  12  13
ENDBRANCH   6  12
ENDBRANCH   5   9
ENDBRANCH   4   5
ENDBRANCH   3   4
ENDBRANCH   2   3
ENDBRANCH   1   2
BRANCH   1  18
ATOM     18  O   UNL     1       4.609   5.470  19.262  0.00  0.00    +0.000 OA
BRANCH  18  19
ATOM     19  C   UNL     1       5.066   5.275  17.986  0.00  0.00    +0.000 A 
ATOM     20  C   UNL     1       4.242   4.369  17.303  0.00  0.00    +0.000 A 
ATOM     21  C   UNL     1       4.533   3.954  16.002  0.00  0.00    +0.000 A 
ATOM     22  C   UNL     1       5.666   4.439  15.355  0.00  0.00    +0.000 A 
ATOM     23  C   UNL     1       6.508   5.331  16.042  0.00  0.00    +0.000 A 
ATOM     24  C   UNL     1       6.232   5.756  17.363  0.00  0.00    +0.000 A 
ATOM     25  C   UNL     1       7.239   6.665  18.016  0.00  0.00    +0.000 C 
BRANCH  22  26
ATOM     26  C   UNL     1       5.989   3.999  13.964  0.00  0.00    +0.000 C 
ATOM     27  O   UNL     1       7.170   3.922  13.637  0.00  0.00    +0.000 OA
BRANCH  26  28
ATOM     28  C   UNL     1       4.817   3.725  13.024  0.00  0.00    +0.000 C 
BRANCH  28  29
ATOM     29  C   UNL     1       5.171   3.262  11.602  0.00  0.00    +0.000 C 
ATOM     30  C   UNL     1       5.810   1.873  11.585  0.00  0.00    +0.000 C 
ATOM     31  C   UNL     1       3.888   3.229  10.758  0.00  0.00    +0.000 C 
ENDBRANCH  28  29
ENDBRANCH  26  28
ENDBRANCH  22  26
BRANCH  23  32
ATOM     32  O   UNL     1       7.653   5.819  15.456  0.00  0.00    +0.000 OA
ATOM     33  H   UNL     1       8.085   6.421  16.100  0.00  0.00    +0.000 HD
ENDBRANCH  23  32
ENDBRANCH  18  19
ENDBRANCH   1  18
TORSDOF 15
ENDMDL
MODEL 8
REMARK VINA RESULT:      -6.6      2.114      9.345
REMARK  Name = 
REMARK  19 active torsions:
REMARK  status: ('A' for Active; 'I' for Inactive)
REMARK    1  A    between atoms: C_1  and  O_2
REMARK    2  A    between atoms: O_2  and  C_3
REMARK    3  A    between atoms: C_3  and  C_5
REMARK    4  A    between atoms: C_5  and  C_6
REMARK    5  A    between atoms: C_6  and  C_7
REMARK    6  A    between atoms: C_10  and  O_11
REMARK    7  A    between atoms: O_11  and  C_12
REMARK    8  A    between atoms: C_12  and  C_13
REMARK    9  A    between atoms: C_13  and  C_14
REMARK   10  A    between atoms: C_14  and  C_15
REMARK   11  A    between atoms: C_15  and  O_16
REMARK   12  A    between atoms: O_16  and  C_17
REMARK   13  A    between atoms: C_20  and  C_21
REMARK   14  A    between atoms: C_21  and  C_23
REMARK   15  A    between atoms: C_23  and  C_24
REMARK   16  A    between atoms: C_24  and  C_25
REMARK   17  A    between atoms: C_24  and  C_26
REMARK   18  A    between atoms: C_27  and  O_28
REMARK   19  A    between atoms: C_29  and  C_30
REMARK                            x       y       z     vdW  Elec       q    Type
REMARK                         _______ _______ _______ _____ _____    ______ ____
ROOT
ATOM      1  C   UNL     1       1.626   2.009  19.247  0.00  0.00    +0.000 C 
ENDROOT
BRANCH   1   2
ATOM      2  C   UNL     1       0.709   3.228  19.143  0.00  0.00    +0.000 C 
BRANCH   2   3
ATOM      3  C   UNL     1       1.167   4.365  20.065  0.00  0.00    +0.000 C 
BRANCH   3   4
ATOM      4  C   UNL     1       1.999   5.407  19.315  0.00  0.00    +0.000 C 
BRANCH   4   5
ATOM      5  O   UNL     1       2.437   6.426  20.207  0.00  0.00    +0.000 OA
BRANCH   5   9
ATOM      6  C   UNL     1       0.750  10.209  19.632  0.00  0.00    +0.000 A 
ATOM      7  C   UNL     1       0.676   9.535  20.845  0.00  0.00    +0.000 A 
ATOM      8  C   UNL     1       1.268   8.278  21.001  0.00  0.00    +0.000 A 
ATOM      9  C   UNL     1       1.918   7.668  19.936  0.00  0.00    +0.000 A 
ATOM     10  C   UNL     1       2.012   8.340  18.707  0.00  0.00    +0.000 A 
ATOM     11  C   UNL     1       1.429   9.610  18.558  0.00  0.00    +0.000 A 
BRANCH   6  12
ATOM     12  C   UNL     1       0.108  11.561  19.441  0.00  0.00    +0.000 C 
BRANCH  12  13
ATOM     13  C   UNL     1      -1.362  11.574  19.859  0.00  0.00    +0.000 C 
BRANCH  13  14
ATOM     14  C   UNL     1      -1.624  12.651  20.878  0.00  0.00    +0.000 C 
ATOM     15  O   UNL     1      -1.983  13.793  20.628  0.00  0.00    +0.000 OA
BRANCH  14  17
ATOM     16  C   UNL     1      -2.595  12.061  22.924  0.00  0.00    +0.000 C 
ATOM     17  O   UNL     1      -1.413  12.152  22.129  0.00  0.00    +0.000 OA
ENDBRANCH  14  17
ENDBRANCH  13  14
ENDBRANCH  12  13
ENDBRANCH   6  12
ENDBRANCH   5   9
ENDBRANCH   4   5
ENDBRANCH   3   4
ENDBRANCH   2   3
ENDBRANCH   1   2
BRANCH   1  18
ATOM     18  O   UNL     1       2.525   1.913  18.156  0.00  0.00    +0.000 OA
BRANCH  18  19
ATOM     19  C   UNL     1       3.536   2.823  17.997  0.00  0.00    +0.000 A 
ATOM     20  C   UNL     1       3.557   3.309  16.681  0.00  0.00    +0.000 A 
ATOM     21  C   UNL     1       4.538   4.203  16.248  0.00  0.00    +0.000 A 
ATOM     22  C   UNL     1       5.528   4.629  17.128  0.00  0.00    +0.000 A 
ATOM     23  C   UNL     1       5.525   4.129  18.443  0.00  0.00    +0.000 A 
ATOM     24  C   UNL     1       4.543   3.218  18.896  0.00  0.00    +0.000 A 
ATOM     25  C   UNL     1       4.681   2.706  20.306  0.00  0.00    +0.000 C 
BRANCH  22  26
ATOM     26  C   UNL     1       6.584   5.584  16.674  0.00  0.00    +0.000 C 
ATOM     27  O   UNL     1       7.476   5.161  15.944  0.00  0.00    +0.000 OA
BRANCH  26  28
ATOM     28  C   UNL     1       6.508   7.016  17.198  0.00  0.00    +0.000 C 
BRANCH  28  29
ATOM     29  C   UNL     1       7.839   7.676  17.588  0.00  0.00    +0.000 C 
ATOM     30  C   UNL     1       7.709   9.190  17.765  0.00  0.00    +0.000 C 
ATOM     31  C   UNL     1       8.329   7.062  18.907  0.00  0.00    +0.000 C 
ENDBRANCH  28  29
ENDBRANCH  26  28
ENDBRANCH  22  26
BRANCH  23  32
ATOM     32  O   UNL     1       6.496   4.499  19.344  0.00  0.00    +0.000 OA
ATOM     33  H   UNL     1       6.747   5.428  19.149  0.00  0.00    +0.000 HD
ENDBRANCH  23  32
ENDBRANCH  18  19
ENDBRANCH   1  18
TORSDOF 15
ENDMDL
MODEL 9
REMARK VINA RESULT:      -6.6      3.378      4.589
REMARK  Name = 
REMARK  19 active torsions:
REMARK  status: ('A' for Active; 'I' for Inactive)
REMARK    1  A    between atoms: C_1  and  O_2
REMARK    2  A    between atoms: O_2  and  C_3
REMARK    3  A    between atoms: C_3  and  C_5
REMARK    4  A    between atoms: C_5  and  C_6
REMARK    5  A    between atoms: C_6  and  C_7
REMARK    6  A    between atoms: C_10  and  O_11
REMARK    7  A    between atoms: O_11  and  C_12
REMARK    8  A    between atoms: C_12  and  C_13
REMARK    9  A    between atoms: C_13  and  C_14
REMARK   10  A    between atoms: C_14  and  C_15
REMARK   11  A    between atoms: C_15  and  O_16
REMARK   12  A    between atoms: O_16  and  C_17
REMARK   13  A    between atoms: C_20  and  C_21
REMARK   14  A    between atoms: C_21  and  C_23
REMARK   15  A    between atoms: C_23  and  C_24
REMARK   16  A    between atoms: C_24  and  C_25
REMARK   17  A    between atoms: C_24  and  C_26
REMARK   18  A    between atoms: C_27  and  O_28
REMARK   19  A    between atoms: C_29  and  C_30
REMARK                            x       y       z     vdW  Elec       q    Type
REMARK                         _______ _______ _______ _____ _____    ______ ____
ROOT
ATOM      1  C   UNL     1       1.605   6.389  20.342  0.00  0.00    +0.000 C 
ENDROOT
BRANCH   1   2
ATOM      2  C   UNL     1       2.355   5.912  19.098  0.00  0.00    +0.000 C 
BRANCH   2   3
ATOM      3  C   UNL     1       2.362   4.382  18.989  0.00  0.00    +0.000 C 
BRANCH   3   4
ATOM      4  C   UNL     1       3.028   3.906  17.698  0.00  0.00    +0.000 C 
BRANCH   4   5
ATOM      5  O   UNL     1       4.385   3.551  17.942  0.00  0.00    +0.000 OA
BRANCH   5   9
ATOM      6  C   UNL     1       6.927   6.843  17.507  0.00  0.00    +0.000 A 
ATOM      7  C   UNL     1       5.876   6.591  16.633  0.00  0.00    +0.000 A 
ATOM      8  C   UNL     1       5.039   5.487  16.824  0.00  0.00    +0.000 A 
ATOM      9  C   UNL     1       5.260   4.608  17.876  0.00  0.00    +0.000 A 
ATOM     10  C   UNL     1       6.310   4.854  18.774  0.00  0.00    +0.000 A 
ATOM     11  C   UNL     1       7.142   5.973  18.588  0.00  0.00    +0.000 A 
BRANCH   6  12
ATOM     12  C   UNL     1       7.850   8.021  17.311  0.00  0.00    +0.000 C 
BRANCH  12  13
ATOM     13  C   UNL     1       8.484   8.491  18.619  0.00  0.00    +0.000 C 
BRANCH  13  14
ATOM     14  C   UNL     1       8.847   9.951  18.551  0.00  0.00    +0.000 C 
ATOM     15  O   UNL     1       8.398  10.757  17.749  0.00  0.00    +0.000 OA
BRANCH  14  17
ATOM     16  C   UNL     1       9.277  11.196  20.485  0.00  0.00    +0.000 C 
ATOM     17  O   UNL     1       9.746  10.241  19.534  0.00  0.00    +0.000 OA
ENDBRANCH  14  17
ENDBRANCH  13  14
ENDBRANCH  12  13
ENDBRANCH   6  12
ENDBRANCH   5   9
ENDBRANCH   4   5
ENDBRANCH   3   4
ENDBRANCH   2   3
ENDBRANCH   1   2
BRANCH   1  18
ATOM     18  O   UNL     1       2.032   7.670  20.773  0.00  0.00    +0.000 OA
BRANCH  18  19
ATOM     19  C   UNL     1       1.252   8.776  20.567  0.00  0.00    +0.000 A 
ATOM     20  C   UNL     1       0.485   9.056  21.707  0.00  0.00    +0.000 A 
ATOM     21  C   UNL     1      -0.441  10.101  21.726  0.00  0.00    +0.000 A 
ATOM     22  C   UNL     1      -0.624  10.889  20.595  0.00  0.00    +0.000 A 
ATOM     23  C   UNL     1       0.126  10.600  19.441  0.00  0.00    +0.000 A 
ATOM     24  C   UNL     1       1.064   9.542  19.402  0.00  0.00    +0.000 A 
ATOM     25  C   UNL     1       1.762   9.292  18.091  0.00  0.00    +0.000 C 
BRANCH  22  26
ATOM     26  C   UNL     1      -1.615  12.007  20.603  0.00  0.00    +0.000 C 
ATOM     27  O   UNL     1      -2.485  12.022  19.737  0.00  0.00    +0.000 OA
BRANCH  26  28
ATOM     28  C   UNL     1      -1.443  13.090  21.666  0.00  0.00    +0.000 C 
BRANCH  28  29
ATOM     29  C   UNL     1      -2.661  13.377  22.557  0.00  0.00    +0.000 C 
ATOM     30  C   UNL     1      -3.033  12.183  23.438  0.00  0.00    +0.000 C 
ATOM     31  C   UNL     1      -2.344  14.579  23.459  0.00  0.00    +0.000 C 
ENDBRANCH  28  29
ENDBRANCH  26  28
ENDBRANCH  22  26
BRANCH  23  32
ATOM     32  O   UNL     1      -0.035  11.334  18.288  0.00  0.00    +0.000 OA
ATOM     33  H   UNL     1       0.825  11.341  17.815  0.00  0.00    +0.000 HD
ENDBRANCH  23  32
ENDBRANCH  18  19
ENDBRANCH   1  18
TORSDOF 15
ENDMDL
