MODEL 1
REMARK VINA RESULT:      -6.8      0.000      0.000
REMARK  Name = 
REMARK  23 active torsions:
REMARK  status: ('A' for Active; 'I' for Inactive)
REMARK    1  A    between atoms: C_1  and  C_2
REMARK    2  A    between atoms: C_2  and  C_3
REMARK    3  A    between atoms: C_4  and  C_5
REMARK    4  A    between atoms: C_5  and  C_6
REMARK    5  A    between atoms: C_6  and  C_7
REMARK    6  A    between atoms: C_7  and  C_8
REMARK    7  A    between atoms: C_9  and  C_10
REMARK    8  A    between atoms: C_10  and  C_11
REMARK    9  A    between atoms: C_11  and  S_12
REMARK   10  A    between atoms: S_12  and  C_13
REMARK   11  A    between atoms: C_13  and  C_14
REMARK   12  A    between atoms: C_14  and  C_15
REMARK   13  A    between atoms: C_15  and  C_16
REMARK   14  A    between atoms: C_17  and  C_18
REMARK   15  A    between atoms: C_17  and  C_19
REMARK   16  A    between atoms: C_19  and  C_20
REMARK   17  A    between atoms: C_20  and  C_21
REMARK   18  A    between atoms: C_22  and  C_23
REMARK   19  A    between atoms: C_22  and  C_24
REMARK   20  A    between atoms: C_24  and  C_25
REMARK   21  A    between atoms: C_25  and  C_26
REMARK   22  A    between atoms: C_28  and  C_29
REMARK   23  A    between atoms: C_28  and  C_30
REMARK                            x       y       z     vdW  Elec       q    Type
REMARK                         _______ _______ _______ _____ _____    ______ ____
ROOT
ATOM      1  C   UNL     1       6.764   5.235  15.828  0.00  0.00    +0.000 C 
ENDROOT
BRANCH   1   2
ATOM      2  C   UNL     1       7.370   6.377  16.571  0.00  0.00    +0.000 C 
ATOM      3  C   UNL     1       7.636   6.447  17.891  0.00  0.00    +0.000 C 
ATOM      4  C   UNL     1       7.340   5.322  18.851  0.00  0.00    +0.000 C 
BRANCH   3   5
ATOM      5  C   UNL     1       8.301   7.664  18.531  0.00  0.00    +0.000 C 
BRANCH   5   6
ATOM      6  C   UNL     1       7.769   9.002  18.003  0.00  0.00    +0.000 C 
BRANCH   6   7
ATOM      7  C   UNL     1       8.784  10.039  17.627  0.00  0.00    +0.000 C 
ATOM      8  C   UNL     1       9.450  10.761  18.547  0.00  0.00    +0.000 C 
ATOM      9  C   UNL     1       9.254  10.602  20.035  0.00  0.00    +0.000 C 
BRANCH   8  10
ATOM     10  C   UNL     1      10.512  11.756  18.127  0.00  0.00    +0.000 C 
BRANCH  10  11
ATOM     11  C   UNL     1      10.910  12.753  19.222  0.00  0.00    +0.000 C 
BRANCH  11  12
ATOM     12  C   UNL     1      11.038  14.155  18.713  0.00  0.00    +0.000 C 
ATOM     13  O   UNL     1       9.952  14.587  17.877  0.00  0.00    +0.000 OA
ATOM     14  C   UNL     1      10.115  15.301  19.110  0.00  0.00    +0.000 C 
ATOM     15  C   UNL     1       8.962  15.122  20.050  0.00  0.00    +0.000 C 
ATOM     16  C   UNL     1      10.632  16.697  18.955  0.00  0.00    +0.000 C 
ENDBRANCH  11  12
ENDBRANCH  10  11
ENDBRANCH   8  10
ENDBRANCH   6   7
ENDBRANCH   5   6
ENDBRANCH   3   5
ENDBRANCH   1   2
BRANCH   1  17
ATOM     17  C   UNL     1       5.263   5.186  16.100  0.00  0.00    +0.000 C 
BRANCH  17  18
ATOM     18  C   UNL     1       4.858   3.744  16.332  0.00  0.00    +0.000 C 
BRANCH  18  19
ATOM     19  S   UNL     1       4.110   3.544  17.977  0.00  0.00    +0.000 S 
BRANCH  19  20
ATOM     20  C   UNL     1       2.815   2.331  17.548  0.00  0.00    +0.000 C 
BRANCH  20  21
ATOM     21  C   UNL     1       1.504   2.636  18.270  0.00  0.00    +0.000 C 
BRANCH  21  24
ATOM     22  C   UNL     1       1.441   4.120  20.317  0.00  0.00    +0.000 C 
ATOM     23  C   UNL     1       1.213   2.945  21.236  0.00  0.00    +0.000 C 
ATOM     24  C   UNL     1       1.517   3.960  18.976  0.00  0.00    +0.000 C 
BRANCH  22  25
ATOM     25  C   UNL     1       1.580   5.523  20.882  0.00  0.00    +0.000 C 
BRANCH  25  26
ATOM     26  C   UNL     1       2.576   6.445  20.171  0.00  0.00    +0.000 C 
BRANCH  26  30
ATOM     27  C   UNL     1       1.447   9.440  17.959  0.00  0.00    +0.000 C 
ATOM     28  C   UNL     1       2.230   8.252  18.438  0.00  0.00    +0.000 C 
ATOM     29  C   UNL     1       3.333   7.745  17.550  0.00  0.00    +0.000 C 
ATOM     30  C   UNL     1       1.936   7.690  19.624  0.00  0.00    +0.000 C 
ENDBRANCH  26  30
ENDBRANCH  25  26
ENDBRANCH  22  25
ENDBRANCH  21  24
ENDBRANCH  20  21
ENDBRANCH  19  20
ENDBRANCH  18  19
ENDBRANCH  17  18
ENDBRANCH   1  17
TORSDOF 16
ENDMDL
MODEL 2
REMARK VINA RESULT:      -6.7      5.158      8.553
REMARK  Name = 
REMARK  23 active torsions:
REMARK  status: ('A' for Active; 'I' for Inactive)
REMARK    1  A    between atoms: C_1  and  C_2
REMARK    2  A    between atoms: C_2  and  C_3
REMARK    3  A    between atoms: C_4  and  C_5
REMARK    4  A    between atoms: C_5  and  C_6
REMARK    5  A    between atoms: C_6  and  C_7
REMARK    6  A    between atoms: C_7  and  C_8
REMARK    7  A    between atoms: C_9  and  C_10
REMARK    8  A    between atoms: C_10  and  C_11
REMARK    9  A    between atoms: C_11  and  S_12
REMARK   10  A    between atoms: S_12  and  C_13
REMARK   11  A    between atoms: C_13  and  C_14
REMARK   12  A    between atoms: C_14  and  C_15
REMARK   13  A    between atoms: C_15  and  C_16
REMARK   14  A    between atoms: C_17  and  C_18
REMARK   15  A    between atoms: C_17  and  C_19
REMARK   16  A    between atoms: C_19  and  C_20
REMARK   17  A    between atoms: C_20  and  C_21
REMARK   18  A    between atoms: C_22  and  C_23
REMARK   19  A    between atoms: C_22  and  C_24
REMARK   20  A    between atoms: C_24  and  C_25
REMARK   21  A    between atoms: C_25  and  C_26
REMARK   22  A    between atoms: C_28  and  C_29
REMARK   23  A    between atoms: C_28  and  C_30
REMARK                            x       y       z     vdW  Elec       q    Type
REMARK                         _______ _______ _______ _____ _____    ______ ____
ROOT
ATOM      1  C   UNL     1       1.400   4.736  18.029  0.00  0.00    +0.000 C 
ENDROOT
BRANCH   1   2
ATOM      2  C   UNL     1       1.998   6.014  17.548  0.00  0.00    +0.000 C 
ATOM      3  C   UNL     1       2.470   7.031  18.297  0.00  0.00    +0.000 C 
ATOM      4  C   UNL     1       2.454   7.020  19.804  0.00  0.00    +0.000 C 
BRANCH   3   5
ATOM      5  C   UNL     1       3.102   8.278  17.682  0.00  0.00    +0.000 C 
BRANCH   5   6
ATOM      6  C   UNL     1       2.395   9.582  18.076  0.00  0.00    +0.000 C 
BRANCH   6   7
ATOM      7  C   UNL     1       0.933   9.495  18.396  0.00  0.00    +0.000 C 
ATOM      8  C   UNL     1       0.292  10.450  19.096  0.00  0.00    +0.000 C 
ATOM      9  C   UNL     1       0.965  11.695  19.619  0.00  0.00    +0.000 C 
BRANCH   8  10
ATOM     10  C   UNL     1      -1.199  10.355  19.345  0.00  0.00    +0.000 C 
BRANCH  10  11
ATOM     11  C   UNL     1      -2.054  11.173  18.371  0.00  0.00    +0.000 C 
BRANCH  11  12
ATOM     12  C   UNL     1      -2.213  10.511  17.038  0.00  0.00    +0.000 C 
ATOM     13  O   UNL     1      -3.212   9.478  17.001  0.00  0.00    +0.000 OA
ATOM     14  C   UNL     1      -3.460  10.619  16.168  0.00  0.00    +0.000 C 
ATOM     15  C   UNL     1      -4.671  11.398  16.583  0.00  0.00    +0.000 C 
ATOM     16  C   UNL     1      -3.310  10.360  14.701  0.00  0.00    +0.000 C 
ENDBRANCH  11  12
ENDBRANCH  10  11
ENDBRANCH   8  10
ENDBRANCH   6   7
ENDBRANCH   5   6
ENDBRANCH   3   5
ENDBRANCH   1   2
BRANCH   1  17
ATOM     17  C   UNL     1       2.144   3.556  17.409  0.00  0.00    +0.000 C 
BRANCH  17  18
ATOM     18  C   UNL     1       1.961   2.344  18.299  0.00  0.00    +0.000 C 
BRANCH  18  19
ATOM     19  S   UNL     1       3.536   1.874  19.075  0.00  0.00    +0.000 S 
BRANCH  19  20
ATOM     20  C   UNL     1       3.919   3.453  19.908  0.00  0.00    +0.000 C 
BRANCH  20  21
ATOM     21  C   UNL     1       5.341   3.916  19.598  0.00  0.00    +0.000 C 
BRANCH  21  24
ATOM     22  C   UNL     1       6.474   5.718  18.233  0.00  0.00    +0.000 C 
ATOM     23  C   UNL     1       7.694   5.708  19.121  0.00  0.00    +0.000 C 
ATOM     24  C   UNL     1       5.402   4.936  18.501  0.00  0.00    +0.000 C 
BRANCH  22  25
ATOM     25  C   UNL     1       6.415   6.624  17.015  0.00  0.00    +0.000 C 
BRANCH  25  26
ATOM     26  C   UNL     1       5.317   6.316  15.993  0.00  0.00    +0.000 C 
BRANCH  26  30
ATOM     27  C   UNL     1       6.299   3.708  13.278  0.00  0.00    +0.000 C 
ATOM     28  C   UNL     1       5.849   4.282  14.591  0.00  0.00    +0.000 C 
ATOM     29  C   UNL     1       5.438   3.313  15.666  0.00  0.00    +0.000 C 
ATOM     30  C   UNL     1       5.833   5.615  14.768  0.00  0.00    +0.000 C 
ENDBRANCH  26  30
ENDBRANCH  25  26
ENDBRANCH  22  25
ENDBRANCH  21  24
ENDBRANCH  20  21
ENDBRANCH  19  20
ENDBRANCH  18  19
ENDBRANCH  17  18
ENDBRANCH   1  17
TORSDOF 16
ENDMDL
MODEL 3
REMARK VINA RESULT:      -6.4      6.175     10.559
REMARK  Name = 
REMARK  23 active torsions:
REMARK  status: ('A' for Active; 'I' for Inactive)
REMARK    1  A    between atoms: C_1  and  C_2
REMARK    2  A    between atoms: C_2  and  C_3
REMARK    3  A    between atoms: C_4  and  C_5
REMARK    4  A    between atoms: C_5  and  C_6
REMARK    5  A    between atoms: C_6  and  C_7
REMARK    6  A    between atoms: C_7  and  C_8
REMARK    7  A    between atoms: C_9  and  C_10
REMARK    8  A    between atoms: C_10  and  C_11
REMARK    9  A    between atoms: C_11  and  S_12
REMARK   10  A    between atoms: S_12  and  C_13
REMARK   11  A    between atoms: C_13  and  C_14
REMARK   12  A    between atoms: C_14  and  C_15
REMARK   13  A    between atoms: C_15  and  C_16
REMARK   14  A    between atoms: C_17  and  C_18
REMARK   15  A    between atoms: C_17  and  C_19
REMARK   16  A    between atoms: C_19  and  C_20
REMARK   17  A    between atoms: C_20  and  C_21
REMARK   18  A    between atoms: C_22  and  C_23
REMARK   19  A    between atoms: C_22  and  C_24
REMARK   20  A    between atoms: C_24  and  C_25
REMARK   21  A    between atoms: C_25  and  C_26
REMARK   22  A    between atoms: C_28  and  C_29
REMARK   23  A    between atoms: C_28  and  C_30
REMARK                            x       y       z     vdW  Elec       q    Type
REMARK                         _______ _______ _______ _____ _____    ______ ____
ROOT
ATOM      1  C   UNL     1       2.744   6.660  18.777  0.00  0.00    +0.000 C 
ENDROOT
BRANCH   1   2
ATOM      2  C   UNL     1       2.135   8.021  18.768  0.00  0.00    +0.000 C 
ATOM      3  C   UNL     1       1.436   8.613  19.758  0.00  0.00    +0.000 C 
ATOM      4  C   UNL     1       1.155   7.946  21.080  0.00  0.00    +0.000 C 
BRANCH   3   5
ATOM      5  C   UNL     1       0.896  10.037  19.643  0.00  0.00    +0.000 C 
BRANCH   5   6
ATOM      6  C   UNL     1       0.025  10.264  18.401  0.00  0.00    +0.000 C 
BRANCH   6   7
ATOM      7  C   UNL     1      -1.160  11.170  18.555  0.00  0.00    +0.000 C 
ATOM      8  C   UNL     1      -2.345  10.912  17.970  0.00  0.00    +0.000 C 
ATOM      9  C   UNL     1      -2.606   9.696  17.115  0.00  0.00    +0.000 C 
BRANCH   8  10
ATOM     10  C   UNL     1      -3.534  11.820  18.201  0.00  0.00    +0.000 C 
BRANCH  10  11
ATOM     11  C   UNL     1      -4.894  11.141  18.002  0.00  0.00    +0.000 C 
BRANCH  11  12
ATOM     12  C   UNL     1      -5.958  11.696  18.895  0.00  0.00    +0.000 C 
ATOM     13  O   UNL     1      -7.300  11.493  18.421  0.00  0.00    +0.000 OA
ATOM     14  C   UNL     1      -6.969  10.848  19.658  0.00  0.00    +0.000 C 
ATOM     15  C   UNL     1      -7.001   9.353  19.569  0.00  0.00    +0.000 C 
ATOM     16  C   UNL     1      -7.615  11.453  20.866  0.00  0.00    +0.000 C 
ENDBRANCH  11  12
ENDBRANCH  10  11
ENDBRANCH   8  10
ENDBRANCH   6   7
ENDBRANCH   5   6
ENDBRANCH   3   5
ENDBRANCH   1   2
BRANCH   1  17
ATOM     17  C   UNL     1       1.869   5.703  17.971  0.00  0.00    +0.000 C 
BRANCH  17  18
ATOM     18  C   UNL     1       2.275   4.280  18.299  0.00  0.00    +0.000 C 
BRANCH  18  19
ATOM     19  S   UNL     1       2.927   4.173  19.993  0.00  0.00    +0.000 S 
BRANCH  19  20
ATOM     20  C   UNL     1       4.668   3.789  19.597  0.00  0.00    +0.000 C 
BRANCH  20  21
ATOM     21  C   UNL     1       5.284   4.858  18.697  0.00  0.00    +0.000 C 
BRANCH  21  24
ATOM     22  C   UNL     1       5.871   4.886  16.237  0.00  0.00    +0.000 C 
ATOM     23  C   UNL     1       5.081   6.151  16.002  0.00  0.00    +0.000 C 
ATOM     24  C   UNL     1       5.903   4.293  17.453  0.00  0.00    +0.000 C 
BRANCH  22  25
ATOM     25  C   UNL     1       6.643   4.239  15.101  0.00  0.00    +0.000 C 
BRANCH  25  26
ATOM     26  C   UNL     1       6.046   4.393  13.700  0.00  0.00    +0.000 C 
BRANCH  26  30
ATOM     27  C   UNL     1       6.257   1.730  10.872  0.00  0.00    +0.000 C 
ATOM     28  C   UNL     1       5.684   2.742  11.821  0.00  0.00    +0.000 C 
ATOM     29  C   UNL     1       4.224   3.077  11.678  0.00  0.00    +0.000 C 
ATOM     30  C   UNL     1       6.470   3.303  12.757  0.00  0.00    +0.000 C 
ENDBRANCH  26  30
ENDBRANCH  25  26
ENDBRANCH  22  25
ENDBRANCH  21  24
ENDBRANCH  20  21
ENDBRANCH  19  20
ENDBRANCH  18  19
ENDBRANCH  17  18
ENDBRANCH   1  17
TORSDOF 16
ENDMDL
MODEL 4
REMARK VINA RESULT:      -6.3      5.077      8.397
REMARK  Name = 
REMARK  23 active torsions:
REMARK  status: ('A' for Active; 'I' for Inactive)
REMARK    1  A    between atoms: C_1  and  C_2
REMARK    2  A    between atoms: C_2  and  C_3
REMARK    3  A    between atoms: C_4  and  C_5
REMARK    4  A    between atoms: C_5  and  C_6
REMARK    5  A    between atoms: C_6  and  C_7
REMARK    6  A    between atoms: C_7  and  C_8
REMARK    7  A    between atoms: C_9  and  C_10
REMARK    8  A    between atoms: C_10  and  C_11
REMARK    9  A    between atoms: C_11  and  S_12
REMARK   10  A    between atoms: S_12  and  C_13
REMARK   11  A    between atoms: C_13  and  C_14
REMARK   12  A    between atoms: C_14  and  C_15
REMARK   13  A    between atoms: C_15  and  C_16
REMARK   14  A    between atoms: C_17  and  C_18
REMARK   15  A    between atoms: C_17  and  C_19
REMARK   16  A    between atoms: C_19  and  C_20
REMARK   17  A    between atoms: C_20  and  C_21
REMARK   18  A    between atoms: C_22  and  C_23
REMARK   19  A    between atoms: C_22  and  C_24
REMARK   20  A    between atoms: C_24  and  C_25
REMARK   21  A    between atoms: C_25  and  C_26
REMARK   22  A    between atoms: C_28  and  C_29
REMARK   23  A    between atoms: C_28  and  C_30
REMARK                            x       y       z     vdW  Elec       q    Type
REMARK                         _______ _______ _______ _____ _____    ______ ____
ROOT
ATOM      1  C   UNL     1       1.636   4.723  17.845  0.00  0.00    +0.000 C 
ENDROOT
BRANCH   1   2
ATOM      2  C   UNL     1       2.121   6.096  17.522  0.00  0.00    +0.000 C 
ATOM      3  C   UNL     1       2.411   7.087  18.389  0.00  0.00    +0.000 C 
ATOM      4  C   UNL     1       2.277   6.940  19.883  0.00  0.00    +0.000 C 
BRANCH   3   5
ATOM      5  C   UNL     1       2.943   8.445  17.934  0.00  0.00    +0.000 C 
BRANCH   5   6
ATOM      6  C   UNL     1       1.846   9.500  17.740  0.00  0.00    +0.000 C 
BRANCH   6   7
ATOM      7  C   UNL     1       0.781   9.577  18.792  0.00  0.00    +0.000 C 
ATOM      8  C   UNL     1       0.478  10.726  19.426  0.00  0.00    +0.000 C 
ATOM      9  C   UNL     1       1.162  12.041  19.143  0.00  0.00    +0.000 C 
BRANCH   8  10
ATOM     10  C   UNL     1      -0.648  10.775  20.438  0.00  0.00    +0.000 C 
BRANCH  10  11
ATOM     11  C   UNL     1      -1.630  11.934  20.232  0.00  0.00    +0.000 C 
BRANCH  11  12
ATOM     12  C   UNL     1      -1.380  13.082  21.158  0.00  0.00    +0.000 C 
ATOM     13  O   UNL     1      -2.554  13.833  21.508  0.00  0.00    +0.000 OA
ATOM     14  C   UNL     1      -1.898  13.159  22.590  0.00  0.00    +0.000 C 
ATOM     15  C   UNL     1      -2.735  12.081  23.206  0.00  0.00    +0.000 C 
ATOM     16  C   UNL     1      -1.181  14.066  23.542  0.00  0.00    +0.000 C 
ENDBRANCH  11  12
ENDBRANCH  10  11
ENDBRANCH   8  10
ENDBRANCH   6   7
ENDBRANCH   5   6
ENDBRANCH   3   5
ENDBRANCH   1   2
BRANCH   1  17
ATOM     17  C   UNL     1       2.755   3.714  17.600  0.00  0.00    +0.000 C 
BRANCH  17  18
ATOM     18  C   UNL     1       2.796   2.742  18.762  0.00  0.00    +0.000 C 
BRANCH  18  19
ATOM     19  S   UNL     1       4.440   2.738  19.538  0.00  0.00    +0.000 S 
BRANCH  19  20
ATOM     20  C   UNL     1       4.917   4.466  19.192  0.00  0.00    +0.000 C 
BRANCH  20  21
ATOM     21  C   UNL     1       6.340   4.553  18.647  0.00  0.00    +0.000 C 
BRANCH  21  24
ATOM     22  C   UNL     1       6.319   5.551  16.323  0.00  0.00    +0.000 C 
ATOM     23  C   UNL     1       6.030   6.934  16.855  0.00  0.00    +0.000 C 
ATOM     24  C   UNL     1       6.402   4.483  17.150  0.00  0.00    +0.000 C 
BRANCH  22  25
ATOM     25  C   UNL     1       6.512   5.323  14.834  0.00  0.00    +0.000 C 
BRANCH  25  26
ATOM     26  C   UNL     1       6.244   3.904  14.324  0.00  0.00    +0.000 C 
BRANCH  26  30
ATOM     27  C   UNL     1       4.123   3.160  11.149  0.00  0.00    +0.000 C 
ATOM     28  C   UNL     1       5.298   3.226  12.081  0.00  0.00    +0.000 C 
ATOM     29  C   UNL     1       6.579   2.580  11.627  0.00  0.00    +0.000 C 
ATOM     30  C   UNL     1       5.179   3.851  13.265  0.00  0.00    +0.000 C 
ENDBRANCH  26  30
ENDBRANCH  25  26
ENDBRANCH  22  25
ENDBRANCH  21  24
ENDBRANCH  20  21
ENDBRANCH  19  20
ENDBRANCH  18  19
ENDBRANCH  17  18
ENDBRANCH   1  17
TORSDOF 16
ENDMDL
MODEL 5
REMARK VINA RESULT:      -6.3      1.915      4.779
REMARK  Name = 
REMARK  23 active torsions:
REMARK  status: ('A' for Active; 'I' for Inactive)
REMARK    1  A    between atoms: C_1  and  C_2
REMARK    2  A    between atoms: C_2  and  C_3
REMARK    3  A    between atoms: C_4  and  C_5
REMARK    4  A    between atoms: C_5  and  C_6
REMARK    5  A    between atoms: C_6  and  C_7
REMARK    6  A    between atoms: C_7  and  C_8
REMARK    7  A    between atoms: C_9  and  C_10
REMARK    8  A    between atoms: C_10  and  C_11
REMARK    9  A    between atoms: C_11  and  S_12
REMARK   10  A    between atoms: S_12  and  C_13
REMARK   11  A    between atoms: C_13  and  C_14
REMARK   12  A    between atoms: C_14  and  C_15
REMARK   13  A    between atoms: C_15  and  C_16
REMARK   14  A    between atoms: C_17  and  C_18
REMARK   15  A    between atoms: C_17  and  C_19
REMARK   16  A    between atoms: C_19  and  C_20
REMARK   17  A    between atoms: C_20  and  C_21
REMARK   18  A    between atoms: C_22  and  C_23
REMARK   19  A    between atoms: C_22  and  C_24
REMARK   20  A    between atoms: C_24  and  C_25
REMARK   21  A    between atoms: C_25  and  C_26
REMARK   22  A    between atoms: C_28  and  C_29
REMARK   23  A    between atoms: C_28  and  C_30
REMARK                            x       y       z     vdW  Elec       q    Type
REMARK                         _______ _______ _______ _____ _____    ______ ____
ROOT
ATOM      1  C   UNL     1       7.803   9.111  18.054  0.00  0.00    +0.000 C 
ENDROOT
BRANCH   1   2
ATOM      2  C   UNL     1       9.141   9.730  18.272  0.00  0.00    +0.000 C 
ATOM      3  C   UNL     1       9.473  11.031  18.148  0.00  0.00    +0.000 C 
ATOM      4  C   UNL     1       8.486  12.098  17.748  0.00  0.00    +0.000 C 
BRANCH   3   5
ATOM      5  C   UNL     1      10.879  11.551  18.441  0.00  0.00    +0.000 C 
BRANCH   5   6
ATOM      6  C   UNL     1      11.163  11.743  19.937  0.00  0.00    +0.000 C 
BRANCH   6   7
ATOM      7  C   UNL     1      10.688  13.021  20.563  0.00  0.00    +0.000 C 
ATOM      8  C   UNL     1       9.629  13.065  21.393  0.00  0.00    +0.000 C 
ATOM      9  C   UNL     1       8.823  11.850  21.783  0.00  0.00    +0.000 C 
BRANCH   8  10
ATOM     10  C   UNL     1       9.220  14.365  22.053  0.00  0.00    +0.000 C 
BRANCH  10  11
ATOM     11  C   UNL     1       8.826  15.474  21.071  0.00  0.00    +0.000 C 
BRANCH  11  12
ATOM     12  C   UNL     1       7.346  15.589  20.886  0.00  0.00    +0.000 C 
ATOM     13  O   UNL     1       6.909  16.846  20.343  0.00  0.00    +0.000 OA
ATOM     14  C   UNL     1       6.654  15.691  19.532  0.00  0.00    +0.000 C 
ATOM     15  C   UNL     1       7.408  15.703  18.237  0.00  0.00    +0.000 C 
ATOM     16  C   UNL     1       5.212  15.293  19.454  0.00  0.00    +0.000 C 
ENDBRANCH  11  12
ENDBRANCH  10  11
ENDBRANCH   8  10
ENDBRANCH   6   7
ENDBRANCH   5   6
ENDBRANCH   3   5
ENDBRANCH   1   2
BRANCH   1  17
ATOM     17  C   UNL     1       7.972   7.738  17.411  0.00  0.00    +0.000 C 
BRANCH  17  18
ATOM     18  C   UNL     1       7.573   6.677  18.417  0.00  0.00    +0.000 C 
BRANCH  18  19
ATOM     19  S   UNL     1       7.344   5.070  17.599  0.00  0.00    +0.000 S 
BRANCH  19  20
ATOM     20  C   UNL     1       7.003   5.665  15.906  0.00  0.00    +0.000 C 
BRANCH  20  21
ATOM     21  C   UNL     1       5.504   5.692  15.616  0.00  0.00    +0.000 C 
BRANCH  21  24
ATOM     22  C   UNL     1       3.943   6.247  17.526  0.00  0.00    +0.000 C 
ATOM     23  C   UNL     1       4.013   7.726  17.233  0.00  0.00    +0.000 C 
ATOM     24  C   UNL     1       4.668   5.353  16.814  0.00  0.00    +0.000 C 
BRANCH  22  25
ATOM     25  C   UNL     1       3.058   5.725  18.645  0.00  0.00    +0.000 C 
BRANCH  25  26
ATOM     26  C   UNL     1       2.967   4.203  18.785  0.00  0.00    +0.000 C 
BRANCH  26  30
ATOM     27  C   UNL     1       1.328   2.494  21.871  0.00  0.00    +0.000 C 
ATOM     28  C   UNL     1       1.552   2.941  20.456  0.00  0.00    +0.000 C 
ATOM     29  C   UNL     1       0.592   2.442  19.411  0.00  0.00    +0.000 C 
ATOM     30  C   UNL     1       2.578   3.761  20.167  0.00  0.00    +0.000 C 
ENDBRANCH  26  30
ENDBRANCH  25  26
ENDBRANCH  22  25
ENDBRANCH  21  24
ENDBRANCH  20  21
ENDBRANCH  19  20
ENDBRANCH  18  19
ENDBRANCH  17  18
ENDBRANCH   1  17
TORSDOF 16
ENDMDL
MODEL 6
REMARK VINA RESULT:      -6.2      1.723      2.756
REMARK  Name = 
REMARK  23 active torsions:
REMARK  status: ('A' for Active; 'I' for Inactive)
REMARK    1  A    between atoms: C_1  and  C_2
REMARK    2  A    between atoms: C_2  and  C_3
REMARK    3  A    between atoms: C_4  and  C_5
REMARK    4  A    between atoms: C_5  and  C_6
REMARK    5  A    between atoms: C_6  and  C_7
REMARK    6  A    between atoms: C_7  and  C_8
REMARK    7  A    between atoms: C_9  and  C_10
REMARK    8  A    between atoms: C_10  and  C_11
REMARK    9  A    between atoms: C_11  and  S_12
REMARK   10  A    between atoms: S_12  and  C_13
REMARK   11  A    between atoms: C_13  and  C_14
REMARK   12  A    between atoms: C_14  and  C_15
REMARK   13  A    between atoms: C_15  and  C_16
REMARK   14  A    between atoms: C_17  and  C_18
REMARK   15  A    between atoms: C_17  and  C_19
REMARK   16  A    between atoms: C_19  and  C_20
REMARK   17  A    between atoms: C_20  and  C_21
REMARK   18  A    between atoms: C_22  and  C_23
REMARK   19  A    between atoms: C_22  and  C_24
REMARK   20  A    between atoms: C_24  and  C_25
REMARK   21  A    between atoms: C_25  and  C_26
REMARK   22  A    between atoms: C_28  and  C_29
REMARK   23  A    between atoms: C_28  and  C_30
REMARK                            x       y       z     vdW  Elec       q    Type
REMARK                         _______ _______ _______ _____ _____    ______ ____
ROOT
ATOM      1  C   UNL     1       6.261   6.314  16.506  0.00  0.00    +0.000 C 
ENDROOT
BRANCH   1   2
ATOM      2  C   UNL     1       7.125   7.330  17.171  0.00  0.00    +0.000 C 
ATOM      3  C   UNL     1       7.832   7.185  18.311  0.00  0.00    +0.000 C 
ATOM      4  C   UNL     1       7.845   5.910  19.114  0.00  0.00    +0.000 C 
BRANCH   3   5
ATOM      5  C   UNL     1       8.719   8.295  18.872  0.00  0.00    +0.000 C 
BRANCH   5   6
ATOM      6  C   UNL     1       8.475   9.663  18.224  0.00  0.00    +0.000 C 
BRANCH   6   7
ATOM      7  C   UNL     1       9.644  10.598  18.142  0.00  0.00    +0.000 C 
ATOM      8  C   UNL     1      10.127  11.242  19.221  0.00  0.00    +0.000 C 
ATOM      9  C   UNL     1       9.555  11.089  20.610  0.00  0.00    +0.000 C 
BRANCH   8  10
ATOM     10  C   UNL     1      11.349  12.129  19.108  0.00  0.00    +0.000 C 
BRANCH  10  11
ATOM     11  C   UNL     1      11.204  13.274  18.099  0.00  0.00    +0.000 C 
BRANCH  11  12
ATOM     12  C   UNL     1      10.192  14.294  18.517  0.00  0.00    +0.000 C 
ATOM     13  O   UNL     1      10.753  15.502  19.060  0.00  0.00    +0.000 OA
ATOM     14  C   UNL     1      10.009  15.649  17.843  0.00  0.00    +0.000 C 
ATOM     15  C   UNL     1      10.851  16.098  16.688  0.00  0.00    +0.000 C 
ATOM     16  C   UNL     1       8.686  16.333  18.002  0.00  0.00    +0.000 C 
ENDBRANCH  11  12
ENDBRANCH  10  11
ENDBRANCH   8  10
ENDBRANCH   6   7
ENDBRANCH   5   6
ENDBRANCH   3   5
ENDBRANCH   1   2
BRANCH   1  17
ATOM     17  C   UNL     1       7.005   4.984  16.422  0.00  0.00    +0.000 C 
BRANCH  17  18
ATOM     18  C   UNL     1       5.997   3.875  16.199  0.00  0.00    +0.000 C 
BRANCH  18  19
ATOM     19  S   UNL     1       4.332   4.412  16.695  0.00  0.00    +0.000 S 
BRANCH  19  20
ATOM     20  C   UNL     1       4.495   4.196  18.500  0.00  0.00    +0.000 C 
BRANCH  20  21
ATOM     21  C   UNL     1       3.948   5.404  19.258  0.00  0.00    +0.000 C 
BRANCH  21  24
ATOM     22  C   UNL     1       2.508   7.422  18.760  0.00  0.00    +0.000 C 
ATOM     23  C   UNL     1       2.002   7.487  20.181  0.00  0.00    +0.000 C 
ATOM     24  C   UNL     1       3.346   6.440  18.356  0.00  0.00    +0.000 C 
BRANCH  22  25
ATOM     25  C   UNL     1       2.074   8.461  17.741  0.00  0.00    +0.000 C 
BRANCH  25  26
ATOM     26  C   UNL     1       1.395   9.716  18.298  0.00  0.00    +0.000 C 
BRANCH  26  30
ATOM     27  C   UNL     1       2.775  13.354  18.285  0.00  0.00    +0.000 C 
ATOM     28  C   UNL     1       1.831  12.200  18.463  0.00  0.00    +0.000 C 
ATOM     29  C   UNL     1       0.481  12.495  19.060  0.00  0.00    +0.000 C 
ATOM     30  C   UNL     1       2.205  10.965  18.086  0.00  0.00    +0.000 C 
ENDBRANCH  26  30
ENDBRANCH  25  26
ENDBRANCH  22  25
ENDBRANCH  21  24
ENDBRANCH  20  21
ENDBRANCH  19  20
ENDBRANCH  18  19
ENDBRANCH  17  18
ENDBRANCH   1  17
TORSDOF 16
ENDMDL
MODEL 7
REMARK VINA RESULT:      -6.2      1.659      2.676
REMARK  Name = 
REMARK  23 active torsions:
REMARK  status: ('A' for Active; 'I' for Inactive)
REMARK    1  A    between atoms: C_1  and  C_2
REMARK    2  A    between atoms: C_2  and  C_3
REMARK    3  A    between atoms: C_4  and  C_5
REMARK    4  A    between atoms: C_5  and  C_6
REMARK    5  A    between atoms: C_6  and  C_7
REMARK    6  A    between atoms: C_7  and  C_8
REMARK    7  A    between atoms: C_9  and  C_10
REMARK    8  A    between atoms: C_10  and  C_11
REMARK    9  A    between atoms: C_11  and  S_12
REMARK   10  A    between atoms: S_12  and  C_13
REMARK   11  A    between atoms: C_13  and  C_14
REMARK   12  A    between atoms: C_14  and  C_15
REMARK   13  A    between atoms: C_15  and  C_16
REMARK   14  A    between atoms: C_17  and  C_18
REMARK   15  A    between atoms: C_17  and  C_19
REMARK   16  A    between atoms: C_19  and  C_20
REMARK   17  A    between atoms: C_20  and  C_21
REMARK   18  A    between atoms: C_22  and  C_23
REMARK   19  A    between atoms: C_22  and  C_24
REMARK   20  A    between atoms: C_24  and  C_25
REMARK   21  A    between atoms: C_25  and  C_26
REMARK   22  A    between atoms: C_28  and  C_29
REMARK   23  A    between atoms: C_28  and  C_30
REMARK                            x       y       z     vdW  Elec       q    Type
REMARK                         _______ _______ _______ _____ _____    ______ ____
ROOT
ATOM      1  C   UNL     1       5.576   4.188  18.202  0.00  0.00    +0.000 C 
ENDROOT
BRANCH   1   2
ATOM      2  C   UNL     1       5.856   5.650  18.296  0.00  0.00    +0.000 C 
ATOM      3  C   UNL     1       6.483   6.424  17.387  0.00  0.00    +0.000 C 
ATOM      4  C   UNL     1       7.018   5.893  16.082  0.00  0.00    +0.000 C 
BRANCH   3   5
ATOM      5  C   UNL     1       6.674   7.927  17.582  0.00  0.00    +0.000 C 
BRANCH   5   6
ATOM      6  C   UNL     1       8.145   8.351  17.679  0.00  0.00    +0.000 C 
BRANCH   6   7
ATOM      7  C   UNL     1       8.611   8.899  18.994  0.00  0.00    +0.000 C 
ATOM      8  C   UNL     1       9.148  10.128  19.112  0.00  0.00    +0.000 C 
ATOM      9  C   UNL     1       9.328  11.075  17.951  0.00  0.00    +0.000 C 
BRANCH   8  10
ATOM     10  C   UNL     1       9.549  10.668  20.468  0.00  0.00    +0.000 C 
BRANCH  10  11
ATOM     11  C   UNL     1      10.541  11.836  20.413  0.00  0.00    +0.000 C 
BRANCH  11  12
ATOM     12  C   UNL     1       9.921  13.145  20.786  0.00  0.00    +0.000 C 
ATOM     13  O   UNL     1      10.864  14.195  21.060  0.00  0.00    +0.000 OA
ATOM     14  C   UNL     1      10.000  14.407  19.935  0.00  0.00    +0.000 C 
ATOM     15  C   UNL     1      10.735  14.458  18.630  0.00  0.00    +0.000 C 
ATOM     16  C   UNL     1       8.952  15.457  20.145  0.00  0.00    +0.000 C 
ENDBRANCH  11  12
ENDBRANCH  10  11
ENDBRANCH   8  10
ENDBRANCH   6   7
ENDBRANCH   5   6
ENDBRANCH   3   5
ENDBRANCH   1   2
BRANCH   1  17
ATOM     17  C   UNL     1       4.703   3.758  19.378  0.00  0.00    +0.000 C 
BRANCH  17  18
ATOM     18  C   UNL     1       4.505   2.257  19.313  0.00  0.00    +0.000 C 
BRANCH  18  19
ATOM     19  S   UNL     1       2.741   1.848  19.157  0.00  0.00    +0.000 S 
BRANCH  19  20
ATOM     20  C   UNL     1       2.326   2.933  17.749  0.00  0.00    +0.000 C 
BRANCH  20  21
ATOM     21  C   UNL     1       1.445   4.102  18.187  0.00  0.00    +0.000 C 
BRANCH  21  24
ATOM     22  C   UNL     1       2.282   6.483  18.336  0.00  0.00    +0.000 C 
ATOM     23  C   UNL     1       2.209   6.478  19.844  0.00  0.00    +0.000 C 
ATOM     24  C   UNL     1       1.881   5.415  17.609  0.00  0.00    +0.000 C 
BRANCH  22  25
ATOM     25  C   UNL     1       2.801   7.704  17.595  0.00  0.00    +0.000 C 
BRANCH  25  26
ATOM     26  C   UNL     1       2.317   9.064  18.106  0.00  0.00    +0.000 C 
BRANCH  26  30
ATOM     27  C   UNL     1      -1.310  10.466  17.983  0.00  0.00    +0.000 C 
ATOM     28  C   UNL     1       0.166  10.382  18.249  0.00  0.00    +0.000 C 
ATOM     29  C   UNL     1       0.837  11.599  18.824  0.00  0.00    +0.000 C 
ATOM     30  C   UNL     1       0.831   9.245  17.978  0.00  0.00    +0.000 C 
ENDBRANCH  26  30
ENDBRANCH  25  26
ENDBRANCH  22  25
ENDBRANCH  21  24
ENDBRANCH  20  21
ENDBRANCH  19  20
ENDBRANCH  18  19
ENDBRANCH  17  18
ENDBRANCH   1  17
TORSDOF 16
ENDMDL
MODEL 8
REMARK VINA RESULT:      -6.2      4.085     10.607
REMARK  Name = 
REMARK  23 active torsions:
REMARK  status: ('A' for Active; 'I' for Inactive)
REMARK    1  A    between atoms: C_1  and  C_2
REMARK    2  A    between atoms: C_2  and  C_3
REMARK    3  A    between atoms: C_4  and  C_5
REMARK    4  A    between atoms: C_5  and  C_6
REMARK    5  A    between atoms: C_6  and  C_7
REMARK    6  A    between atoms: C_7  and  C_8
REMARK    7  A    between atoms: C_9  and  C_10
REMARK    8  A    between atoms: C_10  and  C_11
REMARK    9  A    between atoms: C_11  and  S_12
REMARK   10  A    between atoms: S_12  and  C_13
REMARK   11  A    between atoms: C_13  and  C_14
REMARK   12  A    between atoms: C_14  and  C_15
REMARK   13  A    between atoms: C_15  and  C_16
REMARK   14  A    between atoms: C_17  and  C_18
REMARK   15  A    between atoms: C_17  and  C_19
REMARK   16  A    between atoms: C_19  and  C_20
REMARK   17  A    between atoms: C_20  and  C_21
REMARK   18  A    between atoms: C_22  and  C_23
REMARK   19  A    between atoms: C_22  and  C_24
REMARK   20  A    between atoms: C_24  and  C_25
REMARK   21  A    between atoms: C_25  and  C_26
REMARK   22  A    between atoms: C_28  and  C_29
REMARK   23  A    between atoms: C_28  and  C_30
REMARK                            x       y       z     vdW  Elec       q    Type
REMARK                         _______ _______ _______ _____ _____    ______ ____
ROOT
ATOM      1  C   UNL     1       8.982   9.746  18.721  0.00  0.00    +0.000 C 
ENDROOT
BRANCH   1   2
ATOM      2  C   UNL     1       8.141   8.998  17.743  0.00  0.00    +0.000 C 
ATOM      3  C   UNL     1       7.753   7.708  17.813  0.00  0.00    +0.000 C 
ATOM      4  C   UNL     1       8.138   6.794  18.948  0.00  0.00    +0.000 C 
BRANCH   3   5
ATOM      5  C   UNL     1       6.852   7.064  16.761  0.00  0.00    +0.000 C 
BRANCH   5   6
ATOM      6  C   UNL     1       5.425   6.799  17.256  0.00  0.00    +0.000 C 
BRANCH   6   7
ATOM      7  C   UNL     1       4.734   5.579  16.724  0.00  0.00    +0.000 C 
ATOM      8  C   UNL     1       4.739   4.404  17.381  0.00  0.00    +0.000 C 
ATOM      9  C   UNL     1       5.425   4.194  18.709  0.00  0.00    +0.000 C 
BRANCH   8  10
ATOM     10  C   UNL     1       3.977   3.213  16.840  0.00  0.00    +0.000 C 
BRANCH  10  11
ATOM     11  C   UNL     1       3.411   2.284  17.919  0.00  0.00    +0.000 C 
BRANCH  11  12
ATOM     12  C   UNL     1       2.119   2.777  18.493  0.00  0.00    +0.000 C 
ATOM     13  O   UNL     1       1.431   1.822  19.319  0.00  0.00    +0.000 OA
ATOM     14  C   UNL     1       1.875   3.016  19.978  0.00  0.00    +0.000 C 
ATOM     15  C   UNL     1       2.919   2.758  21.022  0.00  0.00    +0.000 C 
ATOM     16  C   UNL     1       0.776   3.959  20.360  0.00  0.00    +0.000 C 
ENDBRANCH  11  12
ENDBRANCH  10  11
ENDBRANCH   8  10
ENDBRANCH   6   7
ENDBRANCH   5   6
ENDBRANCH   3   5
ENDBRANCH   1   2
BRANCH   1  17
ATOM     17  C   UNL     1       9.503  11.027  18.074  0.00  0.00    +0.000 C 
BRANCH  17  18
ATOM     18  C   UNL     1       8.359  12.014  17.959  0.00  0.00    +0.000 C 
BRANCH  18  19
ATOM     19  S   UNL     1       8.978  13.722  18.015  0.00  0.00    +0.000 S 
BRANCH  19  20
ATOM     20  C   UNL     1       7.433  14.593  17.579  0.00  0.00    +0.000 C 
BRANCH  20  21
ATOM     21  C   UNL     1       6.989  15.534  18.697  0.00  0.00    +0.000 C 
BRANCH  21  24
ATOM     22  C   UNL     1       7.124  15.486  21.222  0.00  0.00    +0.000 C 
ATOM     23  C   UNL     1       7.562  16.929  21.286  0.00  0.00    +0.000 C 
ATOM     24  C   UNL     1       6.922  14.864  20.037  0.00  0.00    +0.000 C 
BRANCH  22  25
ATOM     25  C   UNL     1       6.909  14.690  22.497  0.00  0.00    +0.000 C 
BRANCH  25  26
ATOM     26  C   UNL     1       8.164  14.359  23.310  0.00  0.00    +0.000 C 
BRANCH  26  30
ATOM     27  C   UNL     1      10.588  12.359  21.017  0.00  0.00    +0.000 C 
ATOM     28  C   UNL     1       9.443  12.665  21.939  0.00  0.00    +0.000 C 
ATOM     29  C   UNL     1       8.485  11.548  22.248  0.00  0.00    +0.000 C 
ATOM     30  C   UNL     1       9.312  13.899  22.457  0.00  0.00    +0.000 C 
ENDBRANCH  26  30
ENDBRANCH  25  26
ENDBRANCH  22  25
ENDBRANCH  21  24
ENDBRANCH  20  21
ENDBRANCH  19  20
ENDBRANCH  18  19
ENDBRANCH  17  18
ENDBRANCH   1  17
TORSDOF 16
ENDMDL
MODEL 9
REMARK VINA RESULT:      -6.2      4.466      8.696
REMARK  Name = 
REMARK  23 active torsions:
REMARK  status: ('A' for Active; 'I' for Inactive)
REMARK    1  A    between atoms: C_1  and  C_2
REMARK    2  A    between atoms: C_2  and  C_3
REMARK    3  A    between atoms: C_4  and  C_5
REMARK    4  A    between atoms: C_5  and  C_6
REMARK    5  A    between atoms: C_6  and  C_7
REMARK    6  A    between atoms: C_7  and  C_8
REMARK    7  A    between atoms: C_9  and  C_10
REMARK    8  A    between atoms: C_10  and  C_11
REMARK    9  A    between atoms: C_11  and  S_12
REMARK   10  A    between atoms: S_12  and  C_13
REMARK   11  A    between atoms: C_13  and  C_14
REMARK   12  A    between atoms: C_14  and  C_15
REMARK   13  A    between atoms: C_15  and  C_16
REMARK   14  A    between atoms: C_17  and  C_18
REMARK   15  A    between atoms: C_17  and  C_19
REMARK   16  A    between atoms: C_19  and  C_20
REMARK   17  A    between atoms: C_20  and  C_21
REMARK   18  A    between atoms: C_22  and  C_23
REMARK   19  A    between atoms: C_22  and  C_24
REMARK   20  A    between atoms: C_24  and  C_25
REMARK   21  A    between atoms: C_25  and  C_26
REMARK   22  A    between atoms: C_28  and  C_29
REMARK   23  A    between atoms: C_28  and  C_30
REMARK                            x       y       z     vdW  Elec       q    Type
REMARK                         _______ _______ _______ _____ _____    ______ ____
ROOT
ATOM      1  C   UNL     1       2.235   6.818  20.117  0.00  0.00    +0.000 C 
ENDROOT
BRANCH   1   2
ATOM      2  C   UNL     1       1.567   5.542  19.732  0.00  0.00    +0.000 C 
ATOM      3  C   UNL     1       1.593   4.370  20.399  0.00  0.00    +0.000 C 
ATOM      4  C   UNL     1       2.342   4.175  21.692  0.00  0.00    +0.000 C 
BRANCH   3   5
ATOM      5  C   UNL     1       0.829   3.137  19.920  0.00  0.00    +0.000 C 
BRANCH   5   6
ATOM      6  C   UNL     1       1.721   2.081  19.257  0.00  0.00    +0.000 C 
BRANCH   6   7
ATOM      7  C   UNL     1       3.178   2.409  19.117  0.00  0.00    +0.000 C 
ATOM      8  C   UNL     1       3.664   3.092  18.065  0.00  0.00    +0.000 C 
ATOM      9  C   UNL     1       2.807   3.600  16.931  0.00  0.00    +0.000 C 
BRANCH   8  10
ATOM     10  C   UNL     1       5.132   3.457  17.992  0.00  0.00    +0.000 C 
BRANCH  10  11
ATOM     11  C   UNL     1       5.564   4.533  18.995  0.00  0.00    +0.000 C 
BRANCH  11  12
ATOM     12  C   UNL     1       6.675   5.394  18.482  0.00  0.00    +0.000 C 
ATOM     13  O   UNL     1       6.920   5.273  17.071  0.00  0.00    +0.000 OA
ATOM     14  C   UNL     1       6.484   6.562  17.522  0.00  0.00    +0.000 C 
ATOM     15  C   UNL     1       5.143   6.952  16.980  0.00  0.00    +0.000 C 
ATOM     16  C   UNL     1       7.542   7.621  17.493  0.00  0.00    +0.000 C 
ENDBRANCH  11  12
ENDBRANCH  10  11
ENDBRANCH   8  10
ENDBRANCH   6   7
ENDBRANCH   5   6
ENDBRANCH   3   5
ENDBRANCH   1   2
BRANCH   1  17
ATOM     17  C   UNL     1       1.280   7.663  20.955  0.00  0.00    +0.000 C 
BRANCH  17  18
ATOM     18  C   UNL     1       0.997   8.955  20.215  0.00  0.00    +0.000 C 
BRANCH  18  19
ATOM     19  S   UNL     1       1.031  10.369  21.356  0.00  0.00    +0.000 S 
BRANCH  19  20
ATOM     20  C   UNL     1      -0.766  10.663  21.490  0.00  0.00    +0.000 C 
BRANCH  20  21
ATOM     21  C   UNL     1      -1.147  12.042  20.956  0.00  0.00    +0.000 C 
BRANCH  21  24
ATOM     22  C   UNL     1      -3.433  12.340  19.916  0.00  0.00    +0.000 C 
ATOM     23  C   UNL     1      -4.050  12.726  21.239  0.00  0.00    +0.000 C 
ATOM     24  C   UNL     1      -2.130  11.984  19.825  0.00  0.00    +0.000 C 
BRANCH  22  25
ATOM     25  C   UNL     1      -4.271  12.329  18.650  0.00  0.00    +0.000 C 
BRANCH  25  26
ATOM     26  C   UNL     1      -4.619  10.952  18.078  0.00  0.00    +0.000 C 
BRANCH  26  30
ATOM     27  C   UNL     1      -3.066  10.153  14.601  0.00  0.00    +0.000 C 
ATOM     28  C   UNL     1      -3.199  10.307  16.089  0.00  0.00    +0.000 C 
ATOM     29  C   UNL     1      -2.040   9.861  16.938  0.00  0.00    +0.000 C 
ATOM     30  C   UNL     1      -4.322  10.833  16.609  0.00  0.00    +0.000 C 
ENDBRANCH  26  30
ENDBRANCH  25  26
ENDBRANCH  22  25
ENDBRANCH  21  24
ENDBRANCH  20  21
ENDBRANCH  19  20
ENDBRANCH  18  19
ENDBRANCH  17  18
ENDBRANCH   1  17
TORSDOF 16
ENDMDL
