MODEL 1
REMARK VINA RESULT:      -7.3      0.000      0.000
REMARK  Name = 
REMARK  10 active torsions:
REMARK  status: ('A' for Active; 'I' for Inactive)
REMARK    1  A    between atoms: C_1  and  O_2
REMARK    2  A    between atoms: O_2  and  C_3
REMARK    3  A    between atoms: C_6  and  N_7
REMARK    4  A    between atoms: C_8  and  C_10
REMARK    5  A    between atoms: C_11  and  C_12
REMARK    6  A    between atoms: C_12  and  N_13
REMARK    7  A    between atoms: N_13  and  C_14
REMARK    8  A    between atoms: N_13  and  C_15
REMARK    9  A    between atoms: C_17  and  N_18
REMARK   10  A    between atoms: C_23  and  N_24
REMARK                            x       y       z     vdW  Elec       q    Type
REMARK                         _______ _______ _______ _____ _____    ______ ____
ROOT
ATOM      1  C   UNL     1       6.525   5.336  16.805  0.00  0.00    +0.000 A 
ATOM      2  C   UNL     1       7.102   6.410  16.122  0.00  0.00    +0.000 A 
ATOM      3  C   UNL     1       7.836   7.373  16.802  0.00  0.00    +0.000 A 
ATOM      4  C   UNL     1       8.015   7.289  18.179  0.00  0.00    +0.000 A 
ATOM      5  C   UNL     1       7.461   6.207  18.862  0.00  0.00    +0.000 A 
ATOM      6  C   UNL     1       6.777   5.178  18.183  0.00  0.00    +0.000 A 
ENDROOT
BRANCH   6   7
ATOM      7  N   UNL     1       6.380   4.014  18.879  0.00  0.00    +0.000 N 
ATOM      8  C   UNL     1       5.090   3.677  19.315  0.00  0.00    +0.000 A 
ATOM      9  N   UNL     1       4.966   2.527  19.993  0.00  0.00    +0.000 NA
ATOM     10  C   UNL     1       3.739   2.232  20.457  0.00  0.00    +0.000 A 
ATOM     11  C   UNL     1       2.647   3.047  20.289  0.00  0.00    +0.000 A 
ATOM     12  C   UNL     1       2.840   4.210  19.574  0.00  0.00    +0.000 A 
ATOM     13  N   UNL     1       4.054   4.515  19.093  0.00  0.00    +0.000 NA
ATOM     14  H   UNL     1       7.067   3.638  19.520  0.00  0.00    +0.000 HD
BRANCH  12  15
ATOM     15  N   UNL     1       1.780   5.095  19.398  0.00  0.00    +0.000 N 
ATOM     16  C   UNL     1       1.075   5.602  20.592  0.00  0.00    +0.000 C 
ATOM     17  C   UNL     1       1.493   7.021  21.021  0.00  0.00    +0.000 C 
ATOM     18  C   UNL     1       1.625   7.917  19.829  0.00  0.00    +0.000 A 
ATOM     19  S   UNL     1       1.600   9.612  19.932  0.00  0.00    +0.000 S 
ATOM     20  C   UNL     1       1.850   9.767  18.243  0.00  0.00    +0.000 A 
ATOM     21  C   UNL     1       1.953   8.541  17.620  0.00  0.00    +0.000 A 
ATOM     22  C   UNL     1       1.807   7.459  18.539  0.00  0.00    +0.000 A 
ATOM     23  C   UNL     1       1.843   5.988  18.228  0.00  0.00    +0.000 C 
ENDBRANCH  12  15
ENDBRANCH   6   7
BRANCH   4  24
ATOM     24  N   UNL     1       8.741   8.254  18.911  0.00  0.00    +0.000 N 
ATOM     25  C   UNL     1       8.666   9.609  18.689  0.00  0.00    +0.000 C 
ATOM     26  O   UNL     1       8.058  10.147  17.765  0.00  0.00    +0.000 OA
ATOM     27  H   UNL     1       9.421   7.910  19.572  0.00  0.00    +0.000 HD
BRANCH  25  28
ATOM     28  C   UNL     1       9.436  10.429  19.651  0.00  0.00    +0.000 C 
ATOM     29  C   UNL     1      10.465  11.136  19.160  0.00  0.00    +0.000 C 
BRANCH  29  30
ATOM     30  C   UNL     1      11.329  12.074  19.933  0.00  0.00    +0.000 C 
BRANCH  30  31
ATOM     31  N   UNL     1      11.155  13.462  19.484  0.00  0.00    +0.000 NA
ATOM     32  C   UNL     1      10.817  13.550  18.062  0.00  0.00    +0.000 C 
ATOM     33  C   UNL     1      10.122  14.114  20.285  0.00  0.00    +0.000 C 
ENDBRANCH  30  31
ENDBRANCH  29  30
ENDBRANCH  25  28
ENDBRANCH   4  24
BRANCH   1  35
ATOM     34  C   UNL     1       6.240   3.962  14.912  0.00  0.00    +0.000 C 
ATOM     35  O   UNL     1       5.721   4.415  16.168  0.00  0.00    +0.000 OA
ENDBRANCH   1  35
TORSDOF 7
ENDMDL
MODEL 2
REMARK VINA RESULT:      -7.3      1.887      2.772
REMARK  Name = 
REMARK  10 active torsions:
REMARK  status: ('A' for Active; 'I' for Inactive)
REMARK    1  A    between atoms: C_1  and  O_2
REMARK    2  A    between atoms: O_2  and  C_3
REMARK    3  A    between atoms: C_6  and  N_7
REMARK    4  A    between atoms: C_8  and  C_10
REMARK    5  A    between atoms: C_11  and  C_12
REMARK    6  A    between atoms: C_12  and  N_13
REMARK    7  A    between atoms: N_13  and  C_14
REMARK    8  A    between atoms: N_13  and  C_15
REMARK    9  A    between atoms: C_17  and  N_18
REMARK   10  A    between atoms: C_23  and  N_24
REMARK                            x       y       z     vdW  Elec       q    Type
REMARK                         _______ _______ _______ _____ _____    ______ ____
ROOT
ATOM      1  C   UNL     1       5.594   4.163  14.558  0.00  0.00    +0.000 A 
ATOM      2  C   UNL     1       6.835   4.687  14.191  0.00  0.00    +0.000 A 
ATOM      3  C   UNL     1       7.596   5.414  15.097  0.00  0.00    +0.000 A 
ATOM      4  C   UNL     1       7.139   5.636  16.392  0.00  0.00    +0.000 A 
ATOM      5  C   UNL     1       5.911   5.095  16.770  0.00  0.00    +0.000 A 
ATOM      6  C   UNL     1       5.156   4.290  15.892  0.00  0.00    +0.000 A 
ENDROOT
BRANCH   6   7
ATOM      7  N   UNL     1       4.006   3.618  16.361  0.00  0.00    +0.000 N 
ATOM      8  C   UNL     1       3.075   4.074  17.306  0.00  0.00    +0.000 A 
ATOM      9  N   UNL     1       2.078   3.235  17.620  0.00  0.00    +0.000 NA
ATOM     10  C   UNL     1       1.217   3.650  18.566  0.00  0.00    +0.000 A 
ATOM     11  C   UNL     1       1.330   4.853  19.219  0.00  0.00    +0.000 A 
ATOM     12  C   UNL     1       2.372   5.673  18.841  0.00  0.00    +0.000 A 
ATOM     13  N   UNL     1       3.233   5.280  17.891  0.00  0.00    +0.000 NA
ATOM     14  H   UNL     1       4.088   2.611  16.418  0.00  0.00    +0.000 HD
BRANCH  12  15
ATOM     15  N   UNL     1       2.559   6.891  19.489  0.00  0.00    +0.000 N 
ATOM     16  C   UNL     1       2.873   8.084  18.677  0.00  0.00    +0.000 C 
ATOM     17  C   UNL     1       1.670   9.011  18.420  0.00  0.00    +0.000 C 
ATOM     18  C   UNL     1       0.858   9.182  19.666  0.00  0.00    +0.000 A 
ATOM     19  S   UNL     1      -0.231  10.464  19.897  0.00  0.00    +0.000 S 
ATOM     20  C   UNL     1      -0.693   9.858  21.433  0.00  0.00    +0.000 A 
ATOM     21  C   UNL     1      -0.026   8.695  21.754  0.00  0.00    +0.000 A 
ATOM     22  C   UNL     1       0.891   8.305  20.731  0.00  0.00    +0.000 A 
ATOM     23  C   UNL     1       1.802   7.109  20.734  0.00  0.00    +0.000 C 
ENDBRANCH  12  15
ENDBRANCH   6   7
BRANCH   4  24
ATOM     24  N   UNL     1       7.873   6.382  17.339  0.00  0.00    +0.000 N 
ATOM     25  C   UNL     1       7.716   7.732  17.550  0.00  0.00    +0.000 C 
ATOM     26  O   UNL     1       7.010   8.481  16.875  0.00  0.00    +0.000 OA
ATOM     27  H   UNL     1       8.620   5.903  17.820  0.00  0.00    +0.000 HD
BRANCH  25  28
ATOM     28  C   UNL     1       8.519   8.274  18.669  0.00  0.00    +0.000 C 
ATOM     29  C   UNL     1       8.743   9.597  18.671  0.00  0.00    +0.000 C 
BRANCH  29  30
ATOM     30  C   UNL     1       9.466  10.359  19.729  0.00  0.00    +0.000 C 
BRANCH  30  31
ATOM     31  N   UNL     1      10.587  11.127  19.169  0.00  0.00    +0.000 NA
ATOM     32  C   UNL     1      10.343  11.543  17.786  0.00  0.00    +0.000 C 
ATOM     33  C   UNL     1      10.850  12.297  20.004  0.00  0.00    +0.000 C 
ENDBRANCH  30  31
ENDBRANCH  29  30
ENDBRANCH  25  28
ENDBRANCH   4  24
BRANCH   1  35
ATOM     34  C   UNL     1       5.397   3.287  12.379  0.00  0.00    +0.000 C 
ATOM     35  O   UNL     1       4.782   3.512  13.653  0.00  0.00    +0.000 OA
ENDBRANCH   1  35
TORSDOF 7
ENDMDL
MODEL 3
REMARK VINA RESULT:      -7.1      6.682     10.656
REMARK  Name = 
REMARK  10 active torsions:
REMARK  status: ('A' for Active; 'I' for Inactive)
REMARK    1  A    between atoms: C_1  and  O_2
REMARK    2  A    between atoms: O_2  and  C_3
REMARK    3  A    between atoms: C_6  and  N_7
REMARK    4  A    between atoms: C_8  and  C_10
REMARK    5  A    between atoms: C_11  and  C_12
REMARK    6  A    between atoms: C_12  and  N_13
REMARK    7  A    between atoms: N_13  and  C_14
REMARK    8  A    between atoms: N_13  and  C_15
REMARK    9  A    between atoms: C_17  and  N_18
REMARK   10  A    between atoms: C_23  and  N_24
REMARK                            x       y       z     vdW  Elec       q    Type
REMARK                         _______ _______ _______ _____ _____    ______ ____
ROOT
ATOM      1  C   UNL     1      -0.259  12.934  18.690  0.00  0.00    +0.000 A 
ATOM      2  C   UNL     1       1.120  12.716  18.740  0.00  0.00    +0.000 A 
ATOM      3  C   UNL     1       1.635  11.429  18.815  0.00  0.00    +0.000 A 
ATOM      4  C   UNL     1       0.788  10.326  18.841  0.00  0.00    +0.000 A 
ATOM      5  C   UNL     1      -0.588  10.536  18.769  0.00  0.00    +0.000 A 
ATOM      6  C   UNL     1      -1.131  11.828  18.615  0.00  0.00    +0.000 A 
ENDROOT
BRANCH   6   7
ATOM      7  N   UNL     1      -2.512  11.991  18.371  0.00  0.00    +0.000 N 
ATOM      8  C   UNL     1      -3.514  12.299  19.303  0.00  0.00    +0.000 A 
ATOM      9  N   UNL     1      -4.769  12.366  18.836  0.00  0.00    +0.000 NA
ATOM     10  C   UNL     1      -5.736  12.607  19.740  0.00  0.00    +0.000 A 
ATOM     11  C   UNL     1      -5.497  12.761  21.083  0.00  0.00    +0.000 A 
ATOM     12  C   UNL     1      -4.183  12.692  21.496  0.00  0.00    +0.000 A 
ATOM     13  N   UNL     1      -3.206  12.463  20.607  0.00  0.00    +0.000 NA
ATOM     14  H   UNL     1      -2.894  11.405  17.639  0.00  0.00    +0.000 HD
BRANCH  12  15
ATOM     15  N   UNL     1      -3.880  12.807  22.849  0.00  0.00    +0.000 N 
ATOM     16  C   UNL     1      -2.574  12.310  23.327  0.00  0.00    +0.000 C 
ATOM     17  C   UNL     1      -1.516  13.409  23.541  0.00  0.00    +0.000 C 
ATOM     18  C   UNL     1      -2.122  14.603  24.214  0.00  0.00    +0.000 A 
ATOM     19  S   UNL     1      -1.203  15.780  25.021  0.00  0.00    +0.000 S 
ATOM     20  C   UNL     1      -2.607  16.696  25.383  0.00  0.00    +0.000 A 
ATOM     21  C   UNL     1      -3.752  16.107  24.890  0.00  0.00    +0.000 A 
ATOM     22  C   UNL     1      -3.474  14.877  24.219  0.00  0.00    +0.000 A 
ATOM     23  C   UNL     1      -4.465  13.950  23.571  0.00  0.00    +0.000 C 
ENDBRANCH  12  15
ENDBRANCH   6   7
BRANCH   4  24
ATOM     24  N   UNL     1       1.268   9.001  18.934  0.00  0.00    +0.000 N 
ATOM     25  C   UNL     1       2.174   8.445  18.061  0.00  0.00    +0.000 C 
ATOM     26  O   UNL     1       2.592   8.977  17.034  0.00  0.00    +0.000 OA
ATOM     27  H   UNL     1       0.844   8.408  19.632  0.00  0.00    +0.000 HD
BRANCH  25  28
ATOM     28  C   UNL     1       2.609   7.077  18.422  0.00  0.00    +0.000 C 
ATOM     29  C   UNL     1       2.337   6.662  19.669  0.00  0.00    +0.000 C 
BRANCH  29  30
ATOM     30  C   UNL     1       2.625   5.307  20.221  0.00  0.00    +0.000 C 
BRANCH  30  31
ATOM     31  N   UNL     1       1.464   4.415  20.096  0.00  0.00    +0.000 NA
ATOM     32  C   UNL     1       1.433   3.718  18.808  0.00  0.00    +0.000 C 
ATOM     33  C   UNL     1       1.465   3.446  21.189  0.00  0.00    +0.000 C 
ENDBRANCH  30  31
ENDBRANCH  29  30
ENDBRANCH  25  28
ENDBRANCH   4  24
BRANCH   1  35
ATOM     34  C   UNL     1       0.150  15.232  19.011  0.00  0.00    +0.000 C 
ATOM     35  O   UNL     1      -0.797  14.203  18.701  0.00  0.00    +0.000 OA
ENDBRANCH   1  35
TORSDOF 7
ENDMDL
MODEL 4
REMARK VINA RESULT:      -7.1      2.350      3.525
REMARK  Name = 
REMARK  10 active torsions:
REMARK  status: ('A' for Active; 'I' for Inactive)
REMARK    1  A    between atoms: C_1  and  O_2
REMARK    2  A    between atoms: O_2  and  C_3
REMARK    3  A    between atoms: C_6  and  N_7
REMARK    4  A    between atoms: C_8  and  C_10
REMARK    5  A    between atoms: C_11  and  C_12
REMARK    6  A    between atoms: C_12  and  N_13
REMARK    7  A    between atoms: N_13  and  C_14
REMARK    8  A    between atoms: N_13  and  C_15
REMARK    9  A    between atoms: C_17  and  N_18
REMARK   10  A    between atoms: C_23  and  N_24
REMARK                            x       y       z     vdW  Elec       q    Type
REMARK                         _______ _______ _______ _____ _____    ______ ____
ROOT
ATOM      1  C   UNL     1       4.653   4.454  16.869  0.00  0.00    +0.000 A 
ATOM      2  C   UNL     1       5.658   4.704  15.932  0.00  0.00    +0.000 A 
ATOM      3  C   UNL     1       6.421   5.862  16.000  0.00  0.00    +0.000 A 
ATOM      4  C   UNL     1       6.200   6.800  17.004  0.00  0.00    +0.000 A 
ATOM      5  C   UNL     1       5.213   6.545  17.954  0.00  0.00    +0.000 A 
ATOM      6  C   UNL     1       4.479   5.341  17.951  0.00  0.00    +0.000 A 
ENDROOT
BRANCH   6   7
ATOM      7  N   UNL     1       3.611   5.038  19.024  0.00  0.00    +0.000 N 
ATOM      8  C   UNL     1       2.667   5.884  19.624  0.00  0.00    +0.000 A 
ATOM      9  N   UNL     1       1.982   5.380  20.660  0.00  0.00    +0.000 NA
ATOM     10  C   UNL     1       1.116   6.209  21.270  0.00  0.00    +0.000 A 
ATOM     11  C   UNL     1       0.929   7.517  20.899  0.00  0.00    +0.000 A 
ATOM     12  C   UNL     1       1.658   7.971  19.819  0.00  0.00    +0.000 A 
ATOM     13  N   UNL     1       2.517   7.154  19.192  0.00  0.00    +0.000 NA
ATOM     14  H   UNL     1       3.984   4.397  19.712  0.00  0.00    +0.000 HD
BRANCH  12  15
ATOM     15  N   UNL     1       1.538   9.297  19.416  0.00  0.00    +0.000 N 
ATOM     16  C   UNL     1       1.183   9.581  18.010  0.00  0.00    +0.000 C 
ATOM     17  C   UNL     1      -0.299   9.935  17.789  0.00  0.00    +0.000 C 
ATOM     18  C   UNL     1      -0.786  10.866  18.856  0.00  0.00    +0.000 A 
ATOM     19  S   UNL     1      -2.177  11.826  18.689  0.00  0.00    +0.000 S 
ATOM     20  C   UNL     1      -1.993  12.453  20.274  0.00  0.00    +0.000 A 
ATOM     21  C   UNL     1      -0.889  11.930  20.914  0.00  0.00    +0.000 A 
ATOM     22  C   UNL     1      -0.173  11.015  20.084  0.00  0.00    +0.000 A 
ATOM     23  C   UNL     1       1.084  10.265  20.429  0.00  0.00    +0.000 C 
ENDBRANCH  12  15
ENDBRANCH   6   7
BRANCH   4  24
ATOM     24  N   UNL     1       6.942   7.998  17.100  0.00  0.00    +0.000 N 
ATOM     25  C   UNL     1       8.003   8.184  17.954  0.00  0.00    +0.000 C 
ATOM     26  O   UNL     1       8.371   7.388  18.817  0.00  0.00    +0.000 OA
ATOM     27  H   UNL     1       6.604   8.789  16.570  0.00  0.00    +0.000 HD
BRANCH  25  28
ATOM     28  C   UNL     1       8.691   9.486  17.800  0.00  0.00    +0.000 C 
ATOM     29  C   UNL     1       9.078  10.105  18.926  0.00  0.00    +0.000 C 
BRANCH  29  30
ATOM     30  C   UNL     1       9.839  11.385  19.002  0.00  0.00    +0.000 C 
BRANCH  30  31
ATOM     31  N   UNL     1       9.698  12.170  17.767  0.00  0.00    +0.000 NA
ATOM     32  C   UNL     1       8.763  13.287  17.920  0.00  0.00    +0.000 C 
ATOM     33  C   UNL     1      11.006  12.667  17.346  0.00  0.00    +0.000 C 
ENDBRANCH  30  31
ENDBRANCH  29  30
ENDBRANCH  25  28
ENDBRANCH   4  24
BRANCH   1  35
ATOM     34  C   UNL     1       4.047   2.372  17.792  0.00  0.00    +0.000 C 
ATOM     35  O   UNL     1       3.826   3.355  16.774  0.00  0.00    +0.000 OA
ENDBRANCH   1  35
TORSDOF 7
ENDMDL
MODEL 5
REMARK VINA RESULT:      -7.1      6.697     10.259
REMARK  Name = 
REMARK  10 active torsions:
REMARK  status: ('A' for Active; 'I' for Inactive)
REMARK    1  A    between atoms: C_1  and  O_2
REMARK    2  A    between atoms: O_2  and  C_3
REMARK    3  A    between atoms: C_6  and  N_7
REMARK    4  A    between atoms: C_8  and  C_10
REMARK    5  A    between atoms: C_11  and  C_12
REMARK    6  A    between atoms: C_12  and  N_13
REMARK    7  A    between atoms: N_13  and  C_14
REMARK    8  A    between atoms: N_13  and  C_15
REMARK    9  A    between atoms: C_17  and  N_18
REMARK   10  A    between atoms: C_23  and  N_24
REMARK                            x       y       z     vdW  Elec       q    Type
REMARK                         _______ _______ _______ _____ _____    ______ ____
ROOT
ATOM      1  C   UNL     1      -0.201  12.967  18.725  0.00  0.00    +0.000 A 
ATOM      2  C   UNL     1       1.185  12.804  18.778  0.00  0.00    +0.000 A 
ATOM      3  C   UNL     1       1.752  11.536  18.801  0.00  0.00    +0.000 A 
ATOM      4  C   UNL     1       0.951  10.400  18.772  0.00  0.00    +0.000 A 
ATOM      5  C   UNL     1      -0.432  10.556  18.696  0.00  0.00    +0.000 A 
ATOM      6  C   UNL     1      -1.026  11.831  18.594  0.00  0.00    +0.000 A 
ENDROOT
BRANCH   6   7
ATOM      7  N   UNL     1      -2.412  11.948  18.345  0.00  0.00    +0.000 N 
ATOM      8  C   UNL     1      -3.426  12.226  19.273  0.00  0.00    +0.000 A 
ATOM      9  N   UNL     1      -4.681  12.251  18.802  0.00  0.00    +0.000 NA
ATOM     10  C   UNL     1      -5.658  12.463  19.702  0.00  0.00    +0.000 A 
ATOM     11  C   UNL     1      -5.429  12.629  21.045  0.00  0.00    +0.000 A 
ATOM     12  C   UNL     1      -4.115  12.603  21.463  0.00  0.00    +0.000 A 
ATOM     13  N   UNL     1      -3.127  12.404  20.578  0.00  0.00    +0.000 NA
ATOM     14  H   UNL     1      -2.771  11.348  17.614  0.00  0.00    +0.000 HD
BRANCH  12  15
ATOM     15  N   UNL     1      -3.820  12.732  22.817  0.00  0.00    +0.000 N 
ATOM     16  C   UNL     1      -2.506  12.265  23.303  0.00  0.00    +0.000 C 
ATOM     17  C   UNL     1      -1.472  13.386  23.516  0.00  0.00    +0.000 C 
ATOM     18  C   UNL     1      -2.105  14.571  24.179  0.00  0.00    +0.000 A 
ATOM     19  S   UNL     1      -1.214  15.771  24.983  0.00  0.00    +0.000 S 
ATOM     20  C   UNL     1      -2.638  16.660  25.335  0.00  0.00    +0.000 A 
ATOM     21  C   UNL     1      -3.768  16.045  24.839  0.00  0.00    +0.000 A 
ATOM     22  C   UNL     1      -3.463  14.818  24.176  0.00  0.00    +0.000 A 
ATOM     23  C   UNL     1      -4.432  13.867  23.529  0.00  0.00    +0.000 C 
ENDBRANCH  12  15
ENDBRANCH   6   7
BRANCH   4  24
ATOM     24  N   UNL     1       1.485   9.093  18.810  0.00  0.00    +0.000 N 
ATOM     25  C   UNL     1       1.647   8.357  19.961  0.00  0.00    +0.000 C 
ATOM     26  O   UNL     1       1.461   8.773  21.104  0.00  0.00    +0.000 OA
ATOM     27  H   UNL     1       1.851   8.723  17.945  0.00  0.00    +0.000 HD
BRANCH  25  28
ATOM     28  C   UNL     1       2.126   6.974  19.739  0.00  0.00    +0.000 C 
ATOM     29  C   UNL     1       2.597   6.683  18.517  0.00  0.00    +0.000 C 
BRANCH  29  30
ATOM     30  C   UNL     1       3.186   5.379  18.096  0.00  0.00    +0.000 C 
BRANCH  30  31
ATOM     31  N   UNL     1       4.613   5.511  17.774  0.00  0.00    +0.000 NA
ATOM     32  C   UNL     1       4.937   6.818  17.198  0.00  0.00    +0.000 C 
ATOM     33  C   UNL     1       5.414   5.282  18.974  0.00  0.00    +0.000 C 
ENDBRANCH  30  31
ENDBRANCH  29  30
ENDBRANCH  25  28
ENDBRANCH   4  24
BRANCH   1  35
ATOM     34  C   UNL     1       0.142  15.298  18.748  0.00  0.00    +0.000 C 
ATOM     35  O   UNL     1      -0.791  14.211  18.787  0.00  0.00    +0.000 OA
ENDBRANCH   1  35
TORSDOF 7
ENDMDL
MODEL 6
REMARK VINA RESULT:      -7.0      3.685      9.385
REMARK  Name = 
REMARK  10 active torsions:
REMARK  status: ('A' for Active; 'I' for Inactive)
REMARK    1  A    between atoms: C_1  and  O_2
REMARK    2  A    between atoms: O_2  and  C_3
REMARK    3  A    between atoms: C_6  and  N_7
REMARK    4  A    between atoms: C_8  and  C_10
REMARK    5  A    between atoms: C_11  and  C_12
REMARK    6  A    between atoms: C_12  and  N_13
REMARK    7  A    between atoms: N_13  and  C_14
REMARK    8  A    between atoms: N_13  and  C_15
REMARK    9  A    between atoms: C_17  and  N_18
REMARK   10  A    between atoms: C_23  and  N_24
REMARK                            x       y       z     vdW  Elec       q    Type
REMARK                         _______ _______ _______ _____ _____    ______ ____
ROOT
ATOM      1  C   UNL     1      10.061  13.123  17.691  0.00  0.00    +0.000 A 
ATOM      2  C   UNL     1      11.044  12.147  17.863  0.00  0.00    +0.000 A 
ATOM      3  C   UNL     1      10.704  10.852  18.232  0.00  0.00    +0.000 A 
ATOM      4  C   UNL     1       9.374  10.498  18.436  0.00  0.00    +0.000 A 
ATOM      5  C   UNL     1       8.387  11.463  18.243  0.00  0.00    +0.000 A 
ATOM      6  C   UNL     1       8.702  12.762  17.796  0.00  0.00    +0.000 A 
ENDROOT
BRANCH   6   7
ATOM      7  N   UNL     1       7.669  13.659  17.445  0.00  0.00    +0.000 N 
ATOM      8  C   UNL     1       6.994  14.557  18.286  0.00  0.00    +0.000 A 
ATOM      9  N   UNL     1       6.017  15.285  17.727  0.00  0.00    +0.000 NA
ATOM     10  C   UNL     1       5.335  16.106  18.545  0.00  0.00    +0.000 A 
ATOM     11  C   UNL     1       5.578  16.208  19.892  0.00  0.00    +0.000 A 
ATOM     12  C   UNL     1       6.604  15.440  20.402  0.00  0.00    +0.000 A 
ATOM     13  N   UNL     1       7.302  14.624  19.599  0.00  0.00    +0.000 NA
ATOM     14  H   UNL     1       7.044  13.335  16.718  0.00  0.00    +0.000 HD
BRANCH  12  15
ATOM     15  N   UNL     1       6.877  15.473  21.766  0.00  0.00    +0.000 N 
ATOM     16  C   UNL     1       5.769  15.740  22.705  0.00  0.00    +0.000 C 
ATOM     17  C   UNL     1       5.200  14.483  23.390  0.00  0.00    +0.000 C 
ATOM     18  C   UNL     1       6.306  13.571  23.823  0.00  0.00    +0.000 A 
ATOM     19  S   UNL     1       6.106  12.361  24.997  0.00  0.00    +0.000 S 
ATOM     20  C   UNL     1       7.729  11.843  24.809  0.00  0.00    +0.000 A 
ATOM     21  C   UNL     1       8.404  12.584  23.862  0.00  0.00    +0.000 A 
ATOM     22  C   UNL     1       7.580  13.603  23.294  0.00  0.00    +0.000 A 
ATOM     23  C   UNL     1       7.971  14.612  22.250  0.00  0.00    +0.000 C 
ENDBRANCH  12  15
ENDBRANCH   6   7
BRANCH   4  24
ATOM     24  N   UNL     1       8.986   9.197  18.827  0.00  0.00    +0.000 N 
ATOM     25  C   UNL     1       8.247   8.343  18.043  0.00  0.00    +0.000 C 
ATOM     26  O   UNL     1       7.734   8.632  16.962  0.00  0.00    +0.000 OA
ATOM     27  H   UNL     1       9.190   8.925  19.777  0.00  0.00    +0.000 HD
BRANCH  25  28
ATOM     28  C   UNL     1       8.054   6.995  18.622  0.00  0.00    +0.000 C 
ATOM     29  C   UNL     1       7.033   6.268  18.141  0.00  0.00    +0.000 C 
BRANCH  29  30
ATOM     30  C   UNL     1       6.697   4.869  18.532  0.00  0.00    +0.000 C 
BRANCH  30  31
ATOM     31  N   UNL     1       5.266   4.588  18.354  0.00  0.00    +0.000 NA
ATOM     32  C   UNL     1       4.423   5.415  19.220  0.00  0.00    +0.000 C 
ATOM     33  C   UNL     1       4.893   4.788  16.956  0.00  0.00    +0.000 C 
ENDBRANCH  30  31
ENDBRANCH  29  30
ENDBRANCH  25  28
ENDBRANCH   4  24
BRANCH   1  35
ATOM     34  C   UNL     1      10.924  15.151  18.524  0.00  0.00    +0.000 C 
ATOM     35  O   UNL     1      10.378  14.435  17.410  0.00  0.00    +0.000 OA
ENDBRANCH   1  35
TORSDOF 7
ENDMDL
MODEL 7
REMARK VINA RESULT:      -7.0      2.740      4.380
REMARK  Name = 
REMARK  10 active torsions:
REMARK  status: ('A' for Active; 'I' for Inactive)
REMARK    1  A    between atoms: C_1  and  O_2
REMARK    2  A    between atoms: O_2  and  C_3
REMARK    3  A    between atoms: C_6  and  N_7
REMARK    4  A    between atoms: C_8  and  C_10
REMARK    5  A    between atoms: C_11  and  C_12
REMARK    6  A    between atoms: C_12  and  N_13
REMARK    7  A    between atoms: N_13  and  C_14
REMARK    8  A    between atoms: N_13  and  C_15
REMARK    9  A    between atoms: C_17  and  N_18
REMARK   10  A    between atoms: C_23  and  N_24
REMARK                            x       y       z     vdW  Elec       q    Type
REMARK                         _______ _______ _______ _____ _____    ______ ____
ROOT
ATOM      1  C   UNL     1       3.600   4.981  17.683  0.00  0.00    +0.000 A 
ATOM      2  C   UNL     1       4.577   4.793  16.703  0.00  0.00    +0.000 A 
ATOM      3  C   UNL     1       5.578   5.735  16.507  0.00  0.00    +0.000 A 
ATOM      4  C   UNL     1       5.630   6.887  17.284  0.00  0.00    +0.000 A 
ATOM      5  C   UNL     1       4.672   7.069  18.280  0.00  0.00    +0.000 A 
ATOM      6  C   UNL     1       3.692   6.091  18.548  0.00  0.00    +0.000 A 
ENDROOT
BRANCH   6   7
ATOM      7  N   UNL     1       2.847   6.225  19.671  0.00  0.00    +0.000 N 
ATOM      8  C   UNL     1       1.938   7.260  19.939  0.00  0.00    +0.000 A 
ATOM      9  N   UNL     1       1.269   7.188  21.098  0.00  0.00    +0.000 NA
ATOM     10  C   UNL     1       0.439   8.208  21.378  0.00  0.00    +0.000 A 
ATOM     11  C   UNL     1       0.272   9.297  20.560  0.00  0.00    +0.000 A 
ATOM     12  C   UNL     1       0.982   9.305  19.378  0.00  0.00    +0.000 A 
ATOM     13  N   UNL     1       1.805   8.290  19.076  0.00  0.00    +0.000 NA
ATOM     14  H   UNL     1       3.223   5.867  20.540  0.00  0.00    +0.000 HD
BRANCH  12  15
ATOM     15  N   UNL     1       0.881  10.397  18.521  0.00  0.00    +0.000 N 
ATOM     16  C   UNL     1      -0.401  11.126  18.449  0.00  0.00    +0.000 C 
ATOM     17  C   UNL     1      -0.433  12.435  19.261  0.00  0.00    +0.000 C 
ATOM     18  C   UNL     1       0.841  13.201  19.081  0.00  0.00    +0.000 A 
ATOM     19  S   UNL     1       0.984  14.858  19.419  0.00  0.00    +0.000 S 
ATOM     20  C   UNL     1       2.649  14.846  19.010  0.00  0.00    +0.000 A 
ATOM     21  C   UNL     1       3.081  13.594  18.628  0.00  0.00    +0.000 A 
ATOM     22  C   UNL     1       2.024  12.633  18.654  0.00  0.00    +0.000 A 
ATOM     23  C   UNL     1       2.109  11.177  18.287  0.00  0.00    +0.000 C 
ENDBRANCH  12  15
ENDBRANCH   6   7
BRANCH   4  24
ATOM     24  N   UNL     1       6.621   7.878  17.108  0.00  0.00    +0.000 N 
ATOM     25  C   UNL     1       7.804   7.922  17.807  0.00  0.00    +0.000 C 
ATOM     26  O   UNL     1       8.105   7.185  18.745  0.00  0.00    +0.000 OA
ATOM     27  H   UNL     1       6.395   8.647  16.495  0.00  0.00    +0.000 HD
BRANCH  25  28
ATOM     28  C   UNL     1       8.732   8.991  17.374  0.00  0.00    +0.000 C 
ATOM     29  C   UNL     1       8.886  10.034  18.204  0.00  0.00    +0.000 C 
BRANCH  29  30
ATOM     30  C   UNL     1       9.813  11.184  17.999  0.00  0.00    +0.000 C 
BRANCH  30  31
ATOM     31  N   UNL     1       9.679  12.182  19.069  0.00  0.00    +0.000 NA
ATOM     32  C   UNL     1       9.707  11.578  20.402  0.00  0.00    +0.000 C 
ATOM     33  C   UNL     1      10.740  13.180  18.949  0.00  0.00    +0.000 C 
ENDBRANCH  30  31
ENDBRANCH  29  30
ENDBRANCH  25  28
ENDBRANCH   4  24
BRANCH   1  35
ATOM     34  C   UNL     1       2.935   2.725  17.834  0.00  0.00    +0.000 C 
ATOM     35  O   UNL     1       2.548   4.104  17.840  0.00  0.00    +0.000 OA
ENDBRANCH   1  35
TORSDOF 7
ENDMDL
MODEL 8
REMARK VINA RESULT:      -6.9      1.921      2.821
REMARK  Name = 
REMARK  10 active torsions:
REMARK  status: ('A' for Active; 'I' for Inactive)
REMARK    1  A    between atoms: C_1  and  O_2
REMARK    2  A    between atoms: O_2  and  C_3
REMARK    3  A    between atoms: C_6  and  N_7
REMARK    4  A    between atoms: C_8  and  C_10
REMARK    5  A    between atoms: C_11  and  C_12
REMARK    6  A    between atoms: C_12  and  N_13
REMARK    7  A    between atoms: N_13  and  C_14
REMARK    8  A    between atoms: N_13  and  C_15
REMARK    9  A    between atoms: C_17  and  N_18
REMARK   10  A    between atoms: C_23  and  N_24
REMARK                            x       y       z     vdW  Elec       q    Type
REMARK                         _______ _______ _______ _____ _____    ______ ____
ROOT
ATOM      1  C   UNL     1       5.614   4.115  17.318  0.00  0.00    +0.000 A 
ATOM      2  C   UNL     1       6.782   4.400  16.606  0.00  0.00    +0.000 A 
ATOM      3  C   UNL     1       7.658   5.385  17.043  0.00  0.00    +0.000 A 
ATOM      4  C   UNL     1       7.392   6.109  18.200  0.00  0.00    +0.000 A 
ATOM      5  C   UNL     1       6.240   5.814  18.926  0.00  0.00    +0.000 A 
ATOM      6  C   UNL     1       5.375   4.768  18.545  0.00  0.00    +0.000 A 
ENDROOT
BRANCH   6   7
ATOM      7  N   UNL     1       4.314   4.382  19.393  0.00  0.00    +0.000 N 
ATOM      8  C   UNL     1       3.230   5.165  19.817  0.00  0.00    +0.000 A 
ATOM      9  N   UNL     1       2.362   4.585  20.658  0.00  0.00    +0.000 NA
ATOM     10  C   UNL     1       1.354   5.354  21.107  0.00  0.00    +0.000 A 
ATOM     11  C   UNL     1       1.196   6.674  20.765  0.00  0.00    +0.000 A 
ATOM     12  C   UNL     1       2.117   7.206  19.887  0.00  0.00    +0.000 A 
ATOM     13  N   UNL     1       3.122   6.451  19.421  0.00  0.00    +0.000 NA
ATOM     14  H   UNL     1       4.558   3.716  20.115  0.00  0.00    +0.000 HD
BRANCH  12  15
ATOM     15  N   UNL     1       2.030   8.548  19.528  0.00  0.00    +0.000 N 
ATOM     16  C   UNL     1       1.984   8.897  18.094  0.00  0.00    +0.000 C 
ATOM     17  C   UNL     1       0.573   9.213  17.563  0.00  0.00    +0.000 C 
ATOM     18  C   UNL     1      -0.179  10.068  18.535  0.00  0.00    +0.000 A 
ATOM     19  S   UNL     1      -1.540  10.988  18.106  0.00  0.00    +0.000 S 
ATOM     20  C   UNL     1      -1.741  11.533  19.718  0.00  0.00    +0.000 A 
ATOM     21  C   UNL     1      -0.784  11.013  20.564  0.00  0.00    +0.000 A 
ATOM     22  C   UNL     1       0.139  10.169  19.875  0.00  0.00    +0.000 A 
ATOM     23  C   UNL     1       1.320   9.444  20.458  0.00  0.00    +0.000 C 
ENDBRANCH  12  15
ENDBRANCH   6   7
BRANCH   4  24
ATOM     24  N   UNL     1       8.248   7.130  18.671  0.00  0.00    +0.000 N 
ATOM     25  C   UNL     1       8.244   8.421  18.199  0.00  0.00    +0.000 C 
ATOM     26  O   UNL     1       7.588   8.827  17.241  0.00  0.00    +0.000 OA
ATOM     27  H   UNL     1       8.964   6.859  19.329  0.00  0.00    +0.000 HD
BRANCH  25  28
ATOM     28  C   UNL     1       9.156   9.338  18.919  0.00  0.00    +0.000 C 
ATOM     29  C   UNL     1       8.942  10.653  18.763  0.00  0.00    +0.000 C 
BRANCH  29  30
ATOM     30  C   UNL     1       9.694  11.747  19.442  0.00  0.00    +0.000 C 
BRANCH  30  31
ATOM     31  N   UNL     1       9.633  13.000  18.677  0.00  0.00    +0.000 NA
ATOM     32  C   UNL     1       8.660  12.939  17.583  0.00  0.00    +0.000 C 
ATOM     33  C   UNL     1       9.310  14.110  19.570  0.00  0.00    +0.000 C 
ENDBRANCH  30  31
ENDBRANCH  29  30
ENDBRANCH  25  28
ENDBRANCH   4  24
BRANCH   1  35
ATOM     34  C   UNL     1       3.415   3.781  16.542  0.00  0.00    +0.000 C 
ATOM     35  O   UNL     1       4.686   3.204  16.860  0.00  0.00    +0.000 OA
ENDBRANCH   1  35
TORSDOF 7
ENDMDL
MODEL 9
REMARK VINA RESULT:      -6.9      3.139      5.256
REMARK  Name = 
REMARK  10 active torsions:
REMARK  status: ('A' for Active; 'I' for Inactive)
REMARK    1  A    between atoms: C_1  and  O_2
REMARK    2  A    between atoms: O_2  and  C_3
REMARK    3  A    between atoms: C_6  and  N_7
REMARK    4  A    between atoms: C_8  and  C_10
REMARK    5  A    between atoms: C_11  and  C_12
REMARK    6  A    between atoms: C_12  and  N_13
REMARK    7  A    between atoms: N_13  and  C_14
REMARK    8  A    between atoms: N_13  and  C_15
REMARK    9  A    between atoms: C_17  and  N_18
REMARK   10  A    between atoms: C_23  and  N_24
REMARK                            x       y       z     vdW  Elec       q    Type
REMARK                         _______ _______ _______ _____ _____    ______ ____
ROOT
ATOM      1  C   UNL     1       2.309   4.816  18.781  0.00  0.00    +0.000 A 
ATOM      2  C   UNL     1       3.180   4.324  17.806  0.00  0.00    +0.000 A 
ATOM      3  C   UNL     1       4.294   5.055  17.414  0.00  0.00    +0.000 A 
ATOM      4  C   UNL     1       4.567   6.294  17.985  0.00  0.00    +0.000 A 
ATOM      5  C   UNL     1       3.714   6.779  18.975  0.00  0.00    +0.000 A 
ATOM      6  C   UNL     1       2.621   6.021  19.443  0.00  0.00    +0.000 A 
ENDROOT
BRANCH   6   7
ATOM      7  N   UNL     1       1.881   6.463  20.562  0.00  0.00    +0.000 N 
ATOM      8  C   UNL     1       1.160   7.659  20.692  0.00  0.00    +0.000 A 
ATOM      9  N   UNL     1       0.565   7.876  21.874  0.00  0.00    +0.000 NA
ATOM     10  C   UNL     1      -0.080   9.048  22.016  0.00  0.00    +0.000 A 
ATOM     11  C   UNL     1      -0.132  10.009  21.038  0.00  0.00    +0.000 A 
ATOM     12  C   UNL     1       0.492   9.719  19.842  0.00  0.00    +0.000 A 
ATOM     13  N   UNL     1       1.130   8.551  19.679  0.00  0.00    +0.000 NA
ATOM     14  H   UNL     1       2.253   6.188  21.462  0.00  0.00    +0.000 HD
BRANCH  12  15
ATOM     15  N   UNL     1       0.504  10.666  18.823  0.00  0.00    +0.000 N 
ATOM     16  C   UNL     1      -0.786  11.176  18.314  0.00  0.00    +0.000 C 
ATOM     17  C   UNL     1      -1.186  12.555  18.869  0.00  0.00    +0.000 C 
ATOM     18  C   UNL     1      -0.008  13.479  18.894  0.00  0.00    +0.000 A 
ATOM     19  S   UNL     1      -0.152  15.168  18.985  0.00  0.00    +0.000 S 
ATOM     20  C   UNL     1       1.552  15.360  19.016  0.00  0.00    +0.000 A 
ATOM     21  C   UNL     1       2.211  14.150  18.962  0.00  0.00    +0.000 A 
ATOM     22  C   UNL     1       1.304  13.050  18.876  0.00  0.00    +0.000 A 
ATOM     23  C   UNL     1       1.651  11.590  18.782  0.00  0.00    +0.000 C 
ENDBRANCH  12  15
ENDBRANCH   6   7
BRANCH   4  24
ATOM     24  N   UNL     1       5.679   7.077  17.605  0.00  0.00    +0.000 N 
ATOM     25  C   UNL     1       6.958   6.881  18.071  0.00  0.00    +0.000 C 
ATOM     26  O   UNL     1       7.281   6.088  18.953  0.00  0.00    +0.000 OA
ATOM     27  H   UNL     1       5.495   7.883  17.026  0.00  0.00    +0.000 HD
BRANCH  25  28
ATOM     28  C   UNL     1       7.976   7.757  17.448  0.00  0.00    +0.000 C 
ATOM     29  C   UNL     1       8.078   9.006  17.927  0.00  0.00    +0.000 C 
BRANCH  29  30
ATOM     30  C   UNL     1       9.072  10.030  17.495  0.00  0.00    +0.000 C 
BRANCH  30  31
ATOM     31  N   UNL     1       9.214  11.100  18.492  0.00  0.00    +0.000 NA
ATOM     32  C   UNL     1       9.439  10.578  19.842  0.00  0.00    +0.000 C 
ATOM     33  C   UNL     1      10.309  11.988  18.111  0.00  0.00    +0.000 C 
ENDBRANCH  30  31
ENDBRANCH  29  30
ENDBRANCH  25  28
ENDBRANCH   4  24
BRANCH   1  35
ATOM     34  C   UNL     1       1.375   2.861  19.708  0.00  0.00    +0.000 C 
ATOM     35  O   UNL     1       1.152   4.150  19.125  0.00  0.00    +0.000 OA
ENDBRANCH   1  35
TORSDOF 7
ENDMDL
