MODEL 1
REMARK VINA RESULT:      -8.4      0.000      0.000
REMARK  Name = 
REMARK  7 active torsions:
REMARK  status: ('A' for Active; 'I' for Inactive)
REMARK    1  A    between atoms: C_2  and  C_13
REMARK    2  A    between atoms: N_3  and  C_4
REMARK    3  A    between atoms: C_9  and  C_10
REMARK    4  A    between atoms: C_10  and  O_12
REMARK    5  A    between atoms: C_15  and  O_16
REMARK    6  A    between atoms: C_18  and  O_19
REMARK    7  A    between atoms: O_19  and  C_20
REMARK                            x       y       z     vdW  Elec       q    Type
REMARK                         _______ _______ _______ _____ _____    ______ ____
ROOT
ATOM      1  C   UNL     1       1.511   8.361  20.269  0.00  0.00    +0.000 A 
ATOM      2  C   UNL     1       1.247   8.456  21.637  0.00  0.00    +0.000 A 
ATOM      3  C   UNL     1       0.555   9.573  22.104  0.00  0.00    +0.000 A 
ATOM      4  C   UNL     1       0.071  10.544  21.229  0.00  0.00    +0.000 A 
ATOM      5  C   UNL     1       0.300  10.413  19.862  0.00  0.00    +0.000 A 
ATOM      6  C   UNL     1       1.089   9.366  19.395  0.00  0.00    +0.000 A 
ENDROOT
BRANCH   1   8
ATOM      7  O   UNL     1       2.387   7.190  18.462  0.00  0.00    +0.000 OA
ATOM      8  C   UNL     1       2.245   7.221  19.679  0.00  0.00    +0.000 C 
ATOM      9  N   UNL     1       2.582   6.183  20.545  0.00  0.00    +0.000 N 
ATOM     10  H   UNL     1       2.095   6.129  21.434  0.00  0.00    +0.000 HD
BRANCH   9  11
ATOM     11  C   UNL     1       3.247   5.022  20.068  0.00  0.00    +0.000 A 
ATOM     12  C   UNL     1       4.426   5.161  19.322  0.00  0.00    +0.000 A 
ATOM     13  C   UNL     1       5.100   4.048  18.822  0.00  0.00    +0.000 A 
ATOM     14  C   UNL     1       4.602   2.769  19.060  0.00  0.00    +0.000 A 
ATOM     15  C   UNL     1       3.438   2.608  19.812  0.00  0.00    +0.000 A 
ATOM     16  C   UNL     1       2.760   3.727  20.320  0.00  0.00    +0.000 A 
BRANCH  16  17
ATOM     17  C   UNL     1       1.489   3.464  21.038  0.00  0.00    +0.000 C 
ATOM     18  O   UNL     1       1.422   2.826  22.072  0.00  0.00    +0.000 OA
BRANCH  17  19
ATOM     19  O   UNL     1       0.406   3.977  20.410  0.00  0.00    +0.000 OA
ATOM     20  H   UNL     1       0.636   4.476  19.599  0.00  0.00    +0.000 HD
ENDBRANCH  17  19
ENDBRANCH  16  17
ENDBRANCH   9  11
ENDBRANCH   1   8
BRANCH   3  21
ATOM     21  O   UNL     1       0.314   9.751  23.435  0.00  0.00    +0.000 OA
ATOM     22  H   UNL     1       1.015   9.323  23.955  0.00  0.00    +0.000 HD
ENDBRANCH   3  21
BRANCH   5  23
ATOM     23  O   UNL     1      -0.265  11.354  19.028  0.00  0.00    +0.000 OA
BRANCH  23  24
ATOM     24  C   UNL     1      -1.479  11.061  18.437  0.00  0.00    +0.000 A 
ATOM     25  C   UNL     1      -1.660  10.069  17.465  0.00  0.00    +0.000 A 
ATOM     26  C   UNL     1      -2.906   9.885  16.868  0.00  0.00    +0.000 A 
ATOM     27  C   UNL     1      -3.995  10.646  17.287  0.00  0.00    +0.000 A 
ATOM     28  C   UNL     1      -3.838  11.585  18.306  0.00  0.00    +0.000 A 
ATOM     29  C   UNL     1      -2.581  11.795  18.880  0.00  0.00    +0.000 A 
ENDBRANCH  23  24
ENDBRANCH   5  23
TORSDOF 7
ENDMDL
MODEL 2
REMARK VINA RESULT:      -8.4      2.377      3.125
REMARK  Name = 
REMARK  7 active torsions:
REMARK  status: ('A' for Active; 'I' for Inactive)
REMARK    1  A    between atoms: C_2  and  C_13
REMARK    2  A    between atoms: N_3  and  C_4
REMARK    3  A    between atoms: C_9  and  C_10
REMARK    4  A    between atoms: C_10  and  O_12
REMARK    5  A    between atoms: C_15  and  O_16
REMARK    6  A    between atoms: C_18  and  O_19
REMARK    7  A    between atoms: O_19  and  C_20
REMARK                            x       y       z     vdW  Elec       q    Type
REMARK                         _______ _______ _______ _____ _____    ______ ____
ROOT
ATOM      1  C   UNL     1       2.318   7.592  18.751  0.00  0.00    +0.000 A 
ATOM      2  C   UNL     1       2.128   7.423  20.123  0.00  0.00    +0.000 A 
ATOM      3  C   UNL     1       1.447   8.415  20.828  0.00  0.00    +0.000 A 
ATOM      4  C   UNL     1       0.902   9.521  20.177  0.00  0.00    +0.000 A 
ATOM      5  C   UNL     1       1.058   9.654  18.800  0.00  0.00    +0.000 A 
ATOM      6  C   UNL     1       1.834   8.733  18.104  0.00  0.00    +0.000 A 
ENDROOT
BRANCH   1   8
ATOM      7  O   UNL     1       2.497   5.519  17.714  0.00  0.00    +0.000 OA
ATOM      8  C   UNL     1       3.034   6.601  17.919  0.00  0.00    +0.000 C 
ATOM      9  N   UNL     1       4.342   6.920  17.561  0.00  0.00    +0.000 N 
ATOM     10  H   UNL     1       4.815   7.648  18.087  0.00  0.00    +0.000 HD
BRANCH   9  11
ATOM     11  C   UNL     1       5.130   6.014  16.802  0.00  0.00    +0.000 A 
ATOM     12  C   UNL     1       5.147   6.121  15.403  0.00  0.00    +0.000 A 
ATOM     13  C   UNL     1       5.895   5.241  14.622  0.00  0.00    +0.000 A 
ATOM     14  C   UNL     1       6.643   4.235  15.229  0.00  0.00    +0.000 A 
ATOM     15  C   UNL     1       6.651   4.122  16.619  0.00  0.00    +0.000 A 
ATOM     16  C   UNL     1       5.902   5.008  17.409  0.00  0.00    +0.000 A 
BRANCH  16  17
ATOM     17  C   UNL     1       5.908   4.761  18.872  0.00  0.00    +0.000 C 
ATOM     18  O   UNL     1       6.298   5.576  19.688  0.00  0.00    +0.000 OA
BRANCH  17  19
ATOM     19  O   UNL     1       5.467   3.527  19.206  0.00  0.00    +0.000 OA
ATOM     20  H   UNL     1       4.743   3.547  19.866  0.00  0.00    +0.000 HD
ENDBRANCH  17  19
ENDBRANCH  16  17
ENDBRANCH   9  11
ENDBRANCH   1   8
BRANCH   3  21
ATOM     21  O   UNL     1       1.277   8.335  22.179  0.00  0.00    +0.000 OA
ATOM     22  H   UNL     1       0.762   7.541  22.398  0.00  0.00    +0.000 HD
ENDBRANCH   3  21
BRANCH   5  23
ATOM     23  O   UNL     1       0.435  10.722  18.188  0.00  0.00    +0.000 OA
BRANCH  23  24
ATOM     24  C   UNL     1      -0.941  10.693  18.062  0.00  0.00    +0.000 A 
ATOM     25  C   UNL     1      -1.638   9.757  17.287  0.00  0.00    +0.000 A 
ATOM     26  C   UNL     1      -3.024   9.841  17.157  0.00  0.00    +0.000 A 
ATOM     27  C   UNL     1      -3.727  10.820  17.855  0.00  0.00    +0.000 A 
ATOM     28  C   UNL     1      -3.046  11.709  18.687  0.00  0.00    +0.000 A 
ATOM     29  C   UNL     1      -1.654  11.648  18.789  0.00  0.00    +0.000 A 
ENDBRANCH  23  24
ENDBRANCH   5  23
TORSDOF 7
ENDMDL
MODEL 3
REMARK VINA RESULT:      -8.3      2.267      3.181
REMARK  Name = 
REMARK  7 active torsions:
REMARK  status: ('A' for Active; 'I' for Inactive)
REMARK    1  A    between atoms: C_2  and  C_13
REMARK    2  A    between atoms: N_3  and  C_4
REMARK    3  A    between atoms: C_9  and  C_10
REMARK    4  A    between atoms: C_10  and  O_12
REMARK    5  A    between atoms: C_15  and  O_16
REMARK    6  A    between atoms: C_18  and  O_19
REMARK    7  A    between atoms: O_19  and  C_20
REMARK                            x       y       z     vdW  Elec       q    Type
REMARK                         _______ _______ _______ _____ _____    ______ ____
ROOT
ATOM      1  C   UNL     1       2.167   7.817  18.856  0.00  0.00    +0.000 A 
ATOM      2  C   UNL     1       1.915   7.680  20.222  0.00  0.00    +0.000 A 
ATOM      3  C   UNL     1       1.174   8.671  20.865  0.00  0.00    +0.000 A 
ATOM      4  C   UNL     1       0.632   9.744  20.157  0.00  0.00    +0.000 A 
ATOM      5  C   UNL     1       0.851   9.844  18.786  0.00  0.00    +0.000 A 
ATOM      6  C   UNL     1       1.685   8.926  18.155  0.00  0.00    +0.000 A 
ENDROOT
BRANCH   1   8
ATOM      7  O   UNL     1       2.446   5.727  17.877  0.00  0.00    +0.000 OA
ATOM      8  C   UNL     1       2.948   6.824  18.088  0.00  0.00    +0.000 C 
ATOM      9  N   UNL     1       4.269   7.163  17.798  0.00  0.00    +0.000 N 
ATOM     10  H   UNL     1       4.696   7.912  18.334  0.00  0.00    +0.000 HD
BRANCH   9  11
ATOM     11  C   UNL     1       5.117   6.259  17.105  0.00  0.00    +0.000 A 
ATOM     12  C   UNL     1       5.127   6.262  15.702  0.00  0.00    +0.000 A 
ATOM     13  C   UNL     1       5.934   5.379  14.985  0.00  0.00    +0.000 A 
ATOM     14  C   UNL     1       6.747   4.473  15.662  0.00  0.00    +0.000 A 
ATOM     15  C   UNL     1       6.763   4.465  17.057  0.00  0.00    +0.000 A 
ATOM     16  C   UNL     1       5.955   5.355  17.782  0.00  0.00    +0.000 A 
BRANCH  16  17
ATOM     17  C   UNL     1       5.976   5.219  19.259  0.00  0.00    +0.000 C 
ATOM     18  O   UNL     1       4.990   4.960  19.923  0.00  0.00    +0.000 OA
BRANCH  17  19
ATOM     19  O   UNL     1       7.196   5.445  19.797  0.00  0.00    +0.000 OA
ATOM     20  H   UNL     1       7.386   4.868  20.566  0.00  0.00    +0.000 HD
ENDBRANCH  17  19
ENDBRANCH  16  17
ENDBRANCH   9  11
ENDBRANCH   1   8
BRANCH   3  21
ATOM     21  O   UNL     1       0.941   8.623  22.208  0.00  0.00    +0.000 OA
ATOM     22  H   UNL     1       0.841   9.525  22.556  0.00  0.00    +0.000 HD
ENDBRANCH   3  21
BRANCH   5  23
ATOM     23  O   UNL     1       0.231  10.876  18.115  0.00  0.00    +0.000 OA
BRANCH  23  24
ATOM     24  C   UNL     1      -1.149  10.865  18.028  0.00  0.00    +0.000 A 
ATOM     25  C   UNL     1      -1.982  11.796  18.659  0.00  0.00    +0.000 A 
ATOM     26  C   UNL     1      -3.368  11.672  18.578  0.00  0.00    +0.000 A 
ATOM     27  C   UNL     1      -3.929  10.654  17.809  0.00  0.00    +0.000 A 
ATOM     28  C   UNL     1      -3.104   9.767  17.119  0.00  0.00    +0.000 A 
ATOM     29  C   UNL     1      -1.715   9.870  17.229  0.00  0.00    +0.000 A 
ENDBRANCH  23  24
ENDBRANCH   5  23
TORSDOF 7
ENDMDL
MODEL 4
REMARK VINA RESULT:      -8.3      2.498      8.031
REMARK  Name = 
REMARK  7 active torsions:
REMARK  status: ('A' for Active; 'I' for Inactive)
REMARK    1  A    between atoms: C_2  and  C_13
REMARK    2  A    between atoms: N_3  and  C_4
REMARK    3  A    between atoms: C_9  and  C_10
REMARK    4  A    between atoms: C_10  and  O_12
REMARK    5  A    between atoms: C_15  and  O_16
REMARK    6  A    between atoms: C_18  and  O_19
REMARK    7  A    between atoms: O_19  and  C_20
REMARK                            x       y       z     vdW  Elec       q    Type
REMARK                         _______ _______ _______ _____ _____    ______ ____
ROOT
ATOM      1  C   UNL     1       2.572   4.949  19.086  0.00  0.00    +0.000 A 
ATOM      2  C   UNL     1       2.238   3.595  19.147  0.00  0.00    +0.000 A 
ATOM      3  C   UNL     1       2.950   2.698  18.352  0.00  0.00    +0.000 A 
ATOM      4  C   UNL     1       4.019   3.120  17.563  0.00  0.00    +0.000 A 
ATOM      5  C   UNL     1       4.372   4.466  17.546  0.00  0.00    +0.000 A 
ATOM      6  C   UNL     1       3.597   5.389  18.243  0.00  0.00    +0.000 A 
ENDROOT
BRANCH   1   8
ATOM      7  O   UNL     1       0.979   5.617  20.643  0.00  0.00    +0.000 OA
ATOM      8  C   UNL     1       1.871   5.978  19.884  0.00  0.00    +0.000 C 
ATOM      9  N   UNL     1       2.176   7.306  19.591  0.00  0.00    +0.000 N 
ATOM     10  H   UNL     1       2.632   7.504  18.705  0.00  0.00    +0.000 HD
BRANCH   9  11
ATOM     11  C   UNL     1       1.524   8.370  20.269  0.00  0.00    +0.000 A 
ATOM     12  C   UNL     1       1.407   8.328  21.666  0.00  0.00    +0.000 A 
ATOM     13  C   UNL     1       0.760   9.345  22.367  0.00  0.00    +0.000 A 
ATOM     14  C   UNL     1       0.215  10.426  21.679  0.00  0.00    +0.000 A 
ATOM     15  C   UNL     1       0.333  10.494  20.290  0.00  0.00    +0.000 A 
ATOM     16  C   UNL     1       0.988   9.474  19.582  0.00  0.00    +0.000 A 
BRANCH  16  17
ATOM     17  C   UNL     1       0.994   9.591  18.103  0.00  0.00    +0.000 C 
ATOM     18  O   UNL     1       1.963   9.330  17.414  0.00  0.00    +0.000 OA
BRANCH  17  19
ATOM     19  O   UNL     1      -0.174  10.049  17.600  0.00  0.00    +0.000 OA
ATOM     20  H   UNL     1      -0.730   9.337  17.218  0.00  0.00    +0.000 HD
ENDBRANCH  17  19
ENDBRANCH  16  17
ENDBRANCH   9  11
ENDBRANCH   1   8
BRANCH   3  21
ATOM     21  O   UNL     1       2.635   1.371  18.326  0.00  0.00    +0.000 OA
ATOM     22  H   UNL     1       1.985   1.174  19.021  0.00  0.00    +0.000 HD
ENDBRANCH   3  21
BRANCH   5  23
ATOM     23  O   UNL     1       5.483   4.825  16.813  0.00  0.00    +0.000 OA
BRANCH  23  24
ATOM     24  C   UNL     1       6.385   5.706  17.381  0.00  0.00    +0.000 A 
ATOM     25  C   UNL     1       6.599   7.012  16.923  0.00  0.00    +0.000 A 
ATOM     26  C   UNL     1       7.579   7.813  17.508  0.00  0.00    +0.000 A 
ATOM     27  C   UNL     1       8.304   7.336  18.598  0.00  0.00    +0.000 A 
ATOM     28  C   UNL     1       8.045   6.063  19.105  0.00  0.00    +0.000 A 
ATOM     29  C   UNL     1       7.088   5.246  18.496  0.00  0.00    +0.000 A 
ENDBRANCH  23  24
ENDBRANCH   5  23
TORSDOF 7
ENDMDL
MODEL 5
REMARK VINA RESULT:      -8.3      2.427      8.003
REMARK  Name = 
REMARK  7 active torsions:
REMARK  status: ('A' for Active; 'I' for Inactive)
REMARK    1  A    between atoms: C_2  and  C_13
REMARK    2  A    between atoms: N_3  and  C_4
REMARK    3  A    between atoms: C_9  and  C_10
REMARK    4  A    between atoms: C_10  and  O_12
REMARK    5  A    between atoms: C_15  and  O_16
REMARK    6  A    between atoms: C_18  and  O_19
REMARK    7  A    between atoms: O_19  and  C_20
REMARK                            x       y       z     vdW  Elec       q    Type
REMARK                         _______ _______ _______ _____ _____    ______ ____
ROOT
ATOM      1  C   UNL     1       2.560   4.910  19.635  0.00  0.00    +0.000 A 
ATOM      2  C   UNL     1       1.973   3.720  19.203  0.00  0.00    +0.000 A 
ATOM      3  C   UNL     1       2.790   2.741  18.640  0.00  0.00    +0.000 A 
ATOM      4  C   UNL     1       4.173   2.906  18.568  0.00  0.00    +0.000 A 
ATOM      5  C   UNL     1       4.751   4.078  19.046  0.00  0.00    +0.000 A 
ATOM      6  C   UNL     1       3.937   5.110  19.502  0.00  0.00    +0.000 A 
ENDROOT
BRANCH   1   8
ATOM      7  O   UNL     1       0.723   5.734  20.798  0.00  0.00    +0.000 OA
ATOM      8  C   UNL     1       1.777   6.010  20.238  0.00  0.00    +0.000 C 
ATOM      9  N   UNL     1       2.224   7.305  19.981  0.00  0.00    +0.000 N 
ATOM     10  H   UNL     1       2.869   7.440  19.209  0.00  0.00    +0.000 HD
BRANCH   9  11
ATOM     11  C   UNL     1       1.516   8.432  20.477  0.00  0.00    +0.000 A 
ATOM     12  C   UNL     1       1.296   8.556  21.856  0.00  0.00    +0.000 A 
ATOM     13  C   UNL     1       0.592   9.639  22.380  0.00  0.00    +0.000 A 
ATOM     14  C   UNL     1       0.092  10.622  21.528  0.00  0.00    +0.000 A 
ATOM     15  C   UNL     1       0.313  10.524  20.154  0.00  0.00    +0.000 A 
ATOM     16  C   UNL     1       1.025   9.437  19.624  0.00  0.00    +0.000 A 
BRANCH  16  17
ATOM     17  C   UNL     1       1.142   9.376  18.147  0.00  0.00    +0.000 C 
ATOM     18  O   UNL     1       2.158   9.042  17.567  0.00  0.00    +0.000 OA
BRANCH  17  19
ATOM     19  O   UNL     1       0.014   9.761  17.507  0.00  0.00    +0.000 OA
ATOM     20  H   UNL     1      -0.011   9.472  16.570  0.00  0.00    +0.000 HD
ENDBRANCH  17  19
ENDBRANCH  16  17
ENDBRANCH   9  11
ENDBRANCH   1   8
BRANCH   3  21
ATOM     21  O   UNL     1       2.270   1.580  18.150  0.00  0.00    +0.000 OA
ATOM     22  H   UNL     1       1.441   1.765  17.679  0.00  0.00    +0.000 HD
ENDBRANCH   3  21
BRANCH   5  23
ATOM     23  O   UNL     1       6.128   4.165  19.027  0.00  0.00    +0.000 OA
BRANCH  23  24
ATOM     24  C   UNL     1       6.704   5.330  18.558  0.00  0.00    +0.000 A 
ATOM     25  C   UNL     1       7.792   5.967  19.167  0.00  0.00    +0.000 A 
ATOM     26  C   UNL     1       8.269   7.179  18.670  0.00  0.00    +0.000 A 
ATOM     27  C   UNL     1       7.703   7.727  17.520  0.00  0.00    +0.000 A 
ATOM     28  C   UNL     1       6.667   7.060  16.867  0.00  0.00    +0.000 A 
ATOM     29  C   UNL     1       6.165   5.864  17.386  0.00  0.00    +0.000 A 
ENDBRANCH  23  24
ENDBRANCH   5  23
TORSDOF 7
ENDMDL
MODEL 6
REMARK VINA RESULT:      -8.2      2.496      8.036
REMARK  Name = 
REMARK  7 active torsions:
REMARK  status: ('A' for Active; 'I' for Inactive)
REMARK    1  A    between atoms: C_2  and  C_13
REMARK    2  A    between atoms: N_3  and  C_4
REMARK    3  A    between atoms: C_9  and  C_10
REMARK    4  A    between atoms: C_10  and  O_12
REMARK    5  A    between atoms: C_15  and  O_16
REMARK    6  A    between atoms: C_18  and  O_19
REMARK    7  A    between atoms: O_19  and  C_20
REMARK                            x       y       z     vdW  Elec       q    Type
REMARK                         _______ _______ _______ _____ _____    ______ ____
ROOT
ATOM      1  C   UNL     1       2.501   5.185  18.932  0.00  0.00    +0.000 A 
ATOM      2  C   UNL     1       2.056   3.865  18.836  0.00  0.00    +0.000 A 
ATOM      3  C   UNL     1       2.699   3.009  17.943  0.00  0.00    +0.000 A 
ATOM      4  C   UNL     1       3.808   3.428  17.209  0.00  0.00    +0.000 A 
ATOM      5  C   UNL     1       4.271   4.734  17.349  0.00  0.00    +0.000 A 
ATOM      6  C   UNL     1       3.568   5.631  18.146  0.00  0.00    +0.000 A 
ENDROOT
BRANCH   1   8
ATOM      7  O   UNL     1       1.200   5.753  20.773  0.00  0.00    +0.000 OA
ATOM      8  C   UNL     1       1.879   6.170  19.842  0.00  0.00    +0.000 C 
ATOM      9  N   UNL     1       1.986   7.510  19.475  0.00  0.00    +0.000 N 
ATOM     10  H   UNL     1       2.230   7.720  18.512  0.00  0.00    +0.000 HD
BRANCH   9  11
ATOM     11  C   UNL     1       1.384   8.530  20.258  0.00  0.00    +0.000 A 
ATOM     12  C   UNL     1       1.428   8.443  21.656  0.00  0.00    +0.000 A 
ATOM     13  C   UNL     1       0.835   9.415  22.460  0.00  0.00    +0.000 A 
ATOM     14  C   UNL     1       0.183  10.498  21.875  0.00  0.00    +0.000 A 
ATOM     15  C   UNL     1       0.140  10.612  20.485  0.00  0.00    +0.000 A 
ATOM     16  C   UNL     1       0.740   9.636  19.673  0.00  0.00    +0.000 A 
BRANCH  16  17
ATOM     17  C   UNL     1       0.574   9.797  18.208  0.00  0.00    +0.000 C 
ATOM     18  O   UNL     1      -0.508   9.814  17.653  0.00  0.00    +0.000 OA
BRANCH  17  19
ATOM     19  O   UNL     1       1.750   9.890  17.546  0.00  0.00    +0.000 OA
ATOM     20  H   UNL     1       1.648   9.810  16.574  0.00  0.00    +0.000 HD
ENDBRANCH  17  19
ENDBRANCH  16  17
ENDBRANCH   9  11
ENDBRANCH   1   8
BRANCH   3  21
ATOM     21  O   UNL     1       2.277   1.725  17.764  0.00  0.00    +0.000 OA
ATOM     22  H   UNL     1       2.279   1.508  16.817  0.00  0.00    +0.000 HD
ENDBRANCH   3  21
BRANCH   5  23
ATOM     23  O   UNL     1       5.416   5.081  16.663  0.00  0.00    +0.000 OA
BRANCH  23  24
ATOM     24  C   UNL     1       6.399   5.776  17.341  0.00  0.00    +0.000 A 
ATOM     25  C   UNL     1       7.129   5.255  18.417  0.00  0.00    +0.000 A 
ATOM     26  C   UNL     1       8.055   6.049  19.092  0.00  0.00    +0.000 A 
ATOM     27  C   UNL     1       8.305   7.348  18.653  0.00  0.00    +0.000 A 
ATOM     28  C   UNL     1       7.635   7.848  17.537  0.00  0.00    +0.000 A 
ATOM     29  C   UNL     1       6.680   7.065  16.882  0.00  0.00    +0.000 A 
ENDBRANCH  23  24
ENDBRANCH   5  23
TORSDOF 7
ENDMDL
MODEL 7
REMARK VINA RESULT:      -8.1      0.190      1.151
REMARK  Name = 
REMARK  7 active torsions:
REMARK  status: ('A' for Active; 'I' for Inactive)
REMARK    1  A    between atoms: C_2  and  C_13
REMARK    2  A    between atoms: N_3  and  C_4
REMARK    3  A    between atoms: C_9  and  C_10
REMARK    4  A    between atoms: C_10  and  O_12
REMARK    5  A    between atoms: C_15  and  O_16
REMARK    6  A    between atoms: C_18  and  O_19
REMARK    7  A    between atoms: O_19  and  C_20
REMARK                            x       y       z     vdW  Elec       q    Type
REMARK                         _______ _______ _______ _____ _____    ______ ____
ROOT
ATOM      1  C   UNL     1       1.510   8.434  20.192  0.00  0.00    +0.000 A 
ATOM      2  C   UNL     1       1.274   8.527  21.564  0.00  0.00    +0.000 A 
ATOM      3  C   UNL     1       0.595   9.644  22.049  0.00  0.00    +0.000 A 
ATOM      4  C   UNL     1       0.097  10.620  21.186  0.00  0.00    +0.000 A 
ATOM      5  C   UNL     1       0.298  10.492  19.815  0.00  0.00    +0.000 A 
ATOM      6  C   UNL     1       1.073   9.444  19.328  0.00  0.00    +0.000 A 
ENDROOT
BRANCH   1   8
ATOM      7  O   UNL     1       2.254   7.210  18.361  0.00  0.00    +0.000 OA
ATOM      8  C   UNL     1       2.227   7.293  19.583  0.00  0.00    +0.000 C 
ATOM      9  N   UNL     1       2.684   6.309  20.457  0.00  0.00    +0.000 N 
ATOM     10  H   UNL     1       2.286   6.281  21.391  0.00  0.00    +0.000 HD
BRANCH   9  11
ATOM     11  C   UNL     1       3.345   5.151  19.968  0.00  0.00    +0.000 A 
ATOM     12  C   UNL     1       4.546   5.290  19.259  0.00  0.00    +0.000 A 
ATOM     13  C   UNL     1       5.216   4.180  18.749  0.00  0.00    +0.000 A 
ATOM     14  C   UNL     1       4.693   2.903  18.941  0.00  0.00    +0.000 A 
ATOM     15  C   UNL     1       3.507   2.741  19.657  0.00  0.00    +0.000 A 
ATOM     16  C   UNL     1       2.832   3.858  20.175  0.00  0.00    +0.000 A 
BRANCH  16  17
ATOM     17  C   UNL     1       1.538   3.597  20.851  0.00  0.00    +0.000 C 
ATOM     18  O   UNL     1       0.477   4.054  20.469  0.00  0.00    +0.000 OA
BRANCH  17  19
ATOM     19  O   UNL     1       1.660   2.826  21.956  0.00  0.00    +0.000 OA
ATOM     20  H   UNL     1       2.146   1.992  21.788  0.00  0.00    +0.000 HD
ENDBRANCH  17  19
ENDBRANCH  16  17
ENDBRANCH   9  11
ENDBRANCH   1   8
BRANCH   3  21
ATOM     21  O   UNL     1       0.382   9.820  23.385  0.00  0.00    +0.000 OA
ATOM     22  H   UNL     1       1.200   9.630  23.875  0.00  0.00    +0.000 HD
ENDBRANCH   3  21
BRANCH   5  23
ATOM     23  O   UNL     1      -0.280  11.438  18.995  0.00  0.00    +0.000 OA
BRANCH  23  24
ATOM     24  C   UNL     1      -1.571  11.218  18.551  0.00  0.00    +0.000 A 
ATOM     25  C   UNL     1      -2.687  11.936  18.999  0.00  0.00    +0.000 A 
ATOM     26  C   UNL     1      -3.965  11.603  18.553  0.00  0.00    +0.000 A 
ATOM     27  C   UNL     1      -4.128  10.596  17.603  0.00  0.00    +0.000 A 
ATOM     28  C   UNL     1      -3.013   9.927  17.099  0.00  0.00    +0.000 A 
ATOM     29  C   UNL     1      -1.735  10.236  17.573  0.00  0.00    +0.000 A 
ENDBRANCH  23  24
ENDBRANCH   5  23
TORSDOF 7
ENDMDL
MODEL 8
REMARK VINA RESULT:      -8.0      1.103      1.364
REMARK  Name = 
REMARK  7 active torsions:
REMARK  status: ('A' for Active; 'I' for Inactive)
REMARK    1  A    between atoms: C_2  and  C_13
REMARK    2  A    between atoms: N_3  and  C_4
REMARK    3  A    between atoms: C_9  and  C_10
REMARK    4  A    between atoms: C_10  and  O_12
REMARK    5  A    between atoms: C_15  and  O_16
REMARK    6  A    between atoms: C_18  and  O_19
REMARK    7  A    between atoms: O_19  and  C_20
REMARK                            x       y       z     vdW  Elec       q    Type
REMARK                         _______ _______ _______ _____ _____    ______ ____
ROOT
ATOM      1  C   UNL     1       1.379   8.499  20.006  0.00  0.00    +0.000 A 
ATOM      2  C   UNL     1       1.000   8.277  21.331  0.00  0.00    +0.000 A 
ATOM      3  C   UNL     1       0.131   9.185  21.935  0.00  0.00    +0.000 A 
ATOM      4  C   UNL     1      -0.409  10.255  21.223  0.00  0.00    +0.000 A 
ATOM      5  C   UNL     1      -0.059  10.439  19.888  0.00  0.00    +0.000 A 
ATOM      6  C   UNL     1       0.896   9.610  19.308  0.00  0.00    +0.000 A 
ENDROOT
BRANCH   1   8
ATOM      7  O   UNL     1       2.565   7.855  18.112  0.00  0.00    +0.000 OA
ATOM      8  C   UNL     1       2.301   7.599  19.281  0.00  0.00    +0.000 C 
ATOM      9  N   UNL     1       2.678   6.431  19.943  0.00  0.00    +0.000 N 
ATOM     10  H   UNL     1       2.117   6.132  20.734  0.00  0.00    +0.000 HD
BRANCH   9  11
ATOM     11  C   UNL     1       3.524   5.479  19.315  0.00  0.00    +0.000 A 
ATOM     12  C   UNL     1       4.915   5.646  19.376  0.00  0.00    +0.000 A 
ATOM     13  C   UNL     1       5.778   4.743  18.760  0.00  0.00    +0.000 A 
ATOM     14  C   UNL     1       5.262   3.650  18.066  0.00  0.00    +0.000 A 
ATOM     15  C   UNL     1       3.882   3.457  18.006  0.00  0.00    +0.000 A 
ATOM     16  C   UNL     1       3.010   4.363  18.630  0.00  0.00    +0.000 A 
BRANCH  16  17
ATOM     17  C   UNL     1       1.558   4.123  18.445  0.00  0.00    +0.000 C 
ATOM     18  O   UNL     1       1.015   4.105  17.356  0.00  0.00    +0.000 OA
BRANCH  17  19
ATOM     19  O   UNL     1       0.893   3.958  19.610  0.00  0.00    +0.000 OA
ATOM     20  H   UNL     1       0.545   4.800  19.973  0.00  0.00    +0.000 HD
ENDBRANCH  17  19
ENDBRANCH  16  17
ENDBRANCH   9  11
ENDBRANCH   1   8
BRANCH   3  21
ATOM     21  O   UNL     1      -0.234   9.054  23.243  0.00  0.00    +0.000 OA
ATOM     22  H   UNL     1       0.125   9.794  23.760  0.00  0.00    +0.000 HD
ENDBRANCH   3  21
BRANCH   5  23
ATOM     23  O   UNL     1      -0.677  11.463  19.202  0.00  0.00    +0.000 OA
BRANCH  23  24
ATOM     24  C   UNL     1      -1.835  11.176  18.503  0.00  0.00    +0.000 A 
ATOM     25  C   UNL     1      -1.912  10.244  17.461  0.00  0.00    +0.000 A 
ATOM     26  C   UNL     1      -3.104  10.066  16.760  0.00  0.00    +0.000 A 
ATOM     27  C   UNL     1      -4.244  10.771  17.141  0.00  0.00    +0.000 A 
ATOM     28  C   UNL     1      -4.192  11.647  18.225  0.00  0.00    +0.000 A 
ATOM     29  C   UNL     1      -2.988  11.852  18.905  0.00  0.00    +0.000 A 
ENDBRANCH  23  24
ENDBRANCH   5  23
TORSDOF 7
ENDMDL
MODEL 9
REMARK VINA RESULT:      -8.0      1.160      1.234
REMARK  Name = 
REMARK  7 active torsions:
REMARK  status: ('A' for Active; 'I' for Inactive)
REMARK    1  A    between atoms: C_2  and  C_13
REMARK    2  A    between atoms: N_3  and  C_4
REMARK    3  A    between atoms: C_9  and  C_10
REMARK    4  A    between atoms: C_10  and  O_12
REMARK    5  A    between atoms: C_15  and  O_16
REMARK    6  A    between atoms: C_18  and  O_19
REMARK    7  A    between atoms: O_19  and  C_20
REMARK                            x       y       z     vdW  Elec       q    Type
REMARK                         _______ _______ _______ _____ _____    ______ ____
ROOT
ATOM      1  C   UNL     1       1.627   8.123  20.139  0.00  0.00    +0.000 A 
ATOM      2  C   UNL     1       1.466   8.285  21.516  0.00  0.00    +0.000 A 
ATOM      3  C   UNL     1       0.899   9.469  21.985  0.00  0.00    +0.000 A 
ATOM      4  C   UNL     1       0.434  10.448  21.107  0.00  0.00    +0.000 A 
ATOM      5  C   UNL     1       0.558  10.253  19.734  0.00  0.00    +0.000 A 
ATOM      6  C   UNL     1       1.227   9.131  19.256  0.00  0.00    +0.000 A 
ENDROOT
BRANCH   1   8
ATOM      7  O   UNL     1       3.204   7.037  18.821  0.00  0.00    +0.000 OA
ATOM      8  C   UNL     1       2.224   6.908  19.545  0.00  0.00    +0.000 C 
ATOM      9  N   UNL     1       1.525   5.717  19.731  0.00  0.00    +0.000 N 
ATOM     10  H   UNL     1       0.551   5.778  20.011  0.00  0.00    +0.000 HD
BRANCH   9  11
ATOM     11  C   UNL     1       1.991   4.502  19.162  0.00  0.00    +0.000 A 
ATOM     12  C   UNL     1       2.114   4.396  17.769  0.00  0.00    +0.000 A 
ATOM     13  C   UNL     1       2.553   3.216  17.172  0.00  0.00    +0.000 A 
ATOM     14  C   UNL     1       2.877   2.115  17.961  0.00  0.00    +0.000 A 
ATOM     15  C   UNL     1       2.776   2.205  19.350  0.00  0.00    +0.000 A 
ATOM     16  C   UNL     1       2.338   3.393  19.955  0.00  0.00    +0.000 A 
BRANCH  16  17
ATOM     17  C   UNL     1       2.184   3.371  21.430  0.00  0.00    +0.000 C 
ATOM     18  O   UNL     1       1.713   2.430  22.040  0.00  0.00    +0.000 OA
BRANCH  17  19
ATOM     19  O   UNL     1       2.590   4.515  22.026  0.00  0.00    +0.000 OA
ATOM     20  H   UNL     1       3.387   4.901  21.606  0.00  0.00    +0.000 HD
ENDBRANCH  17  19
ENDBRANCH  16  17
ENDBRANCH   9  11
ENDBRANCH   1   8
BRANCH   3  21
ATOM     21  O   UNL     1       0.765   9.710  23.321  0.00  0.00    +0.000 OA
ATOM     22  H   UNL     1       0.386   8.930  23.759  0.00  0.00    +0.000 HD
ENDBRANCH   3  21
BRANCH   5  23
ATOM     23  O   UNL     1       0.014  11.210  18.903  0.00  0.00    +0.000 OA
BRANCH  23  24
ATOM     24  C   UNL     1      -1.253  10.994  18.397  0.00  0.00    +0.000 A 
ATOM     25  C   UNL     1      -1.555  10.032  17.424  0.00  0.00    +0.000 A 
ATOM     26  C   UNL     1      -2.849   9.926  16.915  0.00  0.00    +0.000 A 
ATOM     27  C   UNL     1      -3.863  10.735  17.424  0.00  0.00    +0.000 A 
ATOM     28  C   UNL     1      -3.583  11.644  18.444  0.00  0.00    +0.000 A 
ATOM     29  C   UNL     1      -2.279  11.776  18.929  0.00  0.00    +0.000 A 
ENDBRANCH  23  24
ENDBRANCH   5  23
TORSDOF 7
ENDMDL
