MODEL 1
REMARK VINA RESULT:      -7.0      0.000      0.000
REMARK  Name = 
REMARK  8 active torsions:
REMARK  status: ('A' for Active; 'I' for Inactive)
REMARK    1  A    between atoms: N_5  and  C_6
REMARK    2  A    between atoms: C_8  and  O_9
REMARK    3  A    between atoms: O_9  and  C_10
REMARK    4  A    between atoms: C_10  and  P_11
REMARK    5  A    between atoms: P_11  and  O_13
REMARK    6  A    between atoms: P_11  and  O_14
REMARK    7  A    between atoms: C_15  and  O_16
REMARK    8  A    between atoms: C_17  and  O_18
REMARK                            x       y       z     vdW  Elec       q    Type
REMARK                         _______ _______ _______ _____ _____    ______ ____
ROOT
ATOM      1  C   UNL     1       2.975   4.243  18.898  0.00  0.00    +0.000 C 
ATOM      2  O   UNL     1       4.326   4.156  18.406  0.00  0.00    +0.000 OA
ATOM      3  C   UNL     1       4.335   3.310  17.246  0.00  0.00    +0.000 C 
ATOM      4  C   UNL     1       2.967   2.618  17.189  0.00  0.00    +0.000 C 
ATOM      5  C   UNL     1       2.059   3.661  17.811  0.00  0.00    +0.000 C 
ENDROOT
BRANCH   1  10
ATOM      6  O   UNL     1       1.235   9.248  20.199  0.00  0.00    +0.000 OA
ATOM      7  C   UNL     1       1.687   8.144  19.926  0.00  0.00    +0.000 A 
ATOM      8  C   UNL     1       2.294   7.876  18.612  0.00  0.00    +0.000 A 
ATOM      9  C   UNL     1       2.723   6.642  18.338  0.00  0.00    +0.000 A 
ATOM     10  N   UNL     1       2.634   5.614  19.258  0.00  0.00    +0.000 N 
ATOM     11  C   UNL     1       2.081   5.815  20.521  0.00  0.00    +0.000 A 
ATOM     12  O   UNL     1       1.972   4.936  21.373  0.00  0.00    +0.000 OA
ATOM     13  N   UNL     1       1.655   7.087  20.789  0.00  0.00    +0.000 N 
ATOM     14  H   UNL     1       1.233   7.242  21.691  0.00  0.00    +0.000 HD
ENDBRANCH   1  10
BRANCH   4  15
ATOM     15  O   UNL     1       2.921   1.419  17.987  0.00  0.00    +0.000 OA
ATOM     16  H   UNL     1       3.817   1.202  18.305  0.00  0.00    +0.000 HD
ENDBRANCH   4  15
BRANCH   5  17
ATOM     17  O   UNL     1       0.851   3.090  18.303  0.00  0.00    +0.000 OA
ATOM     18  H   UNL     1       0.973   2.943  19.262  0.00  0.00    +0.000 HD
ENDBRANCH   5  17
BRANCH   3  19
ATOM     19  O   UNL     1       4.566   4.093  16.071  0.00  0.00    +0.000 OA
BRANCH  19  20
ATOM     20  C   UNL     1       5.860   3.771  15.513  0.00  0.00    +0.000 C 
BRANCH  20  21
ATOM     21  P   UNL     1       7.089   4.865  16.226  0.00  0.00    +0.000 P 
ATOM     22  O   UNL     1       8.073   4.244  17.160  0.00  0.00    +0.000 OA
BRANCH  21  23
ATOM     23  O   UNL     1       7.752   5.620  14.973  0.00  0.00    +0.000 OA
ATOM     24  H   UNL     1       7.743   6.591  15.086  0.00  0.00    +0.000 HD
ENDBRANCH  21  23
BRANCH  21  25
ATOM     25  O   UNL     1       6.280   6.082  16.888  0.00  0.00    +0.000 OA
ATOM     26  H   UNL     1       6.809   6.903  16.840  0.00  0.00    +0.000 HD
ENDBRANCH  21  25
ENDBRANCH  20  21
ENDBRANCH  19  20
ENDBRANCH   3  19
TORSDOF 8
ENDMDL
MODEL 2
REMARK VINA RESULT:      -6.9      0.276      1.037
REMARK  Name = 
REMARK  8 active torsions:
REMARK  status: ('A' for Active; 'I' for Inactive)
REMARK    1  A    between atoms: N_5  and  C_6
REMARK    2  A    between atoms: C_8  and  O_9
REMARK    3  A    between atoms: O_9  and  C_10
REMARK    4  A    between atoms: C_10  and  P_11
REMARK    5  A    between atoms: P_11  and  O_13
REMARK    6  A    between atoms: P_11  and  O_14
REMARK    7  A    between atoms: C_15  and  O_16
REMARK    8  A    between atoms: C_17  and  O_18
REMARK                            x       y       z     vdW  Elec       q    Type
REMARK                         _______ _______ _______ _____ _____    ______ ____
ROOT
ATOM      1  C   UNL     1       3.110   4.202  19.029  0.00  0.00    +0.000 C 
ATOM      2  O   UNL     1       4.424   4.171  18.440  0.00  0.00    +0.000 OA
ATOM      3  C   UNL     1       4.394   3.287  17.308  0.00  0.00    +0.000 C 
ATOM      4  C   UNL     1       3.067   2.521  17.375  0.00  0.00    +0.000 C 
ATOM      5  C   UNL     1       2.150   3.535  18.032  0.00  0.00    +0.000 C 
ENDROOT
BRANCH   1  10
ATOM      6  O   UNL     1       1.195   9.164  20.248  0.00  0.00    +0.000 OA
ATOM      7  C   UNL     1       1.685   8.070  19.996  0.00  0.00    +0.000 A 
ATOM      8  C   UNL     1       2.356   7.817  18.710  0.00  0.00    +0.000 A 
ATOM      9  C   UNL     1       2.825   6.594  18.456  0.00  0.00    +0.000 A 
ATOM     10  N   UNL     1       2.721   5.564  19.372  0.00  0.00    +0.000 N 
ATOM     11  C   UNL     1       2.108   5.751  20.609  0.00  0.00    +0.000 A 
ATOM     12  O   UNL     1       1.982   4.870  21.457  0.00  0.00    +0.000 OA
ATOM     13  N   UNL     1       1.640   7.013  20.858  0.00  0.00    +0.000 N 
ATOM     14  H   UNL     1       1.175   7.158  21.740  0.00  0.00    +0.000 HD
ENDBRANCH   1  10
BRANCH   4  15
ATOM     15  O   UNL     1       3.146   1.349  18.210  0.00  0.00    +0.000 OA
ATOM     16  H   UNL     1       3.382   0.575  17.666  0.00  0.00    +0.000 HD
ENDBRANCH   4  15
BRANCH   5  17
ATOM     17  O   UNL     1       1.016   2.918  18.630  0.00  0.00    +0.000 OA
ATOM     18  H   UNL     1       0.322   2.864  17.943  0.00  0.00    +0.000 HD
ENDBRANCH   5  17
BRANCH   3  19
ATOM     19  O   UNL     1       4.494   4.041  16.096  0.00  0.00    +0.000 OA
BRANCH  19  20
ATOM     20  C   UNL     1       5.770   3.787  15.464  0.00  0.00    +0.000 C 
BRANCH  20  21
ATOM     21  P   UNL     1       6.894   5.124  15.866  0.00  0.00    +0.000 P 
ATOM     22  O   UNL     1       6.276   6.392  16.354  0.00  0.00    +0.000 OA
BRANCH  21  23
ATOM     23  O   UNL     1       7.965   4.479  16.874  0.00  0.00    +0.000 OA
ATOM     24  H   UNL     1       8.295   3.617  16.552  0.00  0.00    +0.000 HD
ENDBRANCH  21  23
BRANCH  21  25
ATOM     25  O   UNL     1       7.821   5.338  14.574  0.00  0.00    +0.000 OA
ATOM     26  H   UNL     1       7.267   5.407  13.771  0.00  0.00    +0.000 HD
ENDBRANCH  21  25
ENDBRANCH  20  21
ENDBRANCH  19  20
ENDBRANCH   3  19
TORSDOF 8
ENDMDL
MODEL 3
REMARK VINA RESULT:      -6.9      2.429      5.116
REMARK  Name = 
REMARK  8 active torsions:
REMARK  status: ('A' for Active; 'I' for Inactive)
REMARK    1  A    between atoms: N_5  and  C_6
REMARK    2  A    between atoms: C_8  and  O_9
REMARK    3  A    between atoms: O_9  and  C_10
REMARK    4  A    between atoms: C_10  and  P_11
REMARK    5  A    between atoms: P_11  and  O_13
REMARK    6  A    between atoms: P_11  and  O_14
REMARK    7  A    between atoms: C_15  and  O_16
REMARK    8  A    between atoms: C_17  and  O_18
REMARK                            x       y       z     vdW  Elec       q    Type
REMARK                         _______ _______ _______ _____ _____    ______ ____
ROOT
ATOM      1  C   UNL     1       4.024   6.058  19.332  0.00  0.00    +0.000 C 
ATOM      2  O   UNL     1       3.804   4.866  20.110  0.00  0.00    +0.000 OA
ATOM      3  C   UNL     1       2.401   4.766  20.403  0.00  0.00    +0.000 C 
ATOM      4  C   UNL     1       1.770   6.112  20.026  0.00  0.00    +0.000 C 
ATOM      5  C   UNL     1       2.647   6.559  18.872  0.00  0.00    +0.000 C 
ENDROOT
BRANCH   1  10
ATOM      6  O   UNL     1       7.654   5.524  15.293  0.00  0.00    +0.000 OA
ATOM      7  C   UNL     1       6.821   5.580  16.190  0.00  0.00    +0.000 A 
ATOM      8  C   UNL     1       5.414   5.899  15.900  0.00  0.00    +0.000 A 
ATOM      9  C   UNL     1       4.553   6.005  16.914  0.00  0.00    +0.000 A 
ATOM     10  N   UNL     1       4.938   5.802  18.226  0.00  0.00    +0.000 N 
ATOM     11  C   UNL     1       6.253   5.485  18.556  0.00  0.00    +0.000 A 
ATOM     12  O   UNL     1       6.650   5.301  19.705  0.00  0.00    +0.000 OA
ATOM     13  N   UNL     1       7.122   5.371  17.504  0.00  0.00    +0.000 N 
ATOM     14  H   UNL     1       8.081   5.163  17.730  0.00  0.00    +0.000 HD
ENDBRANCH   1  10
BRANCH   4  15
ATOM     15  O   UNL     1       1.861   7.082  21.088  0.00  0.00    +0.000 OA
ATOM     16  H   UNL     1       1.558   7.951  20.765  0.00  0.00    +0.000 HD
ENDBRANCH   4  15
BRANCH   5  17
ATOM     17  O   UNL     1       2.573   7.965  18.661  0.00  0.00    +0.000 OA
ATOM     18  H   UNL     1       3.480   8.319  18.761  0.00  0.00    +0.000 HD
ENDBRANCH   5  17
BRANCH   3  19
ATOM     19  O   UNL     1       1.820   3.695  19.654  0.00  0.00    +0.000 OA
BRANCH  19  20
ATOM     20  C   UNL     1       2.508   2.459  19.948  0.00  0.00    +0.000 C 
BRANCH  20  21
ATOM     21  P   UNL     1       3.736   2.159  18.678  0.00  0.00    +0.000 P 
ATOM     22  O   UNL     1       3.508   2.822  17.360  0.00  0.00    +0.000 OA
BRANCH  21  23
ATOM     23  O   UNL     1       5.142   2.520  19.364  0.00  0.00    +0.000 OA
ATOM     24  H   UNL     1       5.026   3.058  20.173  0.00  0.00    +0.000 HD
ENDBRANCH  21  23
BRANCH  21  25
ATOM     25  O   UNL     1       3.885   0.566  18.560  0.00  0.00    +0.000 OA
ATOM     26  H   UNL     1       3.463   0.132  19.328  0.00  0.00    +0.000 HD
ENDBRANCH  21  25
ENDBRANCH  20  21
ENDBRANCH  19  20
ENDBRANCH   3  19
TORSDOF 8
ENDMDL
MODEL 4
REMARK VINA RESULT:      -6.7      1.951      2.343
REMARK  Name = 
REMARK  8 active torsions:
REMARK  status: ('A' for Active; 'I' for Inactive)
REMARK    1  A    between atoms: N_5  and  C_6
REMARK    2  A    between atoms: C_8  and  O_9
REMARK    3  A    between atoms: O_9  and  C_10
REMARK    4  A    between atoms: C_10  and  P_11
REMARK    5  A    between atoms: P_11  and  O_13
REMARK    6  A    between atoms: P_11  and  O_14
REMARK    7  A    between atoms: C_15  and  O_16
REMARK    8  A    between atoms: C_17  and  O_18
REMARK                            x       y       z     vdW  Elec       q    Type
REMARK                         _______ _______ _______ _____ _____    ______ ____
ROOT
ATOM      1  C   UNL     1       2.414   5.100  19.283  0.00  0.00    +0.000 C 
ATOM      2  O   UNL     1       3.576   4.754  20.060  0.00  0.00    +0.000 OA
ATOM      3  C   UNL     1       4.209   3.617  19.451  0.00  0.00    +0.000 C 
ATOM      4  C   UNL     1       3.228   3.066  18.409  0.00  0.00    +0.000 C 
ATOM      5  C   UNL     1       2.504   4.321  17.962  0.00  0.00    +0.000 C 
ENDROOT
BRANCH   1  10
ATOM      6  O   UNL     1       1.593  10.435  18.487  0.00  0.00    +0.000 OA
ATOM      7  C   UNL     1       1.839   9.253  18.687  0.00  0.00    +0.000 A 
ATOM      8  C   UNL     1       2.511   8.433  17.665  0.00  0.00    +0.000 A 
ATOM      9  C   UNL     1       2.708   7.136  17.904  0.00  0.00    +0.000 A 
ATOM     10  N   UNL     1       2.321   6.542  19.091  0.00  0.00    +0.000 N 
ATOM     11  C   UNL     1       1.694   7.272  20.098  0.00  0.00    +0.000 A 
ATOM     12  O   UNL     1       1.323   6.794  21.168  0.00  0.00    +0.000 OA
ATOM     13  N   UNL     1       1.507   8.603  19.841  0.00  0.00    +0.000 N 
ATOM     14  H   UNL     1       1.036   9.140  20.551  0.00  0.00    +0.000 HD
ENDBRANCH   1  10
BRANCH   4  15
ATOM     15  O   UNL     1       2.272   2.150  18.980  0.00  0.00    +0.000 OA
ATOM     16  H   UNL     1       1.530   2.651  19.367  0.00  0.00    +0.000 HD
ENDBRANCH   4  15
BRANCH   5  17
ATOM     17  O   UNL     1       1.245   4.026  17.366  0.00  0.00    +0.000 OA
ATOM     18  H   UNL     1       0.567   4.125  18.063  0.00  0.00    +0.000 HD
ENDBRANCH   5  17
BRANCH   3  19
ATOM     19  O   UNL     1       5.441   4.011  18.842  0.00  0.00    +0.000 OA
BRANCH  19  20
ATOM     20  C   UNL     1       5.794   5.348  19.267  0.00  0.00    +0.000 C 
BRANCH  20  21
ATOM     21  P   UNL     1       7.546   5.604  18.985  0.00  0.00    +0.000 P 
ATOM     22  O   UNL     1       7.935   6.887  18.331  0.00  0.00    +0.000 OA
BRANCH  21  23
ATOM     23  O   UNL     1       8.239   5.352  20.412  0.00  0.00    +0.000 OA
ATOM     24  H   UNL     1       8.027   4.467  20.769  0.00  0.00    +0.000 HD
ENDBRANCH  21  23
BRANCH  21  25
ATOM     25  O   UNL     1       8.069   4.313  18.190  0.00  0.00    +0.000 OA
ATOM     26  H   UNL     1       8.473   3.676  18.813  0.00  0.00    +0.000 HD
ENDBRANCH  21  25
ENDBRANCH  20  21
ENDBRANCH  19  20
ENDBRANCH   3  19
TORSDOF 8
ENDMDL
MODEL 5
REMARK VINA RESULT:      -6.7      1.593      1.962
REMARK  Name = 
REMARK  8 active torsions:
REMARK  status: ('A' for Active; 'I' for Inactive)
REMARK    1  A    between atoms: N_5  and  C_6
REMARK    2  A    between atoms: C_8  and  O_9
REMARK    3  A    between atoms: O_9  and  C_10
REMARK    4  A    between atoms: C_10  and  P_11
REMARK    5  A    between atoms: P_11  and  O_13
REMARK    6  A    between atoms: P_11  and  O_14
REMARK    7  A    between atoms: C_15  and  O_16
REMARK    8  A    between atoms: C_17  and  O_18
REMARK                            x       y       z     vdW  Elec       q    Type
REMARK                         _______ _______ _______ _____ _____    ______ ____
ROOT
ATOM      1  C   UNL     1       3.004   5.938  19.646  0.00  0.00    +0.000 C 
ATOM      2  O   UNL     1       4.296   5.740  19.040  0.00  0.00    +0.000 OA
ATOM      3  C   UNL     1       4.334   4.423  18.469  0.00  0.00    +0.000 C 
ATOM      4  C   UNL     1       3.104   3.673  18.994  0.00  0.00    +0.000 C 
ATOM      5  C   UNL     1       2.098   4.796  19.163  0.00  0.00    +0.000 C 
ENDROOT
BRANCH   1  10
ATOM      6  O   UNL     1       0.591  10.673  18.409  0.00  0.00    +0.000 OA
ATOM      7  C   UNL     1       1.187   9.645  18.705  0.00  0.00    +0.000 A 
ATOM      8  C   UNL     1       2.085   8.984  17.744  0.00  0.00    +0.000 A 
ATOM      9  C   UNL     1       2.669   7.835  18.090  0.00  0.00    +0.000 A 
ATOM     10  N   UNL     1       2.475   7.260  19.332  0.00  0.00    +0.000 N 
ATOM     11  C   UNL     1       1.647   7.848  20.284  0.00  0.00    +0.000 A 
ATOM     12  O   UNL     1       1.433   7.376  21.399  0.00  0.00    +0.000 OA
ATOM     13  N   UNL     1       1.062   9.030  19.917  0.00  0.00    +0.000 N 
ATOM     14  H   UNL     1       0.443   9.457  20.588  0.00  0.00    +0.000 HD
ENDBRANCH   1  10
BRANCH   4  15
ATOM     15  O   UNL     1       3.338   3.057  20.276  0.00  0.00    +0.000 OA
ATOM     16  H   UNL     1       4.276   3.160  20.522  0.00  0.00    +0.000 HD
ENDBRANCH   4  15
BRANCH   5  17
ATOM     17  O   UNL     1       1.057   4.447  20.069  0.00  0.00    +0.000 OA
ATOM     18  H   UNL     1       0.257   4.273  19.534  0.00  0.00    +0.000 HD
ENDBRANCH   5  17
BRANCH   3  19
ATOM     19  O   UNL     1       4.315   4.509  17.041  0.00  0.00    +0.000 OA
BRANCH  19  20
ATOM     20  C   UNL     1       5.290   5.478  16.594  0.00  0.00    +0.000 C 
BRANCH  20  21
ATOM     21  P   UNL     1       6.799   4.621  16.144  0.00  0.00    +0.000 P 
ATOM     22  O   UNL     1       7.820   4.459  17.221  0.00  0.00    +0.000 OA
BRANCH  21  23
ATOM     23  O   UNL     1       6.313   3.243  15.480  0.00  0.00    +0.000 OA
ATOM     24  H   UNL     1       6.601   2.466  16.000  0.00  0.00    +0.000 HD
ENDBRANCH  21  23
BRANCH  21  25
ATOM     25  O   UNL     1       7.373   5.369  14.846  0.00  0.00    +0.000 OA
ATOM     26  H   UNL     1       7.905   6.145  15.113  0.00  0.00    +0.000 HD
ENDBRANCH  21  25
ENDBRANCH  20  21
ENDBRANCH  19  20
ENDBRANCH   3  19
TORSDOF 8
ENDMDL
MODEL 6
REMARK VINA RESULT:      -6.7      1.205      1.505
REMARK  Name = 
REMARK  8 active torsions:
REMARK  status: ('A' for Active; 'I' for Inactive)
REMARK    1  A    between atoms: N_5  and  C_6
REMARK    2  A    between atoms: C_8  and  O_9
REMARK    3  A    between atoms: O_9  and  C_10
REMARK    4  A    between atoms: C_10  and  P_11
REMARK    5  A    between atoms: P_11  and  O_13
REMARK    6  A    between atoms: P_11  and  O_14
REMARK    7  A    between atoms: C_15  and  O_16
REMARK    8  A    between atoms: C_17  and  O_18
REMARK                            x       y       z     vdW  Elec       q    Type
REMARK                         _______ _______ _______ _____ _____    ______ ____
ROOT
ATOM      1  C   UNL     1       3.392   4.649  19.014  0.00  0.00    +0.000 C 
ATOM      2  O   UNL     1       4.813   4.637  19.251  0.00  0.00    +0.000 OA
ATOM      3  C   UNL     1       5.461   4.057  18.107  0.00  0.00    +0.000 C 
ATOM      4  C   UNL     1       4.360   3.425  17.245  0.00  0.00    +0.000 C 
ATOM      5  C   UNL     1       3.179   4.333  17.526  0.00  0.00    +0.000 C 
ENDROOT
BRANCH   1  10
ATOM      6  O   UNL     1       0.756   9.212  20.430  0.00  0.00    +0.000 OA
ATOM      7  C   UNL     1       1.404   8.215  20.138  0.00  0.00    +0.000 A 
ATOM      8  C   UNL     1       2.158   8.142  18.876  0.00  0.00    +0.000 A 
ATOM      9  C   UNL     1       2.803   7.014  18.573  0.00  0.00    +0.000 A 
ATOM     10  N   UNL     1       2.804   5.920  19.419  0.00  0.00    +0.000 N 
ATOM     11  C   UNL     1       2.119   5.939  20.631  0.00  0.00    +0.000 A 
ATOM     12  O   UNL     1       2.080   4.994  21.416  0.00  0.00    +0.000 OA
ATOM     13  N   UNL     1       1.469   7.106  20.931  0.00  0.00    +0.000 N 
ATOM     14  H   UNL     1       0.952   7.127  21.795  0.00  0.00    +0.000 HD
ENDBRANCH   1  10
BRANCH   4  15
ATOM     15  O   UNL     1       4.032   2.085  17.663  0.00  0.00    +0.000 OA
ATOM     16  H   UNL     1       3.074   2.019  17.829  0.00  0.00    +0.000 HD
ENDBRANCH   4  15
BRANCH   5  17
ATOM     17  O   UNL     1       1.938   3.699  17.232  0.00  0.00    +0.000 OA
ATOM     18  H   UNL     1       1.431   3.658  18.067  0.00  0.00    +0.000 HD
ENDBRANCH   5  17
BRANCH   3  19
ATOM     19  O   UNL     1       6.169   5.066  17.382  0.00  0.00    +0.000 OA
BRANCH  19  20
ATOM     20  C   UNL     1       7.180   4.454  16.550  0.00  0.00    +0.000 C 
BRANCH  20  21
ATOM     21  P   UNL     1       6.859   4.876  14.837  0.00  0.00    +0.000 P 
ATOM     22  O   UNL     1       7.988   5.487  14.078  0.00  0.00    +0.000 OA
BRANCH  21  23
ATOM     23  O   UNL     1       6.270   3.534  14.181  0.00  0.00    +0.000 OA
ATOM     24  H   UNL     1       5.579   3.725  13.516  0.00  0.00    +0.000 HD
ENDBRANCH  21  23
BRANCH  21  25
ATOM     25  O   UNL     1       5.539   5.788  14.837  0.00  0.00    +0.000 OA
ATOM     26  H   UNL     1       5.422   6.210  13.962  0.00  0.00    +0.000 HD
ENDBRANCH  21  25
ENDBRANCH  20  21
ENDBRANCH  19  20
ENDBRANCH   3  19
TORSDOF 8
ENDMDL
MODEL 7
REMARK VINA RESULT:      -6.7      1.905      4.018
REMARK  Name = 
REMARK  8 active torsions:
REMARK  status: ('A' for Active; 'I' for Inactive)
REMARK    1  A    between atoms: N_5  and  C_6
REMARK    2  A    between atoms: C_8  and  O_9
REMARK    3  A    between atoms: O_9  and  C_10
REMARK    4  A    between atoms: C_10  and  P_11
REMARK    5  A    between atoms: P_11  and  O_13
REMARK    6  A    between atoms: P_11  and  O_14
REMARK    7  A    between atoms: C_15  and  O_16
REMARK    8  A    between atoms: C_17  and  O_18
REMARK                            x       y       z     vdW  Elec       q    Type
REMARK                         _______ _______ _______ _____ _____    ______ ____
ROOT
ATOM      1  C   UNL     1       2.333   5.886  18.420  0.00  0.00    +0.000 C 
ATOM      2  O   UNL     1       3.391   5.571  17.495  0.00  0.00    +0.000 OA
ATOM      3  C   UNL     1       4.185   6.750  17.293  0.00  0.00    +0.000 C 
ATOM      4  C   UNL     1       3.408   7.921  17.908  0.00  0.00    +0.000 C 
ATOM      5  C   UNL     1       2.669   7.246  19.047  0.00  0.00    +0.000 C 
ENDROOT
BRANCH   1  10
ATOM      6  O   UNL     1       1.255   2.076  22.175  0.00  0.00    +0.000 OA
ATOM      7  C   UNL     1       1.555   2.899  21.319  0.00  0.00    +0.000 A 
ATOM      8  C   UNL     1       2.403   4.057  21.644  0.00  0.00    +0.000 A 
ATOM      9  C   UNL     1       2.657   4.959  20.694  0.00  0.00    +0.000 A 
ATOM     10  N   UNL     1       2.166   4.826  19.408  0.00  0.00    +0.000 N 
ATOM     11  C   UNL     1       1.370   3.744  19.042  0.00  0.00    +0.000 A 
ATOM     12  O   UNL     1       0.902   3.581  17.918  0.00  0.00    +0.000 OA
ATOM     13  N   UNL     1       1.126   2.823  20.026  0.00  0.00    +0.000 N 
ATOM     14  H   UNL     1       0.534   2.046  19.782  0.00  0.00    +0.000 HD
ENDBRANCH   1  10
BRANCH   4  15
ATOM     15  O   UNL     1       2.447   8.486  16.995  0.00  0.00    +0.000 OA
ATOM     16  H   UNL     1       2.237   7.838  16.298  0.00  0.00    +0.000 HD
ENDBRANCH   4  15
BRANCH   5  17
ATOM     17  O   UNL     1       1.535   7.998  19.466  0.00  0.00    +0.000 OA
ATOM     18  H   UNL     1       1.865   8.724  20.034  0.00  0.00    +0.000 HD
ENDBRANCH   5  17
BRANCH   3  19
ATOM     19  O   UNL     1       5.462   6.594  17.919  0.00  0.00    +0.000 OA
BRANCH  19  20
ATOM     20  C   UNL     1       5.784   5.189  18.033  0.00  0.00    +0.000 C 
BRANCH  20  21
ATOM     21  P   UNL     1       6.988   4.764  16.774  0.00  0.00    +0.000 P 
ATOM     22  O   UNL     1       7.442   5.873  15.884  0.00  0.00    +0.000 OA
BRANCH  21  23
ATOM     23  O   UNL     1       8.174   4.025  17.565  0.00  0.00    +0.000 OA
ATOM     24  H   UNL     1       9.000   4.548  17.557  0.00  0.00    +0.000 HD
ENDBRANCH  21  23
BRANCH  21  25
ATOM     25  O   UNL     1       6.376   3.522  15.965  0.00  0.00    +0.000 OA
ATOM     26  H   UNL     1       6.383   2.720  16.525  0.00  0.00    +0.000 HD
ENDBRANCH  21  25
ENDBRANCH  20  21
ENDBRANCH  19  20
ENDBRANCH   3  19
TORSDOF 8
ENDMDL
MODEL 8
REMARK VINA RESULT:      -6.6      2.502      4.575
REMARK  Name = 
REMARK  8 active torsions:
REMARK  status: ('A' for Active; 'I' for Inactive)
REMARK    1  A    between atoms: N_5  and  C_6
REMARK    2  A    between atoms: C_8  and  O_9
REMARK    3  A    between atoms: O_9  and  C_10
REMARK    4  A    between atoms: C_10  and  P_11
REMARK    5  A    between atoms: P_11  and  O_13
REMARK    6  A    between atoms: P_11  and  O_14
REMARK    7  A    between atoms: C_15  and  O_16
REMARK    8  A    between atoms: C_17  and  O_18
REMARK                            x       y       z     vdW  Elec       q    Type
REMARK                         _______ _______ _______ _____ _____    ______ ____
ROOT
ATOM      1  C   UNL     1       4.916   5.087  17.275  0.00  0.00    +0.000 C 
ATOM      2  O   UNL     1       5.093   5.312  15.863  0.00  0.00    +0.000 OA
ATOM      3  C   UNL     1       6.472   5.084  15.535  0.00  0.00    +0.000 C 
ATOM      4  C   UNL     1       7.236   4.988  16.862  0.00  0.00    +0.000 C 
ATOM      5  C   UNL     1       6.189   4.397  17.786  0.00  0.00    +0.000 C 
ENDROOT
BRANCH   1  10
ATOM      6  O   UNL     1       0.460   2.289  18.722  0.00  0.00    +0.000 OA
ATOM      7  C   UNL     1       1.439   2.914  18.333  0.00  0.00    +0.000 A 
ATOM      8  C   UNL     1       2.644   2.216  17.856  0.00  0.00    +0.000 A 
ATOM      9  C   UNL     1       3.708   2.936  17.496  0.00  0.00    +0.000 A 
ATOM     10  N   UNL     1       3.704   4.318  17.535  0.00  0.00    +0.000 N 
ATOM     11  C   UNL     1       2.587   5.030  17.965  0.00  0.00    +0.000 A 
ATOM     12  O   UNL     1       2.533   6.256  18.027  0.00  0.00    +0.000 OA
ATOM     13  N   UNL     1       1.501   4.277  18.323  0.00  0.00    +0.000 N 
ATOM     14  H   UNL     1       0.693   4.777  18.656  0.00  0.00    +0.000 HD
ENDBRANCH   1  10
BRANCH   4  15
ATOM     15  O   UNL     1       7.632   6.279  17.367  0.00  0.00    +0.000 OA
ATOM     16  H   UNL     1       7.843   6.870  16.621  0.00  0.00    +0.000 HD
ENDBRANCH   4  15
BRANCH   5  17
ATOM     17  O   UNL     1       6.484   4.649  19.156  0.00  0.00    +0.000 OA
ATOM     18  H   UNL     1       6.924   3.848  19.507  0.00  0.00    +0.000 HD
ENDBRANCH   5  17
BRANCH   3  19
ATOM     19  O   UNL     1       6.603   3.878  14.777  0.00  0.00    +0.000 OA
BRANCH  19  20
ATOM     20  C   UNL     1       5.422   3.678  13.966  0.00  0.00    +0.000 C 
BRANCH  20  21
ATOM     21  P   UNL     1       5.919   3.471  12.256  0.00  0.00    +0.000 P 
ATOM     22  O   UNL     1       7.126   4.230  11.816  0.00  0.00    +0.000 OA
BRANCH  21  23
ATOM     23  O   UNL     1       6.022   1.883  12.042  0.00  0.00    +0.000 OA
ATOM     24  H   UNL     1       5.399   1.566  11.358  0.00  0.00    +0.000 HD
ENDBRANCH  21  23
BRANCH  21  25
ATOM     25  O   UNL     1       4.622   3.788  11.368  0.00  0.00    +0.000 OA
ATOM     26  H   UNL     1       3.965   3.069  11.463  0.00  0.00    +0.000 HD
ENDBRANCH  21  25
ENDBRANCH  20  21
ENDBRANCH  19  20
ENDBRANCH   3  19
TORSDOF 8
ENDMDL
MODEL 9
REMARK VINA RESULT:      -6.5      0.960      1.263
REMARK  Name = 
REMARK  8 active torsions:
REMARK  status: ('A' for Active; 'I' for Inactive)
REMARK    1  A    between atoms: N_5  and  C_6
REMARK    2  A    between atoms: C_8  and  O_9
REMARK    3  A    between atoms: O_9  and  C_10
REMARK    4  A    between atoms: C_10  and  P_11
REMARK    5  A    between atoms: P_11  and  O_13
REMARK    6  A    between atoms: P_11  and  O_14
REMARK    7  A    between atoms: C_15  and  O_16
REMARK    8  A    between atoms: C_17  and  O_18
REMARK                            x       y       z     vdW  Elec       q    Type
REMARK                         _______ _______ _______ _____ _____    ______ ____
ROOT
ATOM      1  C   UNL     1       3.305   4.991  18.987  0.00  0.00    +0.000 C 
ATOM      2  O   UNL     1       4.585   4.834  18.345  0.00  0.00    +0.000 OA
ATOM      3  C   UNL     1       4.533   3.668  17.507  0.00  0.00    +0.000 C 
ATOM      4  C   UNL     1       3.248   2.914  17.871  0.00  0.00    +0.000 C 
ATOM      5  C   UNL     1       2.324   4.045  18.280  0.00  0.00    +0.000 C 
ENDROOT
BRANCH   1  10
ATOM      6  O   UNL     1       1.248  10.041  18.783  0.00  0.00    +0.000 OA
ATOM      7  C   UNL     1       1.766   8.934  18.856  0.00  0.00    +0.000 A 
ATOM      8  C   UNL     1       2.651   8.438  17.789  0.00  0.00    +0.000 A 
ATOM      9  C   UNL     1       3.147   7.203  17.883  0.00  0.00    +0.000 A 
ATOM     10  N   UNL     1       2.873   6.384  18.963  0.00  0.00    +0.000 N 
ATOM     11  C   UNL     1       2.054   6.807  20.007  0.00  0.00    +0.000 A 
ATOM     12  O   UNL     1       1.773   6.118  20.985  0.00  0.00    +0.000 OA
ATOM     13  N   UNL     1       1.560   8.079  19.899  0.00  0.00    +0.000 N 
ATOM     14  H   UNL     1       0.948   8.391  20.636  0.00  0.00    +0.000 HD
ENDBRANCH   1  10
BRANCH   4  15
ATOM     15  O   UNL     1       3.427   2.026  18.993  0.00  0.00    +0.000 OA
ATOM     16  H   UNL     1       3.687   2.540  19.779  0.00  0.00    +0.000 HD
ENDBRANCH   4  15
BRANCH   5  17
ATOM     17  O   UNL     1       1.253   3.587  19.100  0.00  0.00    +0.000 OA
ATOM     18  H   UNL     1       0.710   4.369  19.325  0.00  0.00    +0.000 HD
ENDBRANCH   5  17
BRANCH   3  19
ATOM     19  O   UNL     1       4.531   4.054  16.130  0.00  0.00    +0.000 OA
BRANCH  19  20
ATOM     20  C   UNL     1       5.803   3.726  15.526  0.00  0.00    +0.000 C 
BRANCH  20  21
ATOM     21  P   UNL     1       6.893   5.144  15.656  0.00  0.00    +0.000 P 
ATOM     22  O   UNL     1       7.830   5.371  14.517  0.00  0.00    +0.000 OA
BRANCH  21  23
ATOM     23  O   UNL     1       5.924   6.385  15.973  0.00  0.00    +0.000 OA
ATOM     24  H   UNL     1       6.190   6.856  16.788  0.00  0.00    +0.000 HD
ENDBRANCH  21  23
BRANCH  21  25
ATOM     25  O   UNL     1       7.644   5.008  17.067  0.00  0.00    +0.000 OA
ATOM     26  H   UNL     1       7.365   4.186  17.518  0.00  0.00    +0.000 HD
ENDBRANCH  21  25
ENDBRANCH  20  21
ENDBRANCH  19  20
ENDBRANCH   3  19
TORSDOF 8
ENDMDL
