MODEL 1
REMARK VINA RESULT:      -7.3      0.000      0.000
REMARK  Name = 
REMARK  3 active torsions:
REMARK  status: ('A' for Active; 'I' for Inactive)
REMARK    1  A    between atoms: C_1  and  N_2
REMARK    2  A    between atoms: N_2  and  C_3
REMARK    3  A    between atoms: C_3  and  C_4
REMARK                            x       y       z     vdW  Elec       q    Type
REMARK                         _______ _______ _______ _____ _____    ______ ____
ROOT
ATOM      1  C   UNL     1       2.580   5.970  18.395  0.00  0.00    +0.000 C 
ATOM      2  C   UNL     1       2.190   4.671  19.155  0.00  0.00    +0.000 A 
ATOM      3  C   UNL     1       1.506   4.671  20.388  0.00  0.00    +0.000 A 
ATOM      4  C   UNL     1       1.144   3.477  21.020  0.00  0.00    +0.000 A 
ATOM      5  C   UNL     1       1.436   2.255  20.431  0.00  0.00    +0.000 A 
ATOM      6  C   UNL     1       2.076   2.226  19.198  0.00  0.00    +0.000 A 
ATOM      7  C   UNL     1       2.452   3.420  18.557  0.00  0.00    +0.000 A 
ATOM      8  C   UNL     1       3.084   3.341  17.192  0.00  0.00    +0.000 C 
ATOM      9  C   UNL     1       4.018   4.484  16.898  0.00  0.00    +0.000 A 
ATOM     10  C   UNL     1       5.075   4.275  15.990  0.00  0.00    +0.000 A 
ATOM     11  C   UNL     1       5.935   5.312  15.650  0.00  0.00    +0.000 A 
ATOM     12  C   UNL     1       5.737   6.567  16.202  0.00  0.00    +0.000 A 
ATOM     13  C   UNL     1       4.686   6.781  17.098  0.00  0.00    +0.000 A 
ATOM     14  C   UNL     1       3.804   5.753  17.475  0.00  0.00    +0.000 A 
ENDROOT
BRANCH   1  15
ATOM     15  C   UNL     1       2.673   7.214  19.357  0.00  0.00    +0.000 C 
BRANCH  15  17
ATOM     16  C   UNL     1       1.744   8.854  17.784  0.00  0.00    +0.000 C 
ATOM     17  N   UNL     1       1.779   8.368  19.154  0.00  0.00    +0.000 NA
ATOM     18  H   UNL     1       0.837   8.126  19.460  0.00  0.00    +0.000 HD
ENDBRANCH  15  17
ENDBRANCH   1  15
TORSDOF 2
ENDMDL
MODEL 2
REMARK VINA RESULT:      -7.1      0.956      4.558
REMARK  Name = 
REMARK  3 active torsions:
REMARK  status: ('A' for Active; 'I' for Inactive)
REMARK    1  A    between atoms: C_1  and  N_2
REMARK    2  A    between atoms: N_2  and  C_3
REMARK    3  A    between atoms: C_3  and  C_4
REMARK                            x       y       z     vdW  Elec       q    Type
REMARK                         _______ _______ _______ _____ _____    ______ ____
ROOT
ATOM      1  C   UNL     1       3.303   5.702  18.995  0.00  0.00    +0.000 C 
ATOM      2  C   UNL     1       4.060   5.681  17.637  0.00  0.00    +0.000 A 
ATOM      3  C   UNL     1       4.446   6.848  16.947  0.00  0.00    +0.000 A 
ATOM      4  C   UNL     1       5.158   6.782  15.744  0.00  0.00    +0.000 A 
ATOM      5  C   UNL     1       5.518   5.553  15.209  0.00  0.00    +0.000 A 
ATOM      6  C   UNL     1       5.183   4.387  15.887  0.00  0.00    +0.000 A 
ATOM      7  C   UNL     1       4.461   4.442  17.093  0.00  0.00    +0.000 A 
ATOM      8  C   UNL     1       4.178   3.156  17.825  0.00  0.00    +0.000 C 
ATOM      9  C   UNL     1       2.919   3.202  18.649  0.00  0.00    +0.000 A 
ATOM     10  C   UNL     1       2.230   1.998  18.897  0.00  0.00    +0.000 A 
ATOM     11  C   UNL     1       1.091   1.982  19.691  0.00  0.00    +0.000 A 
ATOM     12  C   UNL     1       0.639   3.164  20.255  0.00  0.00    +0.000 A 
ATOM     13  C   UNL     1       1.322   4.360  20.018  0.00  0.00    +0.000 A 
ATOM     14  C   UNL     1       2.471   4.417  19.210  0.00  0.00    +0.000 A 
ENDROOT
BRANCH   1  15
ATOM     15  C   UNL     1       2.524   7.053  19.217  0.00  0.00    +0.000 C 
BRANCH  15  17
ATOM     16  C   UNL     1       1.219   8.573  20.637  0.00  0.00    +0.000 C 
ATOM     17  N   UNL     1       2.189   7.491  20.585  0.00  0.00    +0.000 NA
ATOM     18  H   UNL     1       1.850   6.695  21.122  0.00  0.00    +0.000 HD
ENDBRANCH  15  17
ENDBRANCH   1  15
TORSDOF 2
ENDMDL
MODEL 3
REMARK VINA RESULT:      -7.0      1.069      1.131
REMARK  Name = 
REMARK  3 active torsions:
REMARK  status: ('A' for Active; 'I' for Inactive)
REMARK    1  A    between atoms: C_1  and  N_2
REMARK    2  A    between atoms: N_2  and  C_3
REMARK    3  A    between atoms: C_3  and  C_4
REMARK                            x       y       z     vdW  Elec       q    Type
REMARK                         _______ _______ _______ _____ _____    ______ ____
ROOT
ATOM      1  C   UNL     1       3.018   5.865  17.815  0.00  0.00    +0.000 C 
ATOM      2  C   UNL     1       2.504   4.520  18.401  0.00  0.00    +0.000 A 
ATOM      3  C   UNL     1       1.381   4.423  19.247  0.00  0.00    +0.000 A 
ATOM      4  C   UNL     1       0.932   3.187  19.725  0.00  0.00    +0.000 A 
ATOM      5  C   UNL     1       1.581   2.016  19.356  0.00  0.00    +0.000 A 
ATOM      6  C   UNL     1       2.669   2.079  18.494  0.00  0.00    +0.000 A 
ATOM      7  C   UNL     1       3.132   3.318  18.015  0.00  0.00    +0.000 A 
ATOM      8  C   UNL     1       4.272   3.331  17.030  0.00  0.00    +0.000 C 
ATOM      9  C   UNL     1       5.105   4.583  17.096  0.00  0.00    +0.000 A 
ATOM     10  C   UNL     1       6.458   4.516  16.708  0.00  0.00    +0.000 A 
ATOM     11  C   UNL     1       7.254   5.654  16.707  0.00  0.00    +0.000 A 
ATOM     12  C   UNL     1       6.702   6.870  17.078  0.00  0.00    +0.000 A 
ATOM     13  C   UNL     1       5.360   6.943  17.458  0.00  0.00    +0.000 A 
ATOM     14  C   UNL     1       4.527   5.810  17.484  0.00  0.00    +0.000 A 
ENDROOT
BRANCH   1  15
ATOM     15  C   UNL     1       2.562   7.101  18.679  0.00  0.00    +0.000 C 
BRANCH  15  17
ATOM     16  C   UNL     1       1.415   9.257  18.936  0.00  0.00    +0.000 C 
ATOM     17  N   UNL     1       2.002   8.294  18.018  0.00  0.00    +0.000 NA
ATOM     18  H   UNL     1       2.725   8.743  17.459  0.00  0.00    +0.000 HD
ENDBRANCH  15  17
ENDBRANCH   1  15
TORSDOF 2
ENDMDL
MODEL 4
REMARK VINA RESULT:      -7.0      0.748      4.508
REMARK  Name = 
REMARK  3 active torsions:
REMARK  status: ('A' for Active; 'I' for Inactive)
REMARK    1  A    between atoms: C_1  and  N_2
REMARK    2  A    between atoms: N_2  and  C_3
REMARK    3  A    between atoms: C_3  and  C_4
REMARK                            x       y       z     vdW  Elec       q    Type
REMARK                         _______ _______ _______ _____ _____    ______ ____
ROOT
ATOM      1  C   UNL     1       3.600   5.779  18.763  0.00  0.00    +0.000 C 
ATOM      2  C   UNL     1       4.290   5.596  17.382  0.00  0.00    +0.000 A 
ATOM      3  C   UNL     1       4.766   6.672  16.605  0.00  0.00    +0.000 A 
ATOM      4  C   UNL     1       5.413   6.459  15.383  0.00  0.00    +0.000 A 
ATOM      5  C   UNL     1       5.618   5.168  14.914  0.00  0.00    +0.000 A 
ATOM      6  C   UNL     1       5.193   4.088  15.677  0.00  0.00    +0.000 A 
ATOM      7  C   UNL     1       4.534   4.291  16.904  0.00  0.00    +0.000 A 
ATOM      8  C   UNL     1       4.151   3.089  17.727  0.00  0.00    +0.000 C 
ATOM      9  C   UNL     1       2.942   3.318  18.593  0.00  0.00    +0.000 A 
ATOM     10  C   UNL     1       2.142   2.212  18.943  0.00  0.00    +0.000 A 
ATOM     11  C   UNL     1       1.043   2.366  19.778  0.00  0.00    +0.000 A 
ATOM     12  C   UNL     1       0.743   3.621  20.283  0.00  0.00    +0.000 A 
ATOM     13  C   UNL     1       1.537   4.721  19.944  0.00  0.00    +0.000 A 
ATOM     14  C   UNL     1       2.648   4.605  19.091  0.00  0.00    +0.000 A 
ENDROOT
BRANCH   1  15
ATOM     15  C   UNL     1       2.977   7.217  18.928  0.00  0.00    +0.000 C 
BRANCH  15  17
ATOM     16  C   UNL     1       1.893   9.148  17.869  0.00  0.00    +0.000 C 
ATOM     17  N   UNL     1       1.977   7.700  17.958  0.00  0.00    +0.000 NA
ATOM     18  H   UNL     1       2.178   7.307  17.040  0.00  0.00    +0.000 HD
ENDBRANCH  15  17
ENDBRANCH   1  15
TORSDOF 2
ENDMDL
MODEL 5
REMARK VINA RESULT:      -6.9      1.146      4.582
REMARK  Name = 
REMARK  3 active torsions:
REMARK  status: ('A' for Active; 'I' for Inactive)
REMARK    1  A    between atoms: C_1  and  N_2
REMARK    2  A    between atoms: N_2  and  C_3
REMARK    3  A    between atoms: C_3  and  C_4
REMARK                            x       y       z     vdW  Elec       q    Type
REMARK                         _______ _______ _______ _____ _____    ______ ____
ROOT
ATOM      1  C   UNL     1       3.380   6.184  18.718  0.00  0.00    +0.000 C 
ATOM      2  C   UNL     1       4.387   5.788  17.601  0.00  0.00    +0.000 A 
ATOM      3  C   UNL     1       4.624   6.577  16.457  0.00  0.00    +0.000 A 
ATOM      4  C   UNL     1       5.567   6.200  15.494  0.00  0.00    +0.000 A 
ATOM      5  C   UNL     1       6.309   5.039  15.656  0.00  0.00    +0.000 A 
ATOM      6  C   UNL     1       6.122   4.261  16.793  0.00  0.00    +0.000 A 
ATOM      7  C   UNL     1       5.172   4.627  17.764  0.00  0.00    +0.000 A 
ATOM      8  C   UNL     1       5.053   3.790  19.010  0.00  0.00    +0.000 C 
ATOM      9  C   UNL     1       3.675   3.812  19.616  0.00  0.00    +0.000 A 
ATOM     10  C   UNL     1       3.251   2.701  20.372  0.00  0.00    +0.000 A 
ATOM     11  C   UNL     1       2.007   2.695  20.990  0.00  0.00    +0.000 A 
ATOM     12  C   UNL     1       1.183   3.802  20.870  0.00  0.00    +0.000 A 
ATOM     13  C   UNL     1       1.601   4.909  20.126  0.00  0.00    +0.000 A 
ATOM     14  C   UNL     1       2.847   4.946  19.476  0.00  0.00    +0.000 A 
ENDROOT
BRANCH   1  15
ATOM     15  C   UNL     1       2.277   7.179  18.194  0.00  0.00    +0.000 C 
BRANCH  15  17
ATOM     16  C   UNL     1       1.617   9.537  18.013  0.00  0.00    +0.000 C 
ATOM     17  N   UNL     1       2.057   8.462  18.887  0.00  0.00    +0.000 NA
ATOM     18  H   UNL     1       1.383   8.329  19.640  0.00  0.00    +0.000 HD
ENDBRANCH  15  17
ENDBRANCH   1  15
TORSDOF 2
ENDMDL
MODEL 6
REMARK VINA RESULT:      -6.8      2.096      5.488
REMARK  Name = 
REMARK  3 active torsions:
REMARK  status: ('A' for Active; 'I' for Inactive)
REMARK    1  A    between atoms: C_1  and  N_2
REMARK    2  A    between atoms: N_2  and  C_3
REMARK    3  A    between atoms: C_3  and  C_4
REMARK                            x       y       z     vdW  Elec       q    Type
REMARK                         _______ _______ _______ _____ _____    ______ ____
ROOT
ATOM      1  C   UNL     1       3.010   3.981  17.472  0.00  0.00    +0.000 C 
ATOM      2  C   UNL     1       4.355   4.479  16.872  0.00  0.00    +0.000 A 
ATOM      3  C   UNL     1       5.259   3.638  16.193  0.00  0.00    +0.000 A 
ATOM      4  C   UNL     1       6.443   4.136  15.638  0.00  0.00    +0.000 A 
ATOM      5  C   UNL     1       6.746   5.488  15.730  0.00  0.00    +0.000 A 
ATOM      6  C   UNL     1       5.855   6.347  16.362  0.00  0.00    +0.000 A 
ATOM      7  C   UNL     1       4.666   5.854  16.930  0.00  0.00    +0.000 A 
ATOM      8  C   UNL     1       3.700   6.833  17.546  0.00  0.00    +0.000 C 
ATOM      9  C   UNL     1       2.873   6.239  18.655  0.00  0.00    +0.000 A 
ATOM     10  C   UNL     1       2.391   7.092  19.669  0.00  0.00    +0.000 A 
ATOM     11  C   UNL     1       1.584   6.599  20.687  0.00  0.00    +0.000 A 
ATOM     12  C   UNL     1       1.242   5.256  20.694  0.00  0.00    +0.000 A 
ATOM     13  C   UNL     1       1.713   4.408  19.688  0.00  0.00    +0.000 A 
ATOM     14  C   UNL     1       2.541   4.868  18.649  0.00  0.00    +0.000 A 
ENDROOT
BRANCH   1  15
ATOM     15  C   UNL     1       3.029   2.433  17.762  0.00  0.00    +0.000 C 
BRANCH  15  17
ATOM     16  C   UNL     1       4.320   2.090  19.822  0.00  0.00    +0.000 C 
ATOM     17  N   UNL     1       4.209   1.819  18.398  0.00  0.00    +0.000 NA
ATOM     18  H   UNL     1       4.196   0.813  18.237  0.00  0.00    +0.000 HD
ENDBRANCH  15  17
ENDBRANCH   1  15
TORSDOF 2
ENDMDL
MODEL 7
REMARK VINA RESULT:      -6.8      1.941      5.320
REMARK  Name = 
REMARK  3 active torsions:
REMARK  status: ('A' for Active; 'I' for Inactive)
REMARK    1  A    between atoms: C_1  and  N_2
REMARK    2  A    between atoms: N_2  and  C_3
REMARK    3  A    between atoms: C_3  and  C_4
REMARK                            x       y       z     vdW  Elec       q    Type
REMARK                         _______ _______ _______ _____ _____    ______ ____
ROOT
ATOM      1  C   UNL     1       2.889   4.302  18.052  0.00  0.00    +0.000 C 
ATOM      2  C   UNL     1       4.138   4.677  17.206  0.00  0.00    +0.000 A 
ATOM      3  C   UNL     1       5.024   3.721  16.668  0.00  0.00    +0.000 A 
ATOM      4  C   UNL     1       6.118   4.101  15.882  0.00  0.00    +0.000 A 
ATOM      5  C   UNL     1       6.344   5.440  15.596  0.00  0.00    +0.000 A 
ATOM      6  C   UNL     1       5.465   6.401  16.082  0.00  0.00    +0.000 A 
ATOM      7  C   UNL     1       4.367   6.030  16.880  0.00  0.00    +0.000 A 
ATOM      8  C   UNL     1       3.405   7.099  17.328  0.00  0.00    +0.000 C 
ATOM      9  C   UNL     1       2.725   6.783  18.633  0.00  0.00    +0.000 A 
ATOM     10  C   UNL     1       2.288   7.850  19.443  0.00  0.00    +0.000 A 
ATOM     11  C   UNL     1       1.614   7.609  20.633  0.00  0.00    +0.000 A 
ATOM     12  C   UNL     1       1.357   6.302  21.016  0.00  0.00    +0.000 A 
ATOM     13  C   UNL     1       1.783   5.240  20.213  0.00  0.00    +0.000 A 
ATOM     14  C   UNL     1       2.479   5.446  19.009  0.00  0.00    +0.000 A 
ENDROOT
BRANCH   1  15
ATOM     15  C   UNL     1       3.031   2.883  18.721  0.00  0.00    +0.000 C 
BRANCH  15  17
ATOM     16  C   UNL     1       0.687   2.152  18.755  0.00  0.00    +0.000 C 
ATOM     17  N   UNL     1       2.058   1.821  18.403  0.00  0.00    +0.000 NA
ATOM     18  H   UNL     1       2.117   1.593  17.412  0.00  0.00    +0.000 HD
ENDBRANCH  15  17
ENDBRANCH   1  15
TORSDOF 2
ENDMDL
MODEL 8
REMARK VINA RESULT:      -6.7      1.628      4.046
REMARK  Name = 
REMARK  3 active torsions:
REMARK  status: ('A' for Active; 'I' for Inactive)
REMARK    1  A    between atoms: C_1  and  N_2
REMARK    2  A    between atoms: N_2  and  C_3
REMARK    3  A    between atoms: C_3  and  C_4
REMARK                            x       y       z     vdW  Elec       q    Type
REMARK                         _______ _______ _______ _____ _____    ______ ____
ROOT
ATOM      1  C   UNL     1       3.592   5.814  18.505  0.00  0.00    +0.000 C 
ATOM      2  C   UNL     1       2.845   4.617  19.157  0.00  0.00    +0.000 A 
ATOM      3  C   UNL     1       3.057   3.275  18.782  0.00  0.00    +0.000 A 
ATOM      4  C   UNL     1       2.388   2.225  19.421  0.00  0.00    +0.000 A 
ATOM      5  C   UNL     1       1.506   2.485  20.461  0.00  0.00    +0.000 A 
ATOM      6  C   UNL     1       1.306   3.796  20.876  0.00  0.00    +0.000 A 
ATOM      7  C   UNL     1       1.968   4.859  20.235  0.00  0.00    +0.000 A 
ATOM      8  C   UNL     1       1.771   6.257  20.764  0.00  0.00    +0.000 C 
ATOM      9  C   UNL     1       1.920   7.321  19.710  0.00  0.00    +0.000 A 
ATOM     10  C   UNL     1       1.229   8.538  19.876  0.00  0.00    +0.000 A 
ATOM     11  C   UNL     1       1.372   9.568  18.955  0.00  0.00    +0.000 A 
ATOM     12  C   UNL     1       2.216   9.396  17.870  0.00  0.00    +0.000 A 
ATOM     13  C   UNL     1       2.909   8.194  17.703  0.00  0.00    +0.000 A 
ATOM     14  C   UNL     1       2.779   7.125  18.608  0.00  0.00    +0.000 A 
ENDROOT
BRANCH   1  15
ATOM     15  C   UNL     1       4.128   5.465  17.065  0.00  0.00    +0.000 C 
BRANCH  15  17
ATOM     16  C   UNL     1       6.339   4.499  16.611  0.00  0.00    +0.000 C 
ATOM     17  N   UNL     1       5.542   5.709  16.728  0.00  0.00    +0.000 NA
ATOM     18  H   UNL     1       5.597   6.245  15.863  0.00  0.00    +0.000 HD
ENDBRANCH  15  17
ENDBRANCH   1  15
TORSDOF 2
ENDMDL
MODEL 9
REMARK VINA RESULT:      -6.6      2.317      3.910
REMARK  Name = 
REMARK  3 active torsions:
REMARK  status: ('A' for Active; 'I' for Inactive)
REMARK    1  A    between atoms: C_1  and  N_2
REMARK    2  A    between atoms: N_2  and  C_3
REMARK    3  A    between atoms: C_3  and  C_4
REMARK                            x       y       z     vdW  Elec       q    Type
REMARK                         _______ _______ _______ _____ _____    ______ ____
ROOT
ATOM      1  C   UNL     1       4.069   3.397  18.198  0.00  0.00    +0.000 C 
ATOM      2  C   UNL     1       3.080   4.271  19.021  0.00  0.00    +0.000 A 
ATOM      3  C   UNL     1       2.067   3.732  19.839  0.00  0.00    +0.000 A 
ATOM      4  C   UNL     1       1.221   4.555  20.590  0.00  0.00    +0.000 A 
ATOM      5  C   UNL     1       1.376   5.934  20.560  0.00  0.00    +0.000 A 
ATOM      6  C   UNL     1       2.391   6.491  19.790  0.00  0.00    +0.000 A 
ATOM      7  C   UNL     1       3.242   5.672  19.025  0.00  0.00    +0.000 A 
ATOM      8  C   UNL     1       4.368   6.316  18.260  0.00  0.00    +0.000 C 
ATOM      9  C   UNL     1       4.763   5.555  17.023  0.00  0.00    +0.000 A 
ATOM     10  C   UNL     1       5.335   6.264  15.947  0.00  0.00    +0.000 A 
ATOM     11  C   UNL     1       5.758   5.599  14.804  0.00  0.00    +0.000 A 
ATOM     12  C   UNL     1       5.627   4.221  14.730  0.00  0.00    +0.000 A 
ATOM     13  C   UNL     1       5.066   3.513  15.796  0.00  0.00    +0.000 A 
ATOM     14  C   UNL     1       4.615   4.153  16.964  0.00  0.00    +0.000 A 
ENDROOT
BRANCH   1  15
ATOM     15  C   UNL     1       3.489   1.962  17.905  0.00  0.00    +0.000 C 
BRANCH  15  17
ATOM     16  C   UNL     1       4.750   1.081  19.819  0.00  0.00    +0.000 C 
ATOM     17  N   UNL     1       4.081   0.783  18.563  0.00  0.00    +0.000 NA
ATOM     18  H   UNL     1       3.358   0.080  18.714  0.00  0.00    +0.000 HD
ENDBRANCH  15  17
ENDBRANCH   1  15
TORSDOF 2
ENDMDL
