MODEL 1
REMARK VINA RESULT:      -8.1      0.000      0.000
REMARK  Name = 
REMARK  8 active torsions:
REMARK  status: ('A' for Active; 'I' for Inactive)
REMARK    1  A    between atoms: C_1  and  C_2
REMARK    2  A    between atoms: N_4  and  C_5
REMARK    3  A    between atoms: N_7  and  S_8
REMARK    4  A    between atoms: S_8  and  N_11
REMARK    5  A    between atoms: N_11  and  C_12
REMARK    6  A    between atoms: N_11  and  C_13
REMARK    7  A    between atoms: C_13  and  C_14
REMARK    8  A    between atoms: C_21  and  C_22
REMARK                            x       y       z     vdW  Elec       q    Type
REMARK                         _______ _______ _______ _____ _____    ______ ____
ROOT
ATOM      1  C   UNL     1       6.987   5.346  16.237  0.00  0.00    +0.000 C 
ATOM      2  C   UNL     1       6.780   4.449  17.462  0.00  0.00    +0.000 C 
ATOM      3  N   UNL     1       5.333   4.089  17.505  0.00  0.00    +0.000 NA
ATOM      4  C   UNL     1       4.747   4.407  16.175  0.00  0.00    +0.000 C 
ATOM      5  C   UNL     1       5.883   4.915  15.269  0.00  0.00    +0.000 C 
ENDROOT
BRANCH   1   9
ATOM      6  C   UNL     1       7.485   8.779  17.771  0.00  0.00    +0.000 C 
ATOM      7  C   UNL     1       7.611   7.284  17.621  0.00  0.00    +0.000 C 
ATOM      8  O   UNL     1       8.219   6.595  18.433  0.00  0.00    +0.000 OA
ATOM      9  N   UNL     1       6.928   6.774  16.531  0.00  0.00    +0.000 N 
ATOM     10  H   UNL     1       6.572   7.409  15.820  0.00  0.00    +0.000 HD
ENDBRANCH   1   9
BRANCH   3  11
ATOM     11  S   UNL     1       4.511   4.579  18.898  0.00  0.00    +0.000 S 
ATOM     12  O   UNL     1       3.996   3.378  19.514  0.00  0.00    +0.000 OA
ATOM     13  O   UNL     1       5.392   5.468  19.620  0.00  0.00    +0.000 OA
BRANCH  11  14
ATOM     14  N   UNL     1       3.228   5.451  18.289  0.00  0.00    +0.000 NA
ATOM     15  C   UNL     1       1.970   4.834  17.891  0.00  0.00    +0.000 C 
BRANCH  14  16
ATOM     16  C   UNL     1       3.372   6.885  17.960  0.00  0.00    +0.000 C 
BRANCH  16  17
ATOM     17  C   UNL     1       2.363   7.841  18.568  0.00  0.00    +0.000 A 
ATOM     18  C   UNL     1       1.715   8.831  17.817  0.00  0.00    +0.000 A 
ATOM     19  C   UNL     1       0.871   9.757  18.440  0.00  0.00    +0.000 A 
ATOM     20  C   UNL     1       0.630   9.681  19.810  0.00  0.00    +0.000 A 
ATOM     21  C   UNL     1       1.200   8.651  20.555  0.00  0.00    +0.000 A 
ATOM     22  C   UNL     1       2.051   7.732  19.936  0.00  0.00    +0.000 A 
ENDBRANCH  16  17
ENDBRANCH  14  16
ENDBRANCH  11  14
ENDBRANCH   3  11
BRANCH   5  23
ATOM     23  C   UNL     1       6.384   3.873  14.293  0.00  0.00    +0.000 C 
ATOM     24  C   UNL     1       5.659   3.601  13.000  0.00  0.00    +0.000 C 
ATOM     25  C   UNL     1       6.972   4.328  12.977  0.00  0.00    +0.000 C 
ENDBRANCH   5  23
TORSDOF 6
ENDMDL
MODEL 2
REMARK VINA RESULT:      -7.4      1.814      3.435
REMARK  Name = 
REMARK  8 active torsions:
REMARK  status: ('A' for Active; 'I' for Inactive)
REMARK    1  A    between atoms: C_1  and  C_2
REMARK    2  A    between atoms: N_4  and  C_5
REMARK    3  A    between atoms: N_7  and  S_8
REMARK    4  A    between atoms: S_8  and  N_11
REMARK    5  A    between atoms: N_11  and  C_12
REMARK    6  A    between atoms: N_11  and  C_13
REMARK    7  A    between atoms: C_13  and  C_14
REMARK    8  A    between atoms: C_21  and  C_22
REMARK                            x       y       z     vdW  Elec       q    Type
REMARK                         _______ _______ _______ _____ _____    ______ ____
ROOT
ATOM      1  C   UNL     1       5.844   5.291  16.471  0.00  0.00    +0.000 C 
ATOM      2  C   UNL     1       4.673   5.802  17.317  0.00  0.00    +0.000 C 
ATOM      3  N   UNL     1       4.448   4.807  18.406  0.00  0.00    +0.000 NA
ATOM      4  C   UNL     1       5.652   3.936  18.478  0.00  0.00    +0.000 C 
ATOM      5  C   UNL     1       6.672   4.453  17.448  0.00  0.00    +0.000 C 
ENDROOT
BRANCH   1   9
ATOM      6  C   UNL     1       5.712   3.615  13.071  0.00  0.00    +0.000 C 
ATOM      7  C   UNL     1       6.250   4.483  14.181  0.00  0.00    +0.000 C 
ATOM      8  O   UNL     1       7.282   5.132  14.062  0.00  0.00    +0.000 OA
ATOM      9  N   UNL     1       5.437   4.520  15.301  0.00  0.00    +0.000 N 
ATOM     10  H   UNL     1       4.679   3.848  15.393  0.00  0.00    +0.000 HD
ENDBRANCH   1   9
BRANCH   3  11
ATOM     11  S   UNL     1       2.918   4.091  18.421  0.00  0.00    +0.000 S 
ATOM     12  O   UNL     1       2.232   4.565  17.242  0.00  0.00    +0.000 OA
ATOM     13  O   UNL     1       3.114   2.678  18.652  0.00  0.00    +0.000 OA
BRANCH  11  14
ATOM     14  N   UNL     1       2.198   4.772  19.760  0.00  0.00    +0.000 NA
ATOM     15  C   UNL     1       0.939   4.289  20.313  0.00  0.00    +0.000 C 
BRANCH  14  16
ATOM     16  C   UNL     1       2.723   6.021  20.352  0.00  0.00    +0.000 C 
BRANCH  16  17
ATOM     17  C   UNL     1       2.044   7.317  19.951  0.00  0.00    +0.000 A 
ATOM     18  C   UNL     1       2.136   7.846  18.656  0.00  0.00    +0.000 A 
ATOM     19  C   UNL     1       1.581   9.096  18.358  0.00  0.00    +0.000 A 
ATOM     20  C   UNL     1       0.893   9.813  19.335  0.00  0.00    +0.000 A 
ATOM     21  C   UNL     1       0.721   9.262  20.603  0.00  0.00    +0.000 A 
ATOM     22  C   UNL     1       1.283   8.018  20.904  0.00  0.00    +0.000 A 
ENDBRANCH  16  17
ENDBRANCH  14  16
ENDBRANCH  11  14
ENDBRANCH   3  11
BRANCH   5  23
ATOM     23  C   UNL     1       7.786   5.271  18.065  0.00  0.00    +0.000 C 
ATOM     24  C   UNL     1       7.619   6.745  18.328  0.00  0.00    +0.000 C 
ATOM     25  C   UNL     1       7.620   5.780  19.479  0.00  0.00    +0.000 C 
ENDBRANCH   5  23
TORSDOF 6
ENDMDL
MODEL 3
REMARK VINA RESULT:      -7.4      1.918      7.285
REMARK  Name = 
REMARK  8 active torsions:
REMARK  status: ('A' for Active; 'I' for Inactive)
REMARK    1  A    between atoms: C_1  and  C_2
REMARK    2  A    between atoms: N_4  and  C_5
REMARK    3  A    between atoms: N_7  and  S_8
REMARK    4  A    between atoms: S_8  and  N_11
REMARK    5  A    between atoms: N_11  and  C_12
REMARK    6  A    between atoms: N_11  and  C_13
REMARK    7  A    between atoms: C_13  and  C_14
REMARK    8  A    between atoms: C_21  and  C_22
REMARK                            x       y       z     vdW  Elec       q    Type
REMARK                         _______ _______ _______ _____ _____    ______ ____
ROOT
ATOM      1  C   UNL     1       2.635   5.572  19.560  0.00  0.00    +0.000 C 
ATOM      2  C   UNL     1       4.110   5.671  19.159  0.00  0.00    +0.000 C 
ATOM      3  N   UNL     1       4.194   6.628  18.017  0.00  0.00    +0.000 NA
ATOM      4  C   UNL     1       2.913   7.385  17.966  0.00  0.00    +0.000 C 
ATOM      5  C   UNL     1       2.046   6.924  19.152  0.00  0.00    +0.000 C 
ENDROOT
BRANCH   1   9
ATOM      6  C   UNL     1       0.591   2.437  18.943  0.00  0.00    +0.000 C 
ATOM      7  C   UNL     1       1.314   3.501  19.729  0.00  0.00    +0.000 C 
ATOM      8  O   UNL     1       1.392   3.470  20.952  0.00  0.00    +0.000 OA
ATOM      9  N   UNL     1       1.925   4.458  18.938  0.00  0.00    +0.000 N 
ATOM     10  H   UNL     1       1.699   4.510  17.948  0.00  0.00    +0.000 HD
ENDBRANCH   1   9
BRANCH   3  11
ATOM     11  S   UNL     1       4.822   5.987  16.586  0.00  0.00    +0.000 S 
ATOM     12  O   UNL     1       4.154   4.724  16.375  0.00  0.00    +0.000 OA
ATOM     13  O   UNL     1       4.766   7.035  15.592  0.00  0.00    +0.000 OA
BRANCH  11  14
ATOM     14  N   UNL     1       6.413   5.685  16.977  0.00  0.00    +0.000 NA
ATOM     15  C   UNL     1       7.188   6.545  17.862  0.00  0.00    +0.000 C 
BRANCH  14  16
ATOM     16  C   UNL     1       7.171   4.612  16.299  0.00  0.00    +0.000 C 
BRANCH  16  17
ATOM     17  C   UNL     1       7.071   4.541  14.787  0.00  0.00    +0.000 A 
ATOM     18  C   UNL     1       6.221   3.641  14.129  0.00  0.00    +0.000 A 
ATOM     19  C   UNL     1       6.238   3.538  12.733  0.00  0.00    +0.000 A 
ATOM     20  C   UNL     1       7.070   4.360  11.977  0.00  0.00    +0.000 A 
ATOM     21  C   UNL     1       7.858   5.317  12.611  0.00  0.00    +0.000 A 
ATOM     22  C   UNL     1       7.850   5.414  14.005  0.00  0.00    +0.000 A 
ENDBRANCH  16  17
ENDBRANCH  14  16
ENDBRANCH  11  14
ENDBRANCH   3  11
BRANCH   5  23
ATOM     23  C   UNL     1       2.049   7.897  20.311  0.00  0.00    +0.000 C 
ATOM     24  C   UNL     1       1.180   9.128  20.299  0.00  0.00    +0.000 C 
ATOM     25  C   UNL     1       0.827   7.978  21.198  0.00  0.00    +0.000 C 
ENDBRANCH   5  23
TORSDOF 6
ENDMDL
MODEL 4
REMARK VINA RESULT:      -7.4      2.077      6.973
REMARK  Name = 
REMARK  8 active torsions:
REMARK  status: ('A' for Active; 'I' for Inactive)
REMARK    1  A    between atoms: C_1  and  C_2
REMARK    2  A    between atoms: N_4  and  C_5
REMARK    3  A    between atoms: N_7  and  S_8
REMARK    4  A    between atoms: S_8  and  N_11
REMARK    5  A    between atoms: N_11  and  C_12
REMARK    6  A    between atoms: N_11  and  C_13
REMARK    7  A    between atoms: C_13  and  C_14
REMARK    8  A    between atoms: C_21  and  C_22
REMARK                            x       y       z     vdW  Elec       q    Type
REMARK                         _______ _______ _______ _____ _____    ______ ____
ROOT
ATOM      1  C   UNL     1       4.304   4.813  19.489  0.00  0.00    +0.000 C 
ATOM      2  C   UNL     1       5.521   5.703  19.218  0.00  0.00    +0.000 C 
ATOM      3  N   UNL     1       5.124   6.687  18.170  0.00  0.00    +0.000 NA
ATOM      4  C   UNL     1       3.638   6.675  18.078  0.00  0.00    +0.000 C 
ATOM      5  C   UNL     1       3.108   5.704  19.148  0.00  0.00    +0.000 C 
ENDROOT
BRANCH   1   9
ATOM      6  C   UNL     1       3.631   1.288  18.260  0.00  0.00    +0.000 C 
ATOM      7  C   UNL     1       3.573   2.482  19.179  0.00  0.00    +0.000 C 
ATOM      8  O   UNL     1       2.983   2.452  20.253  0.00  0.00    +0.000 OA
ATOM      9  N   UNL     1       4.296   3.571  18.722  0.00  0.00    +0.000 N 
ATOM     10  H   UNL     1       4.634   3.582  17.763  0.00  0.00    +0.000 HD
ENDBRANCH   1   9
BRANCH   3  11
ATOM     11  S   UNL     1       6.030   6.627  16.745  0.00  0.00    +0.000 S 
ATOM     12  O   UNL     1       5.112   6.897  15.663  0.00  0.00    +0.000 OA
ATOM     13  O   UNL     1       7.200   7.450  16.953  0.00  0.00    +0.000 OA
BRANCH  11  14
ATOM     14  N   UNL     1       6.491   5.028  16.661  0.00  0.00    +0.000 NA
ATOM     15  C   UNL     1       7.625   4.492  17.402  0.00  0.00    +0.000 C 
BRANCH  14  16
ATOM     16  C   UNL     1       5.868   4.108  15.686  0.00  0.00    +0.000 C 
BRANCH  16  17
ATOM     17  C   UNL     1       6.382   4.158  14.259  0.00  0.00    +0.000 A 
ATOM     18  C   UNL     1       7.422   5.011  13.861  0.00  0.00    +0.000 A 
ATOM     19  C   UNL     1       7.793   5.099  12.515  0.00  0.00    +0.000 A 
ATOM     20  C   UNL     1       7.162   4.308  11.557  0.00  0.00    +0.000 A 
ATOM     21  C   UNL     1       6.186   3.395  11.949  0.00  0.00    +0.000 A 
ATOM     22  C   UNL     1       5.807   3.314  13.292  0.00  0.00    +0.000 A 
ENDBRANCH  16  17
ENDBRANCH  14  16
ENDBRANCH  11  14
ENDBRANCH   3  11
BRANCH   5  23
ATOM     23  C   UNL     1       2.573   6.401  20.380  0.00  0.00    +0.000 C 
ATOM     24  C   UNL     1       1.716   7.636  20.268  0.00  0.00    +0.000 C 
ATOM     25  C   UNL     1       1.091   6.331  20.672  0.00  0.00    +0.000 C 
ENDBRANCH   5  23
TORSDOF 6
ENDMDL
MODEL 5
REMARK VINA RESULT:      -7.3      1.821      6.877
REMARK  Name = 
REMARK  8 active torsions:
REMARK  status: ('A' for Active; 'I' for Inactive)
REMARK    1  A    between atoms: C_1  and  C_2
REMARK    2  A    between atoms: N_4  and  C_5
REMARK    3  A    between atoms: N_7  and  S_8
REMARK    4  A    between atoms: S_8  and  N_11
REMARK    5  A    between atoms: N_11  and  C_12
REMARK    6  A    between atoms: N_11  and  C_13
REMARK    7  A    between atoms: C_13  and  C_14
REMARK    8  A    between atoms: C_21  and  C_22
REMARK                            x       y       z     vdW  Elec       q    Type
REMARK                         _______ _______ _______ _____ _____    ______ ____
ROOT
ATOM      1  C   UNL     1       2.272   5.834  19.571  0.00  0.00    +0.000 C 
ATOM      2  C   UNL     1       3.763   5.558  19.792  0.00  0.00    +0.000 C 
ATOM      3  N   UNL     1       4.424   5.604  18.455  0.00  0.00    +0.000 NA
ATOM      4  C   UNL     1       3.483   6.261  17.508  0.00  0.00    +0.000 C 
ATOM      5  C   UNL     1       2.236   6.690  18.303  0.00  0.00    +0.000 C 
ENDROOT
BRANCH   1   9
ATOM      6  C   UNL     1       0.435   2.582  20.230  0.00  0.00    +0.000 C 
ATOM      7  C   UNL     1       1.337   3.758  20.508  0.00  0.00    +0.000 C 
ATOM      8  O   UNL     1       1.942   3.882  21.567  0.00  0.00    +0.000 OA
ATOM      9  N   UNL     1       1.460   4.629  19.439  0.00  0.00    +0.000 N 
ATOM     10  H   UNL     1       0.821   4.549  18.652  0.00  0.00    +0.000 HD
ENDBRANCH   1   9
BRANCH   3  11
ATOM     11  S   UNL     1       5.193   4.175  17.984  0.00  0.00    +0.000 S 
ATOM     12  O   UNL     1       5.704   3.567  19.190  0.00  0.00    +0.000 OA
ATOM     13  O   UNL     1       4.277   3.465  17.121  0.00  0.00    +0.000 OA
BRANCH  11  14
ATOM     14  N   UNL     1       6.483   4.724  17.082  0.00  0.00    +0.000 NA
ATOM     15  C   UNL     1       7.870   4.508  17.473  0.00  0.00    +0.000 C 
BRANCH  14  16
ATOM     16  C   UNL     1       6.274   5.615  15.921  0.00  0.00    +0.000 C 
BRANCH  16  17
ATOM     17  C   UNL     1       6.424   5.002  14.542  0.00  0.00    +0.000 A 
ATOM     18  C   UNL     1       5.504   4.081  14.021  0.00  0.00    +0.000 A 
ATOM     19  C   UNL     1       5.738   3.463  12.787  0.00  0.00    +0.000 A 
ATOM     20  C   UNL     1       6.869   3.787  12.040  0.00  0.00    +0.000 A 
ATOM     21  C   UNL     1       7.747   4.762  12.505  0.00  0.00    +0.000 A 
ATOM     22  C   UNL     1       7.521   5.372  13.741  0.00  0.00    +0.000 A 
ENDBRANCH  16  17
ENDBRANCH  14  16
ENDBRANCH  11  14
ENDBRANCH   3  11
BRANCH   5  23
ATOM     23  C   UNL     1       2.216   8.165  18.637  0.00  0.00    +0.000 C 
ATOM     24  C   UNL     1       2.520   9.207  17.591  0.00  0.00    +0.000 C 
ATOM     25  C   UNL     1       1.109   9.026  18.071  0.00  0.00    +0.000 C 
ENDBRANCH   5  23
TORSDOF 6
ENDMDL
MODEL 6
REMARK VINA RESULT:      -7.3      0.943      1.496
REMARK  Name = 
REMARK  8 active torsions:
REMARK  status: ('A' for Active; 'I' for Inactive)
REMARK    1  A    between atoms: C_1  and  C_2
REMARK    2  A    between atoms: N_4  and  C_5
REMARK    3  A    between atoms: N_7  and  S_8
REMARK    4  A    between atoms: S_8  and  N_11
REMARK    5  A    between atoms: N_11  and  C_12
REMARK    6  A    between atoms: N_11  and  C_13
REMARK    7  A    between atoms: C_13  and  C_14
REMARK    8  A    between atoms: C_21  and  C_22
REMARK                            x       y       z     vdW  Elec       q    Type
REMARK                         _______ _______ _______ _____ _____    ______ ____
ROOT
ATOM      1  C   UNL     1       7.319   5.291  15.980  0.00  0.00    +0.000 C 
ATOM      2  C   UNL     1       7.087   4.340  17.159  0.00  0.00    +0.000 C 
ATOM      3  N   UNL     1       5.629   4.027  17.192  0.00  0.00    +0.000 NA
ATOM      4  C   UNL     1       5.049   4.432  15.883  0.00  0.00    +0.000 C 
ATOM      5  C   UNL     1       6.198   4.947  14.998  0.00  0.00    +0.000 C 
ENDROOT
BRANCH   1   9
ATOM      6  C   UNL     1       7.731   8.589  17.808  0.00  0.00    +0.000 C 
ATOM      7  C   UNL     1       7.769   7.097  17.592  0.00  0.00    +0.000 C 
ATOM      8  O   UNL     1       8.121   6.318  18.470  0.00  0.00    +0.000 OA
ATOM      9  N   UNL     1       7.309   6.703  16.347  0.00  0.00    +0.000 N 
ATOM     10  H   UNL     1       7.175   7.401  15.619  0.00  0.00    +0.000 HD
ENDBRANCH   1   9
BRANCH   3  11
ATOM     11  S   UNL     1       4.829   4.472  18.613  0.00  0.00    +0.000 S 
ATOM     12  O   UNL     1       5.326   3.601  19.653  0.00  0.00    +0.000 OA
ATOM     13  O   UNL     1       4.938   5.909  18.728  0.00  0.00    +0.000 OA
BRANCH  11  14
ATOM     14  N   UNL     1       3.245   4.064  18.295  0.00  0.00    +0.000 NA
ATOM     15  C   UNL     1       2.778   2.685  18.249  0.00  0.00    +0.000 C 
BRANCH  14  16
ATOM     16  C   UNL     1       2.267   5.088  17.872  0.00  0.00    +0.000 C 
BRANCH  16  17
ATOM     17  C   UNL     1       2.038   6.258  18.810  0.00  0.00    +0.000 A 
ATOM     18  C   UNL     1       1.796   6.090  20.181  0.00  0.00    +0.000 A 
ATOM     19  C   UNL     1       1.487   7.191  20.988  0.00  0.00    +0.000 A 
ATOM     20  C   UNL     1       1.457   8.474  20.448  0.00  0.00    +0.000 A 
ATOM     21  C   UNL     1       1.778   8.667  19.107  0.00  0.00    +0.000 A 
ATOM     22  C   UNL     1       2.077   7.568  18.297  0.00  0.00    +0.000 A 
ENDBRANCH  16  17
ENDBRANCH  14  16
ENDBRANCH  11  14
ENDBRANCH   3  11
BRANCH   5  23
ATOM     23  C   UNL     1       6.659   3.940  13.967  0.00  0.00    +0.000 C 
ATOM     24  C   UNL     1       5.785   3.560  12.800  0.00  0.00    +0.000 C 
ATOM     25  C   UNL     1       6.993   4.423  12.574  0.00  0.00    +0.000 C 
ENDBRANCH   5  23
TORSDOF 6
ENDMDL
MODEL 7
REMARK VINA RESULT:      -7.1      1.688      6.850
REMARK  Name = 
REMARK  8 active torsions:
REMARK  status: ('A' for Active; 'I' for Inactive)
REMARK    1  A    between atoms: C_1  and  C_2
REMARK    2  A    between atoms: N_4  and  C_5
REMARK    3  A    between atoms: N_7  and  S_8
REMARK    4  A    between atoms: S_8  and  N_11
REMARK    5  A    between atoms: N_11  and  C_12
REMARK    6  A    between atoms: N_11  and  C_13
REMARK    7  A    between atoms: C_13  and  C_14
REMARK    8  A    between atoms: C_21  and  C_22
REMARK                            x       y       z     vdW  Elec       q    Type
REMARK                         _______ _______ _______ _____ _____    ______ ____
ROOT
ATOM      1  C   UNL     1       2.238   5.676  19.183  0.00  0.00    +0.000 C 
ATOM      2  C   UNL     1       3.571   5.555  19.929  0.00  0.00    +0.000 C 
ATOM      3  N   UNL     1       4.651   5.906  18.962  0.00  0.00    +0.000 NA
ATOM      4  C   UNL     1       4.016   6.590  17.803  0.00  0.00    +0.000 C 
ATOM      5  C   UNL     1       2.511   6.721  18.099  0.00  0.00    +0.000 C 
ENDROOT
BRANCH   1   9
ATOM      6  C   UNL     1       0.632   2.276  18.693  0.00  0.00    +0.000 C 
ATOM      7  C   UNL     1       1.100   3.507  19.427  0.00  0.00    +0.000 C 
ATOM      8  O   UNL     1       0.954   3.642  20.636  0.00  0.00    +0.000 OA
ATOM      9  N   UNL     1       1.758   4.419  18.620  0.00  0.00    +0.000 N 
ATOM     10  H   UNL     1       1.714   4.317  17.609  0.00  0.00    +0.000 HD
ENDBRANCH   1   9
BRANCH   3  11
ATOM     11  S   UNL     1       5.781   4.684  18.671  0.00  0.00    +0.000 S 
ATOM     12  O   UNL     1       7.064   5.206  19.082  0.00  0.00    +0.000 OA
ATOM     13  O   UNL     1       5.251   3.470  19.247  0.00  0.00    +0.000 OA
BRANCH  11  14
ATOM     14  N   UNL     1       5.773   4.554  17.009  0.00  0.00    +0.000 NA
ATOM     15  C   UNL     1       4.588   4.173  16.252  0.00  0.00    +0.000 C 
BRANCH  14  16
ATOM     16  C   UNL     1       7.027   4.652  16.233  0.00  0.00    +0.000 C 
BRANCH  16  17
ATOM     17  C   UNL     1       6.921   4.522  14.725  0.00  0.00    +0.000 A 
ATOM     18  C   UNL     1       6.074   3.592  14.106  0.00  0.00    +0.000 A 
ATOM     19  C   UNL     1       6.086   3.435  12.715  0.00  0.00    +0.000 A 
ATOM     20  C   UNL     1       6.911   4.232  11.924  0.00  0.00    +0.000 A 
ATOM     21  C   UNL     1       7.695   5.217  12.518  0.00  0.00    +0.000 A 
ATOM     22  C   UNL     1       7.691   5.368  13.907  0.00  0.00    +0.000 A 
ENDBRANCH  16  17
ENDBRANCH  14  16
ENDBRANCH  11  14
ENDBRANCH   3  11
BRANCH   5  23
ATOM     23  C   UNL     1       2.108   8.106  18.556  0.00  0.00    +0.000 C 
ATOM     24  C   UNL     1       2.485   9.331  17.763  0.00  0.00    +0.000 C 
ATOM     25  C   UNL     1       1.059   8.858  17.768  0.00  0.00    +0.000 C 
ENDBRANCH   5  23
TORSDOF 6
ENDMDL
MODEL 8
REMARK VINA RESULT:      -7.1      1.942      3.621
REMARK  Name = 
REMARK  8 active torsions:
REMARK  status: ('A' for Active; 'I' for Inactive)
REMARK    1  A    between atoms: C_1  and  C_2
REMARK    2  A    between atoms: N_4  and  C_5
REMARK    3  A    between atoms: N_7  and  S_8
REMARK    4  A    between atoms: S_8  and  N_11
REMARK    5  A    between atoms: N_11  and  C_12
REMARK    6  A    between atoms: N_11  and  C_13
REMARK    7  A    between atoms: C_13  and  C_14
REMARK    8  A    between atoms: C_21  and  C_22
REMARK                            x       y       z     vdW  Elec       q    Type
REMARK                         _______ _______ _______ _____ _____    ______ ____
ROOT
ATOM      1  C   UNL     1       5.680   5.408  16.397  0.00  0.00    +0.000 C 
ATOM      2  C   UNL     1       4.448   5.926  17.145  0.00  0.00    +0.000 C 
ATOM      3  N   UNL     1       4.210   5.005  18.294  0.00  0.00    +0.000 NA
ATOM      4  C   UNL     1       5.445   4.197  18.489  0.00  0.00    +0.000 C 
ATOM      5  C   UNL     1       6.493   4.684  17.472  0.00  0.00    +0.000 C 
ENDROOT
BRANCH   1   9
ATOM      6  C   UNL     1       5.775   3.512  13.114  0.00  0.00    +0.000 C 
ATOM      7  C   UNL     1       6.213   4.487  14.176  0.00  0.00    +0.000 C 
ATOM      8  O   UNL     1       7.199   5.202  14.040  0.00  0.00    +0.000 OA
ATOM      9  N   UNL     1       5.366   4.536  15.270  0.00  0.00    +0.000 N 
ATOM     10  H   UNL     1       4.657   3.816  15.387  0.00  0.00    +0.000 HD
ENDBRANCH   1   9
BRANCH   3  11
ATOM     11  S   UNL     1       2.713   4.222  18.291  0.00  0.00    +0.000 S 
ATOM     12  O   UNL     1       1.953   4.795  17.204  0.00  0.00    +0.000 OA
ATOM     13  O   UNL     1       2.977   2.802  18.349  0.00  0.00    +0.000 OA
BRANCH  11  14
ATOM     14  N   UNL     1       2.030   4.713  19.729  0.00  0.00    +0.000 NA
ATOM     15  C   UNL     1       0.784   4.159  20.243  0.00  0.00    +0.000 C 
BRANCH  14  16
ATOM     16  C   UNL     1       2.573   5.869  20.473  0.00  0.00    +0.000 C 
BRANCH  16  17
ATOM     17  C   UNL     1       1.949   7.225  20.199  0.00  0.00    +0.000 A 
ATOM     18  C   UNL     1       1.149   7.890  21.139  0.00  0.00    +0.000 A 
ATOM     19  C   UNL     1       0.509   9.089  20.805  0.00  0.00    +0.000 A 
ATOM     20  C   UNL     1       0.693   9.660  19.547  0.00  0.00    +0.000 A 
ATOM     21  C   UNL     1       1.552   9.055  18.634  0.00  0.00    +0.000 A 
ATOM     22  C   UNL     1       2.184   7.852  18.962  0.00  0.00    +0.000 A 
ENDBRANCH  16  17
ENDBRANCH  14  16
ENDBRANCH  11  14
ENDBRANCH   3  11
BRANCH   5  23
ATOM     23  C   UNL     1       7.538   5.595  18.078  0.00  0.00    +0.000 C 
ATOM     24  C   UNL     1       7.500   5.966  19.538  0.00  0.00    +0.000 C 
ATOM     25  C   UNL     1       8.546   5.010  19.042  0.00  0.00    +0.000 C 
ENDBRANCH   5  23
TORSDOF 6
ENDMDL
MODEL 9
REMARK VINA RESULT:      -7.1      1.079      1.316
REMARK  Name = 
REMARK  8 active torsions:
REMARK  status: ('A' for Active; 'I' for Inactive)
REMARK    1  A    between atoms: C_1  and  C_2
REMARK    2  A    between atoms: N_4  and  C_5
REMARK    3  A    between atoms: N_7  and  S_8
REMARK    4  A    between atoms: S_8  and  N_11
REMARK    5  A    between atoms: N_11  and  C_12
REMARK    6  A    between atoms: N_11  and  C_13
REMARK    7  A    between atoms: C_13  and  C_14
REMARK    8  A    between atoms: C_21  and  C_22
REMARK                            x       y       z     vdW  Elec       q    Type
REMARK                         _______ _______ _______ _____ _____    ______ ____
ROOT
ATOM      1  C   UNL     1       6.870   5.098  15.801  0.00  0.00    +0.000 C 
ATOM      2  C   UNL     1       6.449   4.034  16.820  0.00  0.00    +0.000 C 
ATOM      3  N   UNL     1       5.038   3.661  16.510  0.00  0.00    +0.000 NA
ATOM      4  C   UNL     1       4.727   4.161  15.144  0.00  0.00    +0.000 C 
ATOM      5  C   UNL     1       6.006   4.802  14.574  0.00  0.00    +0.000 C 
ENDROOT
BRANCH   1   9
ATOM      6  C   UNL     1       7.191   8.379  17.677  0.00  0.00    +0.000 C 
ATOM      7  C   UNL     1       7.453   6.934  17.335  0.00  0.00    +0.000 C 
ATOM      8  O   UNL     1       8.222   6.237  17.986  0.00  0.00    +0.000 OA
ATOM      9  N   UNL     1       6.699   6.469  16.271  0.00  0.00    +0.000 N 
ATOM     10  H   UNL     1       6.196   7.131  15.685  0.00  0.00    +0.000 HD
ENDBRANCH   1   9
BRANCH   3  11
ATOM     11  S   UNL     1       3.930   3.941  17.754  0.00  0.00    +0.000 S 
ATOM     12  O   UNL     1       2.620   3.940  17.144  0.00  0.00    +0.000 OA
ATOM     13  O   UNL     1       4.254   3.026  18.825  0.00  0.00    +0.000 OA
BRANCH  11  14
ATOM     14  N   UNL     1       4.288   5.496  18.233  0.00  0.00    +0.000 NA
ATOM     15  C   UNL     1       5.050   5.797  19.438  0.00  0.00    +0.000 C 
BRANCH  14  16
ATOM     16  C   UNL     1       3.696   6.660  17.541  0.00  0.00    +0.000 C 
BRANCH  16  17
ATOM     17  C   UNL     1       2.737   7.526  18.336  0.00  0.00    +0.000 A 
ATOM     18  C   UNL     1       2.260   8.756  17.862  0.00  0.00    +0.000 A 
ATOM     19  C   UNL     1       1.461   9.569  18.673  0.00  0.00    +0.000 A 
ATOM     20  C   UNL     1       1.093   9.147  19.949  0.00  0.00    +0.000 A 
ATOM     21  C   UNL     1       1.488   7.891  20.401  0.00  0.00    +0.000 A 
ATOM     22  C   UNL     1       2.295   7.082  19.596  0.00  0.00    +0.000 A 
ENDBRANCH  16  17
ENDBRANCH  14  16
ENDBRANCH  11  14
ENDBRANCH   3  11
BRANCH   5  23
ATOM     23  C   UNL     1       6.735   3.913  13.590  0.00  0.00    +0.000 C 
ATOM     24  C   UNL     1       6.050   3.390  12.354  0.00  0.00    +0.000 C 
ATOM     25  C   UNL     1       7.088   4.468  12.228  0.00  0.00    +0.000 C 
ENDBRANCH   5  23
TORSDOF 6
ENDMDL
