MODEL 1
REMARK VINA RESULT:      -7.8      0.000      0.000
REMARK  Name = 
REMARK  11 active torsions:
REMARK  status: ('A' for Active; 'I' for Inactive)
REMARK    1  A    between atoms: C_1  and  O_2
REMARK    2  A    between atoms: O_2  and  C_3
REMARK    3  A    between atoms: C_9  and  C_10
REMARK    4  A    between atoms: C_12  and  O_13
REMARK    5  A    between atoms: O_13  and  C_14
REMARK    6  A    between atoms: C_15  and  O_16
REMARK    7  A    between atoms: O_16  and  C_17
REMARK    8  A    between atoms: C_18  and  O_19
REMARK    9  A    between atoms: O_19  and  C_20
REMARK   10  A    between atoms: C_24  and  O_25
REMARK   11  A    between atoms: O_25  and  C_26
REMARK                            x       y       z     vdW  Elec       q    Type
REMARK                         _______ _______ _______ _____ _____    ______ ____
ROOT
ATOM      1  C   UNL     1       1.185   9.096  19.109  0.00  0.00    +0.000 A 
ATOM      2  C   UNL     1       1.035   8.009  19.974  0.00  0.00    +0.000 A 
ATOM      3  C   UNL     1       1.817   6.849  19.856  0.00  0.00    +0.000 A 
ATOM      4  C   UNL     1       1.619   5.796  20.751  0.00  0.00    +0.000 A 
ATOM      5  C   UNL     1       2.410   4.665  20.654  0.00  0.00    +0.000 A 
ATOM      6  C   UNL     1       3.408   4.565  19.701  0.00  0.00    +0.000 A 
ATOM      7  C   UNL     1       3.654   5.585  18.757  0.00  0.00    +0.000 A 
ATOM      8  C   UNL     1       2.803   6.752  18.828  0.00  0.00    +0.000 A 
ATOM      9  C   UNL     1       2.879   7.856  17.935  0.00  0.00    +0.000 A 
ATOM     10  C   UNL     1       2.138   9.035  18.095  0.00  0.00    +0.000 A 
ATOM     11  C   UNL     1       4.075   3.271  19.937  0.00  0.00    +0.000 C 
ATOM     12  O   UNL     1       5.048   2.806  19.381  0.00  0.00    +0.000 OA
ATOM     13  O   UNL     1       3.386   2.627  20.926  0.00  0.00    +0.000 OA
ATOM     14  C   UNL     1       2.348   3.444  21.477  0.00  0.00    +0.000 C 
ENDROOT
BRANCH   7  15
ATOM     15  C   UNL     1       4.734   5.468  17.732  0.00  0.00    +0.000 A 
ATOM     16  C   UNL     1       5.870   6.286  17.784  0.00  0.00    +0.000 A 
ATOM     17  C   UNL     1       6.867   6.240  16.801  0.00  0.00    +0.000 A 
ATOM     18  C   UNL     1       6.821   5.246  15.803  0.00  0.00    +0.000 A 
ATOM     19  C   UNL     1       5.734   4.356  15.766  0.00  0.00    +0.000 A 
ATOM     20  C   UNL     1       4.680   4.534  16.679  0.00  0.00    +0.000 A 
BRANCH  17  21
ATOM     21  O   UNL     1       7.917   7.128  16.749  0.00  0.00    +0.000 OA
ATOM     22  C   UNL     1       7.892   8.209  17.671  0.00  0.00    +0.000 C 
ENDBRANCH  17  21
BRANCH  18  23
ATOM     23  O   UNL     1       7.842   5.291  14.880  0.00  0.00    +0.000 OA
ATOM     24  C   UNL     1       7.486   5.599  13.539  0.00  0.00    +0.000 C 
ENDBRANCH  18  23
BRANCH  19  25
ATOM     25  O   UNL     1       5.726   3.372  14.810  0.00  0.00    +0.000 OA
ATOM     26  C   UNL     1       5.103   3.654  13.563  0.00  0.00    +0.000 C 
ENDBRANCH  19  25
ENDBRANCH   7  15
BRANCH   1  28
ATOM     27  C   UNL     1      -0.071  10.270  20.738  0.00  0.00    +0.000 C 
ATOM     28  O   UNL     1       0.363  10.159  19.385  0.00  0.00    +0.000 OA
ENDBRANCH   1  28
BRANCH  10  29
ATOM     29  O   UNL     1       2.402  10.170  17.377  0.00  0.00    +0.000 OA
ATOM     30  C   UNL     1       2.534  11.388  18.095  0.00  0.00    +0.000 C 
ENDBRANCH  10  29
TORSDOF 6
ENDMDL
MODEL 2
REMARK VINA RESULT:      -7.8      0.428      2.343
REMARK  Name = 
REMARK  11 active torsions:
REMARK  status: ('A' for Active; 'I' for Inactive)
REMARK    1  A    between atoms: C_1  and  O_2
REMARK    2  A    between atoms: O_2  and  C_3
REMARK    3  A    between atoms: C_9  and  C_10
REMARK    4  A    between atoms: C_12  and  O_13
REMARK    5  A    between atoms: O_13  and  C_14
REMARK    6  A    between atoms: C_15  and  O_16
REMARK    7  A    between atoms: O_16  and  C_17
REMARK    8  A    between atoms: C_18  and  O_19
REMARK    9  A    between atoms: O_19  and  C_20
REMARK   10  A    between atoms: C_24  and  O_25
REMARK   11  A    between atoms: O_25  and  C_26
REMARK                            x       y       z     vdW  Elec       q    Type
REMARK                         _______ _______ _______ _____ _____    ______ ____
ROOT
ATOM      1  C   UNL     1       1.172   9.181  19.074  0.00  0.00    +0.000 A 
ATOM      2  C   UNL     1       1.004   8.097  19.939  0.00  0.00    +0.000 A 
ATOM      3  C   UNL     1       1.788   6.936  19.840  0.00  0.00    +0.000 A 
ATOM      4  C   UNL     1       1.571   5.886  20.733  0.00  0.00    +0.000 A 
ATOM      5  C   UNL     1       2.362   4.754  20.654  0.00  0.00    +0.000 A 
ATOM      6  C   UNL     1       3.379   4.651  19.721  0.00  0.00    +0.000 A 
ATOM      7  C   UNL     1       3.644   5.667  18.780  0.00  0.00    +0.000 A 
ATOM      8  C   UNL     1       2.793   6.836  18.831  0.00  0.00    +0.000 A 
ATOM      9  C   UNL     1       2.887   7.937  17.936  0.00  0.00    +0.000 A 
ATOM     10  C   UNL     1       2.144   9.116  18.079  0.00  0.00    +0.000 A 
ATOM     11  C   UNL     1       4.040   3.356  19.974  0.00  0.00    +0.000 C 
ATOM     12  O   UNL     1       5.023   2.889  19.437  0.00  0.00    +0.000 OA
ATOM     13  O   UNL     1       3.331   2.716  20.951  0.00  0.00    +0.000 OA
ATOM     14  C   UNL     1       2.283   3.535  21.479  0.00  0.00    +0.000 C 
ENDROOT
BRANCH   7  15
ATOM     15  C   UNL     1       4.744   5.547  17.776  0.00  0.00    +0.000 A 
ATOM     16  C   UNL     1       4.673   4.610  16.737  0.00  0.00    +0.000 A 
ATOM     17  C   UNL     1       5.719   4.434  15.821  0.00  0.00    +0.000 A 
ATOM     18  C   UNL     1       6.818   5.316  15.834  0.00  0.00    +0.000 A 
ATOM     19  C   UNL     1       6.884   6.320  16.815  0.00  0.00    +0.000 A 
ATOM     20  C   UNL     1       5.890   6.365  17.808  0.00  0.00    +0.000 A 
BRANCH  17  21
ATOM     21  O   UNL     1       5.738   3.427  14.883  0.00  0.00    +0.000 OA
ATOM     22  C   UNL     1       5.135   3.706  13.626  0.00  0.00    +0.000 C 
ENDBRANCH  17  21
BRANCH  18  23
ATOM     23  O   UNL     1       7.793   5.053  14.899  0.00  0.00    +0.000 OA
ATOM     24  C   UNL     1       7.681   5.713  13.646  0.00  0.00    +0.000 C 
ENDBRANCH  18  23
BRANCH  19  25
ATOM     25  O   UNL     1       7.943   7.191  16.788  0.00  0.00    +0.000 OA
ATOM     26  C   UNL     1       7.917   8.308  17.669  0.00  0.00    +0.000 C 
ENDBRANCH  19  25
ENDBRANCH   7  15
BRANCH   1  28
ATOM     27  C   UNL     1      -0.890  10.255  18.621  0.00  0.00    +0.000 C 
ATOM     28  O   UNL     1       0.346  10.246  19.331  0.00  0.00    +0.000 OA
ENDBRANCH   1  28
BRANCH  10  29
ATOM     29  O   UNL     1       2.423  10.249  17.363  0.00  0.00    +0.000 OA
ATOM     30  C   UNL     1       2.559  11.467  18.082  0.00  0.00    +0.000 C 
ENDBRANCH  10  29
TORSDOF 6
ENDMDL
MODEL 3
REMARK VINA RESULT:      -7.4      7.333     11.866
REMARK  Name = 
REMARK  11 active torsions:
REMARK  status: ('A' for Active; 'I' for Inactive)
REMARK    1  A    between atoms: C_1  and  O_2
REMARK    2  A    between atoms: O_2  and  C_3
REMARK    3  A    between atoms: C_9  and  C_10
REMARK    4  A    between atoms: C_12  and  O_13
REMARK    5  A    between atoms: O_13  and  C_14
REMARK    6  A    between atoms: C_15  and  O_16
REMARK    7  A    between atoms: O_16  and  C_17
REMARK    8  A    between atoms: C_18  and  O_19
REMARK    9  A    between atoms: O_19  and  C_20
REMARK   10  A    between atoms: C_24  and  O_25
REMARK   11  A    between atoms: O_25  and  C_26
REMARK                            x       y       z     vdW  Elec       q    Type
REMARK                         _______ _______ _______ _____ _____    ______ ____
ROOT
ATOM      1  C   UNL     1      -3.876  10.948  16.629  0.00  0.00    +0.000 A 
ATOM      2  C   UNL     1      -2.640  10.518  17.119  0.00  0.00    +0.000 A 
ATOM      3  C   UNL     1      -2.149  10.931  18.368  0.00  0.00    +0.000 A 
ATOM      4  C   UNL     1      -0.906  10.467  18.802  0.00  0.00    +0.000 A 
ATOM      5  C   UNL     1      -0.435  10.850  20.045  0.00  0.00    +0.000 A 
ATOM      6  C   UNL     1      -1.181  11.666  20.877  0.00  0.00    +0.000 A 
ATOM      7  C   UNL     1      -2.438  12.181  20.497  0.00  0.00    +0.000 A 
ATOM      8  C   UNL     1      -2.917  11.817  19.181  0.00  0.00    +0.000 A 
ATOM      9  C   UNL     1      -4.139  12.276  18.616  0.00  0.00    +0.000 A 
ATOM     10  C   UNL     1      -4.651  11.813  17.398  0.00  0.00    +0.000 A 
ATOM     11  C   UNL     1      -0.404  11.804  22.123  0.00  0.00    +0.000 C 
ATOM     12  O   UNL     1      -0.712  12.374  23.149  0.00  0.00    +0.000 OA
ATOM     13  O   UNL     1       0.791  11.169  21.935  0.00  0.00    +0.000 OA
ATOM     14  C   UNL     1       0.849  10.494  20.674  0.00  0.00    +0.000 C 
ENDROOT
BRANCH   7  15
ATOM     15  C   UNL     1      -3.237  13.061  21.402  0.00  0.00    +0.000 A 
ATOM     16  C   UNL     1      -3.116  14.455  21.344  0.00  0.00    +0.000 A 
ATOM     17  C   UNL     1      -3.806  15.300  22.223  0.00  0.00    +0.000 A 
ATOM     18  C   UNL     1      -4.769  14.762  23.100  0.00  0.00    +0.000 A 
ATOM     19  C   UNL     1      -4.974  13.372  23.130  0.00  0.00    +0.000 A 
ATOM     20  C   UNL     1      -4.153  12.548  22.341  0.00  0.00    +0.000 A 
BRANCH  17  21
ATOM     21  O   UNL     1      -3.597  16.659  22.284  0.00  0.00    +0.000 OA
ATOM     22  C   UNL     1      -2.263  17.114  22.100  0.00  0.00    +0.000 C 
ENDBRANCH  17  21
BRANCH  18  23
ATOM     23  O   UNL     1      -5.385  15.674  23.928  0.00  0.00    +0.000 OA
ATOM     24  C   UNL     1      -6.652  16.165  23.516  0.00  0.00    +0.000 C 
ENDBRANCH  18  23
BRANCH  19  25
ATOM     25  O   UNL     1      -5.941  12.872  23.964  0.00  0.00    +0.000 OA
ATOM     26  C   UNL     1      -7.189  12.495  23.394  0.00  0.00    +0.000 C 
ENDBRANCH  19  25
ENDBRANCH   7  15
BRANCH   1  28
ATOM     27  C   UNL     1      -3.126  10.116  14.542  0.00  0.00    +0.000 C 
ATOM     28  O   UNL     1      -4.216  10.425  15.407  0.00  0.00    +0.000 OA
ENDBRANCH   1  28
BRANCH  10  29
ATOM     29  O   UNL     1      -5.932  12.077  16.993  0.00  0.00    +0.000 OA
ATOM     30  C   UNL     1      -6.955  12.040  17.977  0.00  0.00    +0.000 C 
ENDBRANCH  10  29
TORSDOF 6
ENDMDL
MODEL 4
REMARK VINA RESULT:      -7.4      1.614      6.643
REMARK  Name = 
REMARK  11 active torsions:
REMARK  status: ('A' for Active; 'I' for Inactive)
REMARK    1  A    between atoms: C_1  and  O_2
REMARK    2  A    between atoms: O_2  and  C_3
REMARK    3  A    between atoms: C_9  and  C_10
REMARK    4  A    between atoms: C_12  and  O_13
REMARK    5  A    between atoms: O_13  and  C_14
REMARK    6  A    between atoms: C_15  and  O_16
REMARK    7  A    between atoms: O_16  and  C_17
REMARK    8  A    between atoms: C_18  and  O_19
REMARK    9  A    between atoms: O_19  and  C_20
REMARK   10  A    between atoms: C_24  and  O_25
REMARK   11  A    between atoms: O_25  and  C_26
REMARK                            x       y       z     vdW  Elec       q    Type
REMARK                         _______ _______ _______ _____ _____    ______ ____
ROOT
ATOM      1  C   UNL     1       6.567   5.234  16.828  0.00  0.00    +0.000 A 
ATOM      2  C   UNL     1       5.821   4.116  17.210  0.00  0.00    +0.000 A 
ATOM      3  C   UNL     1       4.631   4.231  17.946  0.00  0.00    +0.000 A 
ATOM      4  C   UNL     1       3.931   3.075  18.299  0.00  0.00    +0.000 A 
ATOM      5  C   UNL     1       2.743   3.189  19.000  0.00  0.00    +0.000 A 
ATOM      6  C   UNL     1       2.224   4.427  19.338  0.00  0.00    +0.000 A 
ATOM      7  C   UNL     1       2.885   5.633  19.025  0.00  0.00    +0.000 A 
ATOM      8  C   UNL     1       4.148   5.518  18.329  0.00  0.00    +0.000 A 
ATOM      9  C   UNL     1       4.970   6.621  17.971  0.00  0.00    +0.000 A 
ATOM     10  C   UNL     1       6.123   6.505  17.184  0.00  0.00    +0.000 A 
ATOM     11  C   UNL     1       0.936   4.163  20.007  0.00  0.00    +0.000 C 
ATOM     12  O   UNL     1       0.112   4.959  20.407  0.00  0.00    +0.000 OA
ATOM     13  O   UNL     1       0.806   2.809  20.132  0.00  0.00    +0.000 OA
ATOM     14  C   UNL     1       1.871   2.105  19.484  0.00  0.00    +0.000 C 
ENDROOT
BRANCH   7  15
ATOM     15  C   UNL     1       2.316   6.964  19.394  0.00  0.00    +0.000 A 
ATOM     16  C   UNL     1       2.057   7.934  18.418  0.00  0.00    +0.000 A 
ATOM     17  C   UNL     1       1.583   9.211  18.745  0.00  0.00    +0.000 A 
ATOM     18  C   UNL     1       1.207   9.501  20.072  0.00  0.00    +0.000 A 
ATOM     19  C   UNL     1       1.380   8.522  21.067  0.00  0.00    +0.000 A 
ATOM     20  C   UNL     1       2.000   7.308  20.723  0.00  0.00    +0.000 A 
BRANCH  17  21
ATOM     21  O   UNL     1       1.458  10.227  17.826  0.00  0.00    +0.000 OA
ATOM     22  C   UNL     1       2.448  11.247  17.853  0.00  0.00    +0.000 C 
ENDBRANCH  17  21
BRANCH  18  23
ATOM     23  O   UNL     1       0.762  10.785  20.290  0.00  0.00    +0.000 OA
ATOM     24  C   UNL     1      -0.636  11.012  20.174  0.00  0.00    +0.000 C 
ENDBRANCH  18  23
BRANCH  19  25
ATOM     25  O   UNL     1       0.973   8.811  22.344  0.00  0.00    +0.000 OA
ATOM     26  C   UNL     1      -0.401   8.637  22.667  0.00  0.00    +0.000 C 
ENDBRANCH  19  25
ENDBRANCH   7  15
BRANCH   1  28
ATOM     27  C   UNL     1       7.481   4.828  14.681  0.00  0.00    +0.000 C 
ATOM     28  O   UNL     1       7.685   4.944  16.087  0.00  0.00    +0.000 OA
ENDBRANCH   1  28
BRANCH  10  29
ATOM     29  O   UNL     1       6.758   7.592  16.648  0.00  0.00    +0.000 OA
ATOM     30  C   UNL     1       7.722   8.257  17.452  0.00  0.00    +0.000 C 
ENDBRANCH  10  29
TORSDOF 6
ENDMDL
MODEL 5
REMARK VINA RESULT:      -7.4      7.300     11.994
REMARK  Name = 
REMARK  11 active torsions:
REMARK  status: ('A' for Active; 'I' for Inactive)
REMARK    1  A    between atoms: C_1  and  O_2
REMARK    2  A    between atoms: O_2  and  C_3
REMARK    3  A    between atoms: C_9  and  C_10
REMARK    4  A    between atoms: C_12  and  O_13
REMARK    5  A    between atoms: O_13  and  C_14
REMARK    6  A    between atoms: C_15  and  O_16
REMARK    7  A    between atoms: O_16  and  C_17
REMARK    8  A    between atoms: C_18  and  O_19
REMARK    9  A    between atoms: O_19  and  C_20
REMARK   10  A    between atoms: C_24  and  O_25
REMARK   11  A    between atoms: O_25  and  C_26
REMARK                            x       y       z     vdW  Elec       q    Type
REMARK                         _______ _______ _______ _____ _____    ______ ____
ROOT
ATOM      1  C   UNL     1      -3.840  10.933  16.626  0.00  0.00    +0.000 A 
ATOM      2  C   UNL     1      -2.620  10.476  17.131  0.00  0.00    +0.000 A 
ATOM      3  C   UNL     1      -2.128  10.892  18.378  0.00  0.00    +0.000 A 
ATOM      4  C   UNL     1      -0.900  10.400  18.828  0.00  0.00    +0.000 A 
ATOM      5  C   UNL     1      -0.429  10.787  20.069  0.00  0.00    +0.000 A 
ATOM      6  C   UNL     1      -1.159  11.634  20.885  0.00  0.00    +0.000 A 
ATOM      7  C   UNL     1      -2.399  12.178  20.488  0.00  0.00    +0.000 A 
ATOM      8  C   UNL     1      -2.877  11.810  19.174  0.00  0.00    +0.000 A 
ATOM      9  C   UNL     1      -4.082  12.293  18.593  0.00  0.00    +0.000 A 
ATOM     10  C   UNL     1      -4.597  11.829  17.377  0.00  0.00    +0.000 A 
ATOM     11  C   UNL     1      -0.388  11.767  22.135  0.00  0.00    +0.000 C 
ATOM     12  O   UNL     1      -0.687  12.359  23.151  0.00  0.00    +0.000 OA
ATOM     13  O   UNL     1       0.791  11.099  21.965  0.00  0.00    +0.000 OA
ATOM     14  C   UNL     1       0.840  10.406  20.714  0.00  0.00    +0.000 C 
ENDROOT
BRANCH   7  15
ATOM     15  C   UNL     1      -3.180  13.091  21.375  0.00  0.00    +0.000 A 
ATOM     16  C   UNL     1      -4.128  12.587  22.275  0.00  0.00    +0.000 A 
ATOM     17  C   UNL     1      -4.918  13.426  23.072  0.00  0.00    +0.000 A 
ATOM     18  C   UNL     1      -4.664  14.812  23.097  0.00  0.00    +0.000 A 
ATOM     19  C   UNL     1      -3.665  15.344  22.264  0.00  0.00    +0.000 A 
ATOM     20  C   UNL     1      -3.001  14.488  21.369  0.00  0.00    +0.000 A 
BRANCH  17  21
ATOM     21  O   UNL     1      -5.952  12.967  23.855  0.00  0.00    +0.000 OA
ATOM     22  C   UNL     1      -7.122  12.522  23.180  0.00  0.00    +0.000 C 
ENDBRANCH  17  21
BRANCH  18  23
ATOM     23  O   UNL     1      -5.500  15.548  23.905  0.00  0.00    +0.000 OA
ATOM     24  C   UNL     1      -6.567  16.239  23.271  0.00  0.00    +0.000 C 
ENDBRANCH  18  23
BRANCH  19  25
ATOM     25  O   UNL     1      -3.408  16.690  22.329  0.00  0.00    +0.000 OA
ATOM     26  C   UNL     1      -2.226  17.116  22.996  0.00  0.00    +0.000 C 
ENDBRANCH  19  25
ENDBRANCH   7  15
BRANCH   1  28
ATOM     27  C   UNL     1      -3.100  10.105  14.534  0.00  0.00    +0.000 C 
ATOM     28  O   UNL     1      -4.185  10.402  15.408  0.00  0.00    +0.000 OA
ENDBRANCH   1  28
BRANCH  10  29
ATOM     29  O   UNL     1      -5.867  12.121  16.959  0.00  0.00    +0.000 OA
ATOM     30  C   UNL     1      -6.895  12.146  17.939  0.00  0.00    +0.000 C 
ENDBRANCH  10  29
TORSDOF 6
ENDMDL
MODEL 6
REMARK VINA RESULT:      -7.2      1.743      6.596
REMARK  Name = 
REMARK  11 active torsions:
REMARK  status: ('A' for Active; 'I' for Inactive)
REMARK    1  A    between atoms: C_1  and  O_2
REMARK    2  A    between atoms: O_2  and  C_3
REMARK    3  A    between atoms: C_9  and  C_10
REMARK    4  A    between atoms: C_12  and  O_13
REMARK    5  A    between atoms: O_13  and  C_14
REMARK    6  A    between atoms: C_15  and  O_16
REMARK    7  A    between atoms: O_16  and  C_17
REMARK    8  A    between atoms: C_18  and  O_19
REMARK    9  A    between atoms: O_19  and  C_20
REMARK   10  A    between atoms: C_24  and  O_25
REMARK   11  A    between atoms: O_25  and  C_26
REMARK                            x       y       z     vdW  Elec       q    Type
REMARK                         _______ _______ _______ _____ _____    ______ ____
ROOT
ATOM      1  C   UNL     1       6.501   5.366  16.856  0.00  0.00    +0.000 A 
ATOM      2  C   UNL     1       5.792   4.226  17.241  0.00  0.00    +0.000 A 
ATOM      3  C   UNL     1       4.601   4.304  17.980  0.00  0.00    +0.000 A 
ATOM      4  C   UNL     1       3.938   3.127  18.336  0.00  0.00    +0.000 A 
ATOM      5  C   UNL     1       2.749   3.204  19.039  0.00  0.00    +0.000 A 
ATOM      6  C   UNL     1       2.191   4.425  19.377  0.00  0.00    +0.000 A 
ATOM      7  C   UNL     1       2.814   5.651  19.062  0.00  0.00    +0.000 A 
ATOM      8  C   UNL     1       4.078   5.575  18.363  0.00  0.00    +0.000 A 
ATOM      9  C   UNL     1       4.864   6.704  18.002  0.00  0.00    +0.000 A 
ATOM     10  C   UNL     1       6.019   6.623  17.213  0.00  0.00    +0.000 A 
ATOM     11  C   UNL     1       0.914   4.121  20.050  0.00  0.00    +0.000 C 
ATOM     12  O   UNL     1       0.067   4.891  20.451  0.00  0.00    +0.000 OA
ATOM     13  O   UNL     1       0.828   2.764  20.176  0.00  0.00    +0.000 OA
ATOM     14  C   UNL     1       1.913   2.094  19.526  0.00  0.00    +0.000 C 
ENDROOT
BRANCH   7  15
ATOM     15  C   UNL     1       2.204   6.963  19.432  0.00  0.00    +0.000 A 
ATOM     16  C   UNL     1       2.164   7.391  20.765  0.00  0.00    +0.000 A 
ATOM     17  C   UNL     1       1.543   8.588  21.145  0.00  0.00    +0.000 A 
ATOM     18  C   UNL     1       1.069   9.476  20.159  0.00  0.00    +0.000 A 
ATOM     19  C   UNL     1       1.164   9.115  18.804  0.00  0.00    +0.000 A 
ATOM     20  C   UNL     1       1.656   7.840  18.475  0.00  0.00    +0.000 A 
BRANCH  17  21
ATOM     21  O   UNL     1       1.363   8.960  22.458  0.00  0.00    +0.000 OA
ATOM     22  C   UNL     1       0.023   9.053  22.923  0.00  0.00    +0.000 C 
ENDBRANCH  17  21
BRANCH  18  23
ATOM     23  O   UNL     1       0.469  10.619  20.636  0.00  0.00    +0.000 OA
ATOM     24  C   UNL     1       1.223  11.821  20.567  0.00  0.00    +0.000 C 
ENDBRANCH  18  23
BRANCH  19  25
ATOM     25  O   UNL     1       0.732  10.008  17.858  0.00  0.00    +0.000 OA
ATOM     26  C   UNL     1      -0.664  10.086  17.597  0.00  0.00    +0.000 C 
ENDBRANCH  19  25
ENDBRANCH   7  15
BRANCH   1  28
ATOM     27  C   UNL     1       7.405   4.839  14.731  0.00  0.00    +0.000 C 
ATOM     28  O   UNL     1       7.626   5.112  16.113  0.00  0.00    +0.000 OA
ENDBRANCH   1  28
BRANCH  10  29
ATOM     29  O   UNL     1       6.618   7.730  16.675  0.00  0.00    +0.000 OA
ATOM     30  C   UNL     1       7.643   8.359  17.430  0.00  0.00    +0.000 C 
ENDBRANCH  10  29
TORSDOF 6
ENDMDL
MODEL 7
REMARK VINA RESULT:      -6.9      7.961     12.135
REMARK  Name = 
REMARK  11 active torsions:
REMARK  status: ('A' for Active; 'I' for Inactive)
REMARK    1  A    between atoms: C_1  and  O_2
REMARK    2  A    between atoms: O_2  and  C_3
REMARK    3  A    between atoms: C_9  and  C_10
REMARK    4  A    between atoms: C_12  and  O_13
REMARK    5  A    between atoms: O_13  and  C_14
REMARK    6  A    between atoms: C_15  and  O_16
REMARK    7  A    between atoms: O_16  and  C_17
REMARK    8  A    between atoms: C_18  and  O_19
REMARK    9  A    between atoms: O_19  and  C_20
REMARK   10  A    between atoms: C_24  and  O_25
REMARK   11  A    between atoms: O_25  and  C_26
REMARK                            x       y       z     vdW  Elec       q    Type
REMARK                         _______ _______ _______ _____ _____    ______ ____
ROOT
ATOM      1  C   UNL     1      -3.046  10.456  17.057  0.00  0.00    +0.000 A 
ATOM      2  C   UNL     1      -1.715  10.585  17.462  0.00  0.00    +0.000 A 
ATOM      3  C   UNL     1      -1.341  11.400  18.542  0.00  0.00    +0.000 A 
ATOM      4  C   UNL     1       0.006  11.488  18.898  0.00  0.00    +0.000 A 
ATOM      5  C   UNL     1       0.372  12.268  19.981  0.00  0.00    +0.000 A 
ATOM      6  C   UNL     1      -0.573  12.944  20.732  0.00  0.00    +0.000 A 
ATOM      7  C   UNL     1      -1.948  12.910  20.421  0.00  0.00    +0.000 A 
ATOM      8  C   UNL     1      -2.332  12.129  19.265  0.00  0.00    +0.000 A 
ATOM      9  C   UNL     1      -3.664  12.015  18.780  0.00  0.00    +0.000 A 
ATOM     10  C   UNL     1      -4.038  11.153  17.741  0.00  0.00    +0.000 A 
ATOM     11  C   UNL     1       0.166  13.604  21.826  0.00  0.00    +0.000 C 
ATOM     12  O   UNL     1      -0.272  14.245  22.758  0.00  0.00    +0.000 OA
ATOM     13  O   UNL     1       1.498  13.385  21.613  0.00  0.00    +0.000 OA
ATOM     14  C   UNL     1       1.728  12.512  20.502  0.00  0.00    +0.000 C 
ENDROOT
BRANCH   7  15
ATOM     15  C   UNL     1      -2.961  13.643  21.238  0.00  0.00    +0.000 A 
ATOM     16  C   UNL     1      -3.641  13.008  22.285  0.00  0.00    +0.000 A 
ATOM     17  C   UNL     1      -4.640  13.654  23.025  0.00  0.00    +0.000 A 
ATOM     18  C   UNL     1      -4.879  15.029  22.828  0.00  0.00    +0.000 A 
ATOM     19  C   UNL     1      -4.158  15.719  21.838  0.00  0.00    +0.000 A 
ATOM     20  C   UNL     1      -3.275  14.998  21.015  0.00  0.00    +0.000 A 
BRANCH  17  21
ATOM     21  O   UNL     1      -5.421  13.013  23.958  0.00  0.00    +0.000 OA
ATOM     22  C   UNL     1      -4.744  12.296  24.982  0.00  0.00    +0.000 C 
ENDBRANCH  17  21
BRANCH  18  23
ATOM     23  O   UNL     1      -5.885  15.567  23.598  0.00  0.00    +0.000 OA
ATOM     24  C   UNL     1      -7.157  15.718  22.984  0.00  0.00    +0.000 C 
ENDBRANCH  18  23
BRANCH  19  25
ATOM     25  O   UNL     1      -4.379  17.064  21.686  0.00  0.00    +0.000 OA
ATOM     26  C   UNL     1      -4.514  17.578  20.367  0.00  0.00    +0.000 C 
ENDBRANCH  19  25
ENDBRANCH   7  15
BRANCH   1  28
ATOM     27  C   UNL     1      -3.125  10.173  14.706  0.00  0.00    +0.000 C 
ATOM     28  O   UNL     1      -3.238   9.596  16.005  0.00  0.00    +0.000 OA
ENDBRANCH   1  28
BRANCH  10  29
ATOM     29  O   UNL     1      -5.347  10.875  17.455  0.00  0.00    +0.000 OA
ATOM     30  C   UNL     1      -6.268  10.850  18.536  0.00  0.00    +0.000 C 
ENDBRANCH  10  29
TORSDOF 6
ENDMDL
MODEL 8
REMARK VINA RESULT:      -6.9      7.986     12.124
REMARK  Name = 
REMARK  11 active torsions:
REMARK  status: ('A' for Active; 'I' for Inactive)
REMARK    1  A    between atoms: C_1  and  O_2
REMARK    2  A    between atoms: O_2  and  C_3
REMARK    3  A    between atoms: C_9  and  C_10
REMARK    4  A    between atoms: C_12  and  O_13
REMARK    5  A    between atoms: O_13  and  C_14
REMARK    6  A    between atoms: C_15  and  O_16
REMARK    7  A    between atoms: O_16  and  C_17
REMARK    8  A    between atoms: C_18  and  O_19
REMARK    9  A    between atoms: O_19  and  C_20
REMARK   10  A    between atoms: C_24  and  O_25
REMARK   11  A    between atoms: O_25  and  C_26
REMARK                            x       y       z     vdW  Elec       q    Type
REMARK                         _______ _______ _______ _____ _____    ______ ____
ROOT
ATOM      1  C   UNL     1      -3.195  10.456  17.076  0.00  0.00    +0.000 A 
ATOM      2  C   UNL     1      -1.859  10.559  17.473  0.00  0.00    +0.000 A 
ATOM      3  C   UNL     1      -1.464  11.361  18.555  0.00  0.00    +0.000 A 
ATOM      4  C   UNL     1      -0.113  11.424  18.903  0.00  0.00    +0.000 A 
ATOM      5  C   UNL     1       0.274  12.191  19.987  0.00  0.00    +0.000 A 
ATOM      6  C   UNL     1      -0.654  12.881  20.748  0.00  0.00    +0.000 A 
ATOM      7  C   UNL     1      -2.032  12.873  20.445  0.00  0.00    +0.000 A 
ATOM      8  C   UNL     1      -2.437  12.106  19.288  0.00  0.00    +0.000 A 
ATOM      9  C   UNL     1      -3.773  12.017  18.811  0.00  0.00    +0.000 A 
ATOM     10  C   UNL     1      -4.170  11.168  17.770  0.00  0.00    +0.000 A 
ATOM     11  C   UNL     1       0.104  13.522  21.839  0.00  0.00    +0.000 C 
ATOM     12  O   UNL     1      -0.316  14.166  22.777  0.00  0.00    +0.000 OA
ATOM     13  O   UNL     1       1.430  13.280  21.617  0.00  0.00    +0.000 OA
ATOM     14  C   UNL     1       1.638  12.409  20.501  0.00  0.00    +0.000 C 
ENDROOT
BRANCH   7  15
ATOM     15  C   UNL     1      -3.025  13.621  21.272  0.00  0.00    +0.000 A 
ATOM     16  C   UNL     1      -3.392  14.933  20.949  0.00  0.00    +0.000 A 
ATOM     17  C   UNL     1      -4.274  15.678  21.743  0.00  0.00    +0.000 A 
ATOM     18  C   UNL     1      -4.939  15.059  22.820  0.00  0.00    +0.000 A 
ATOM     19  C   UNL     1      -4.654  13.717  23.127  0.00  0.00    +0.000 A 
ATOM     20  C   UNL     1      -3.652  13.053  22.399  0.00  0.00    +0.000 A 
BRANCH  17  21
ATOM     21  O   UNL     1      -4.538  17.011  21.530  0.00  0.00    +0.000 OA
ATOM     22  C   UNL     1      -4.491  17.471  20.186  0.00  0.00    +0.000 C 
ENDBRANCH  17  21
BRANCH  18  23
ATOM     23  O   UNL     1      -5.777  15.878  23.542  0.00  0.00    +0.000 OA
ATOM     24  C   UNL     1      -5.206  16.583  24.636  0.00  0.00    +0.000 C 
ENDBRANCH  18  23
BRANCH  19  25
ATOM     25  O   UNL     1      -5.340  13.122  24.155  0.00  0.00    +0.000 OA
ATOM     26  C   UNL     1      -6.654  12.644  23.898  0.00  0.00    +0.000 C 
ENDBRANCH  19  25
ENDBRANCH   7  15
BRANCH   1  28
ATOM     27  C   UNL     1      -3.098  10.127  14.733  0.00  0.00    +0.000 C 
ATOM     28  O   UNL     1      -3.410   9.605  16.022  0.00  0.00    +0.000 OA
ENDBRANCH   1  28
BRANCH  10  29
ATOM     29  O   UNL     1      -5.486  10.915  17.492  0.00  0.00    +0.000 OA
ATOM     30  C   UNL     1      -6.392  10.855  18.584  0.00  0.00    +0.000 C 
ENDBRANCH  10  29
TORSDOF 6
ENDMDL
MODEL 9
REMARK VINA RESULT:      -6.8      7.333     10.423
REMARK  Name = 
REMARK  11 active torsions:
REMARK  status: ('A' for Active; 'I' for Inactive)
REMARK    1  A    between atoms: C_1  and  O_2
REMARK    2  A    between atoms: O_2  and  C_3
REMARK    3  A    between atoms: C_9  and  C_10
REMARK    4  A    between atoms: C_12  and  O_13
REMARK    5  A    between atoms: O_13  and  C_14
REMARK    6  A    between atoms: C_15  and  O_16
REMARK    7  A    between atoms: O_16  and  C_17
REMARK    8  A    between atoms: C_18  and  O_19
REMARK    9  A    between atoms: O_19  and  C_20
REMARK   10  A    between atoms: C_24  and  O_25
REMARK   11  A    between atoms: O_25  and  C_26
REMARK                            x       y       z     vdW  Elec       q    Type
REMARK                         _______ _______ _______ _____ _____    ______ ____
ROOT
ATOM      1  C   UNL     1      -5.721  14.205  23.153  0.00  0.00    +0.000 A 
ATOM      2  C   UNL     1      -6.253  13.555  22.036  0.00  0.00    +0.000 A 
ATOM      3  C   UNL     1      -5.439  13.063  21.003  0.00  0.00    +0.000 A 
ATOM      4  C   UNL     1      -6.030  12.423  19.912  0.00  0.00    +0.000 A 
ATOM      5  C   UNL     1      -5.227  11.913  18.908  0.00  0.00    +0.000 A 
ATOM      6  C   UNL     1      -3.847  12.004  18.974  0.00  0.00    +0.000 A 
ATOM      7  C   UNL     1      -3.185  12.649  20.039  0.00  0.00    +0.000 A 
ATOM      8  C   UNL     1      -4.022  13.221  21.072  0.00  0.00    +0.000 A 
ATOM      9  C   UNL     1      -3.531  13.941  22.195  0.00  0.00    +0.000 A 
ATOM     10  C   UNL     1      -4.342  14.375  23.252  0.00  0.00    +0.000 A 
ATOM     11  C   UNL     1      -3.331  11.304  17.783  0.00  0.00    +0.000 C 
ATOM     12  O   UNL     1      -2.179  11.080  17.475  0.00  0.00    +0.000 OA
ATOM     13  O   UNL     1      -4.406  10.934  17.024  0.00  0.00    +0.000 OA
ATOM     14  C   UNL     1      -5.647  11.230  17.672  0.00  0.00    +0.000 C 
ENDROOT
BRANCH   7  15
ATOM     15  C   UNL     1      -1.696  12.743  20.102  0.00  0.00    +0.000 A 
ATOM     16  C   UNL     1      -1.015  13.819  19.518  0.00  0.00    +0.000 A 
ATOM     17  C   UNL     1       0.384  13.898  19.508  0.00  0.00    +0.000 A 
ATOM     18  C   UNL     1       1.144  12.957  20.230  0.00  0.00    +0.000 A 
ATOM     19  C   UNL     1       0.489  11.906  20.895  0.00  0.00    +0.000 A 
ATOM     20  C   UNL     1      -0.903  11.777  20.753  0.00  0.00    +0.000 A 
BRANCH  17  21
ATOM     21  O   UNL     1       1.079  14.865  18.819  0.00  0.00    +0.000 OA
ATOM     22  C   UNL     1       0.548  16.183  18.846  0.00  0.00    +0.000 C 
ENDBRANCH  17  21
BRANCH  18  23
ATOM     23  O   UNL     1       2.509  13.118  20.150  0.00  0.00    +0.000 OA
ATOM     24  C   UNL     1       3.123  13.923  21.147  0.00  0.00    +0.000 C 
ENDBRANCH  18  23
BRANCH  19  25
ATOM     25  O   UNL     1       1.244  11.022  21.623  0.00  0.00    +0.000 OA
ATOM     26  C   UNL     1       0.672   9.762  21.951  0.00  0.00    +0.000 C 
ENDBRANCH  19  25
ENDBRANCH   7  15
BRANCH   1  28
ATOM     27  C   UNL     1      -7.703  13.661  24.330  0.00  0.00    +0.000 C 
ATOM     28  O   UNL     1      -6.654  14.593  24.081  0.00  0.00    +0.000 OA
ENDBRANCH   1  28
BRANCH  10  29
ATOM     29  O   UNL     1      -3.825  14.843  24.429  0.00  0.00    +0.000 OA
ATOM     30  C   UNL     1      -2.422  14.734  24.623  0.00  0.00    +0.000 C 
ENDBRANCH  10  29
TORSDOF 6
ENDMDL
