MODEL 1
REMARK VINA RESULT:      -6.9      0.000      0.000
REMARK  Name = 
REMARK  1 active torsions:
REMARK  status: ('A' for Active; 'I' for Inactive)
REMARK    1  A    between atoms: C_13  and  C_14
REMARK                            x       y       z     vdW  Elec       q    Type
REMARK                         _______ _______ _______ _____ _____    ______ ____
ROOT
ATOM      1  O   UNL     1       3.755   1.440  17.875  0.00  0.00    +0.000 OA
ATOM      2  C   UNL     1       3.733   2.646  18.091  0.00  0.00    +0.000 C 
ATOM      3  C   UNL     1       3.092   3.171  19.331  0.00  0.00    +0.000 A 
ATOM      4  C   UNL     1       2.536   2.297  20.272  0.00  0.00    +0.000 A 
ATOM      5  C   UNL     1       1.934   2.811  21.422  0.00  0.00    +0.000 A 
ATOM      6  C   UNL     1       1.904   4.183  21.598  0.00  0.00    +0.000 A 
ATOM      7  N   UNL     1       2.434   5.053  20.718  0.00  0.00    +0.000 NA
ATOM      8  C   UNL     1       3.018   4.538  19.601  0.00  0.00    +0.000 A 
ATOM      9  C   UNL     1       3.614   5.545  18.667  0.00  0.00    +0.000 C 
ATOM     10  O   UNL     1       3.547   6.746  18.907  0.00  0.00    +0.000 OA
ATOM     11  C   UNL     1       4.251   4.983  17.510  0.00  0.00    +0.000 A 
ATOM     12  S   UNL     1       5.054   5.924  16.354  0.00  0.00    +0.000 S 
ATOM     13  C   UNL     1       5.458   4.489  15.491  0.00  0.00    +0.000 A 
ATOM     14  N   UNL     1       4.989   3.365  16.008  0.00  0.00    +0.000 NA
ATOM     15  C   UNL     1       4.319   3.645  17.199  0.00  0.00    +0.000 A 
ENDROOT
BRANCH  13  16
ATOM     16  C   UNL     1       6.318   4.564  14.256  0.00  0.00    +0.000 A 
ATOM     17  C   UNL     1       6.116   3.793  13.130  0.00  0.00    +0.000 A 
ATOM     18  S   UNL     1       7.342   4.123  11.972  0.00  0.00    +0.000 S 
ATOM     19  C   UNL     1       8.039   5.256  13.052  0.00  0.00    +0.000 A 
ATOM     20  N   UNL     1       7.411   5.421  14.194  0.00  0.00    +0.000 NA
ENDBRANCH  13  16
TORSDOF 1
ENDMDL
MODEL 2
REMARK VINA RESULT:      -6.7      1.409      1.416
REMARK  Name = 
REMARK  1 active torsions:
REMARK  status: ('A' for Active; 'I' for Inactive)
REMARK    1  A    between atoms: C_13  and  C_14
REMARK                            x       y       z     vdW  Elec       q    Type
REMARK                         _______ _______ _______ _____ _____    ______ ____
ROOT
ATOM      1  O   UNL     1       1.817   3.210  16.681  0.00  0.00    +0.000 OA
ATOM      2  C   UNL     1       2.737   3.522  17.427  0.00  0.00    +0.000 C 
ATOM      3  C   UNL     1       2.557   3.451  18.906  0.00  0.00    +0.000 A 
ATOM      4  C   UNL     1       1.352   3.002  19.457  0.00  0.00    +0.000 A 
ATOM      5  C   UNL     1       1.202   2.951  20.844  0.00  0.00    +0.000 A 
ATOM      6  C   UNL     1       2.261   3.351  21.641  0.00  0.00    +0.000 A 
ATOM      7  N   UNL     1       3.437   3.782  21.146  0.00  0.00    +0.000 NA
ATOM      8  C   UNL     1       3.568   3.827  19.791  0.00  0.00    +0.000 A 
ATOM      9  C   UNL     1       4.903   4.288  19.292  0.00  0.00    +0.000 C 
ATOM     10  O   UNL     1       5.789   4.618  20.072  0.00  0.00    +0.000 OA
ATOM     11  C   UNL     1       5.034   4.301  17.862  0.00  0.00    +0.000 A 
ATOM     12  S   UNL     1       6.473   4.718  17.075  0.00  0.00    +0.000 S 
ATOM     13  C   UNL     1       5.709   4.424  15.559  0.00  0.00    +0.000 A 
ATOM     14  N   UNL     1       4.436   4.071  15.625  0.00  0.00    +0.000 NA
ATOM     15  C   UNL     1       4.051   3.964  16.961  0.00  0.00    +0.000 A 
ENDROOT
BRANCH  13  16
ATOM     16  C   UNL     1       6.494   4.542  14.279  0.00  0.00    +0.000 A 
ATOM     17  C   UNL     1       6.240   3.793  13.149  0.00  0.00    +0.000 A 
ATOM     18  S   UNL     1       7.391   4.169  11.929  0.00  0.00    +0.000 S 
ATOM     19  C   UNL     1       8.130   5.292  12.993  0.00  0.00    +0.000 A 
ATOM     20  N   UNL     1       7.567   5.420  14.173  0.00  0.00    +0.000 NA
ENDBRANCH  13  16
TORSDOF 1
ENDMDL
MODEL 3
REMARK VINA RESULT:      -6.3      3.283      4.502
REMARK  Name = 
REMARK  1 active torsions:
REMARK  status: ('A' for Active; 'I' for Inactive)
REMARK    1  A    between atoms: C_13  and  C_14
REMARK                            x       y       z     vdW  Elec       q    Type
REMARK                         _______ _______ _______ _____ _____    ______ ____
ROOT
ATOM      1  O   UNL     1       2.301   9.719  17.413  0.00  0.00    +0.000 OA
ATOM      2  C   UNL     1       2.286   8.774  18.192  0.00  0.00    +0.000 C 
ATOM      3  C   UNL     1       1.408   8.813  19.398  0.00  0.00    +0.000 A 
ATOM      4  C   UNL     1       0.573   9.910  19.637  0.00  0.00    +0.000 A 
ATOM      5  C   UNL     1      -0.236   9.929  20.775  0.00  0.00    +0.000 A 
ATOM      6  C   UNL     1      -0.186   8.851  21.642  0.00  0.00    +0.000 A 
ATOM      7  N   UNL     1       0.599   7.776  21.440  0.00  0.00    +0.000 NA
ATOM      8  C   UNL     1       1.383   7.772  20.326  0.00  0.00    +0.000 A 
ATOM      9  C   UNL     1       2.217   6.544  20.135  0.00  0.00    +0.000 C 
ATOM     10  O   UNL     1       2.194   5.631  20.954  0.00  0.00    +0.000 OA
ATOM     11  C   UNL     1       3.015   6.543  18.941  0.00  0.00    +0.000 A 
ATOM     12  S   UNL     1       3.982   5.232  18.482  0.00  0.00    +0.000 S 
ATOM     13  C   UNL     1       4.447   6.092  17.064  0.00  0.00    +0.000 A 
ATOM     14  N   UNL     1       3.943   7.310  16.950  0.00  0.00    +0.000 NA
ATOM     15  C   UNL     1       3.084   7.561  18.020  0.00  0.00    +0.000 A 
ENDROOT
BRANCH  13  16
ATOM     16  C   UNL     1       5.340   5.441  16.041  0.00  0.00    +0.000 A 
ATOM     17  C   UNL     1       4.933   4.427  15.199  0.00  0.00    +0.000 A 
ATOM     18  S   UNL     1       6.255   3.909  14.230  0.00  0.00    +0.000 S 
ATOM     19  C   UNL     1       7.255   5.068  15.001  0.00  0.00    +0.000 A 
ATOM     20  N   UNL     1       6.670   5.822  15.903  0.00  0.00    +0.000 NA
ENDBRANCH  13  16
TORSDOF 1
ENDMDL
MODEL 4
REMARK VINA RESULT:      -6.3      4.447      7.779
REMARK  Name = 
REMARK  1 active torsions:
REMARK  status: ('A' for Active; 'I' for Inactive)
REMARK    1  A    between atoms: C_13  and  C_14
REMARK                            x       y       z     vdW  Elec       q    Type
REMARK                         _______ _______ _______ _____ _____    ______ ____
ROOT
ATOM      1  O   UNL     1       2.111   4.911  21.244  0.00  0.00    +0.000 OA
ATOM      2  C   UNL     1       2.351   5.635  20.285  0.00  0.00    +0.000 C 
ATOM      3  C   UNL     1       3.126   5.107  19.125  0.00  0.00    +0.000 A 
ATOM      4  C   UNL     1       3.561   3.777  19.104  0.00  0.00    +0.000 A 
ATOM      5  C   UNL     1       4.292   3.305  18.012  0.00  0.00    +0.000 A 
ATOM      6  C   UNL     1       4.566   4.176  16.972  0.00  0.00    +0.000 A 
ATOM      7  N   UNL     1       4.158   5.459  16.954  0.00  0.00    +0.000 NA
ATOM      8  C   UNL     1       3.447   5.905  18.027  0.00  0.00    +0.000 A 
ATOM      9  C   UNL     1       2.994   7.330  17.947  0.00  0.00    +0.000 C 
ATOM     10  O   UNL     1       3.279   8.030  16.981  0.00  0.00    +0.000 OA
ATOM     11  C   UNL     1       2.222   7.776  19.072  0.00  0.00    +0.000 A 
ATOM     12  S   UNL     1       1.545   9.324  19.168  0.00  0.00    +0.000 S 
ATOM     13  C   UNL     1       0.862   8.914  20.695  0.00  0.00    +0.000 A 
ATOM     14  N   UNL     1       1.151   7.701  21.137  0.00  0.00    +0.000 NA
ATOM     15  C   UNL     1       1.910   7.025  20.181  0.00  0.00    +0.000 A 
ENDROOT
BRANCH  13  16
ATOM     16  C   UNL     1      -0.024   9.894  21.418  0.00  0.00    +0.000 A 
ATOM     17  C   UNL     1      -0.475  11.075  20.865  0.00  0.00    +0.000 A 
ATOM     18  S   UNL     1      -1.400  11.944  22.025  0.00  0.00    +0.000 S 
ATOM     19  C   UNL     1      -1.129  10.689  23.161  0.00  0.00    +0.000 A 
ATOM     20  N   UNL     1      -0.425   9.668  22.730  0.00  0.00    +0.000 NA
ENDBRANCH  13  16
TORSDOF 1
ENDMDL
MODEL 5
REMARK VINA RESULT:      -6.2      4.900      7.500
REMARK  Name = 
REMARK  1 active torsions:
REMARK  status: ('A' for Active; 'I' for Inactive)
REMARK    1  A    between atoms: C_13  and  C_14
REMARK                            x       y       z     vdW  Elec       q    Type
REMARK                         _______ _______ _______ _____ _____    ______ ____
ROOT
ATOM      1  O   UNL     1       0.262   8.991  22.446  0.00  0.00    +0.000 OA
ATOM      2  C   UNL     1       0.691   9.150  21.309  0.00  0.00    +0.000 C 
ATOM      3  C   UNL     1       0.577  10.482  20.647  0.00  0.00    +0.000 A 
ATOM      4  C   UNL     1       0.008  11.568  21.322  0.00  0.00    +0.000 A 
ATOM      5  C   UNL     1      -0.096  12.803  20.681  0.00  0.00    +0.000 A 
ATOM      6  C   UNL     1       0.370  12.918  19.383  0.00  0.00    +0.000 A 
ATOM      7  N   UNL     1       0.930  11.898  18.705  0.00  0.00    +0.000 NA
ATOM      8  C   UNL     1       1.024  10.698  19.344  0.00  0.00    +0.000 A 
ATOM      9  C   UNL     1       1.677   9.604  18.557  0.00  0.00    +0.000 C 
ATOM     10  O   UNL     1       2.068   9.797  17.411  0.00  0.00    +0.000 OA
ATOM     11  C   UNL     1       1.794   8.355  19.255  0.00  0.00    +0.000 A 
ATOM     12  S   UNL     1       2.560   6.999  18.591  0.00  0.00    +0.000 S 
ATOM     13  C   UNL     1       2.249   6.131  20.046  0.00  0.00    +0.000 A 
ATOM     14  N   UNL     1       1.575   6.797  20.970  0.00  0.00    +0.000 NA
ATOM     15  C   UNL     1       1.341   8.099  20.528  0.00  0.00    +0.000 A 
ENDROOT
BRANCH  13  16
ATOM     16  C   UNL     1       2.762   4.725  20.215  0.00  0.00    +0.000 A 
ATOM     17  C   UNL     1       3.703   4.146  19.390  0.00  0.00    +0.000 A 
ATOM     18  S   UNL     1       3.973   2.517  19.868  0.00  0.00    +0.000 S 
ATOM     19  C   UNL     1       2.826   2.712  21.127  0.00  0.00    +0.000 A 
ATOM     20  N   UNL     1       2.281   3.902  21.227  0.00  0.00    +0.000 NA
ENDBRANCH  13  16
TORSDOF 1
ENDMDL
MODEL 6
REMARK VINA RESULT:      -6.2      1.302      2.570
REMARK  Name = 
REMARK  1 active torsions:
REMARK  status: ('A' for Active; 'I' for Inactive)
REMARK    1  A    between atoms: C_13  and  C_14
REMARK                            x       y       z     vdW  Elec       q    Type
REMARK                         _______ _______ _______ _____ _____    ______ ____
ROOT
ATOM      1  O   UNL     1       3.531   7.569  17.550  0.00  0.00    +0.000 OA
ATOM      2  C   UNL     1       3.676   6.384  17.824  0.00  0.00    +0.000 C 
ATOM      3  C   UNL     1       2.992   5.802  19.015  0.00  0.00    +0.000 A 
ATOM      4  C   UNL     1       2.157   6.592  19.814  0.00  0.00    +0.000 A 
ATOM      5  C   UNL     1       1.532   6.030  20.928  0.00  0.00    +0.000 A 
ATOM      6  C   UNL     1       1.761   4.694  21.214  0.00  0.00    +0.000 A 
ATOM      7  N   UNL     1       2.552   3.904  20.464  0.00  0.00    +0.000 NA
ATOM      8  C   UNL     1       3.155   4.466  19.380  0.00  0.00    +0.000 A 
ATOM      9  C   UNL     1       4.002   3.538  18.566  0.00  0.00    +0.000 C 
ATOM     10  O   UNL     1       4.144   2.364  18.890  0.00  0.00    +0.000 OA
ATOM     11  C   UNL     1       4.607   4.140  17.411  0.00  0.00    +0.000 A 
ATOM     12  S   UNL     1       5.548   3.269  16.306  0.00  0.00    +0.000 S 
ATOM     13  C   UNL     1       5.753   4.703  15.375  0.00  0.00    +0.000 A 
ATOM     14  N   UNL     1       5.185   5.789  15.874  0.00  0.00    +0.000 NA
ATOM     15  C   UNL     1       4.490   5.458  17.037  0.00  0.00    +0.000 A 
ENDROOT
BRANCH  13  16
ATOM     16  C   UNL     1       6.506   4.659  14.071  0.00  0.00    +0.000 A 
ATOM     17  C   UNL     1       6.212   3.788  13.042  0.00  0.00    +0.000 A 
ATOM     18  S   UNL     1       7.336   4.003  11.759  0.00  0.00    +0.000 S 
ATOM     19  C   UNL     1       8.117   5.229  12.667  0.00  0.00    +0.000 A 
ATOM     20  N   UNL     1       7.587   5.502  13.837  0.00  0.00    +0.000 NA
ENDBRANCH  13  16
TORSDOF 1
ENDMDL
MODEL 7
REMARK VINA RESULT:      -6.2      4.079      7.247
REMARK  Name = 
REMARK  1 active torsions:
REMARK  status: ('A' for Active; 'I' for Inactive)
REMARK    1  A    between atoms: C_13  and  C_14
REMARK                            x       y       z     vdW  Elec       q    Type
REMARK                         _______ _______ _______ _____ _____    ______ ____
ROOT
ATOM      1  O   UNL     1       1.614   4.004  21.483  0.00  0.00    +0.000 OA
ATOM      2  C   UNL     1       2.046   4.623  20.517  0.00  0.00    +0.000 C 
ATOM      3  C   UNL     1       2.746   3.897  19.418  0.00  0.00    +0.000 A 
ATOM      4  C   UNL     1       2.893   2.506  19.461  0.00  0.00    +0.000 A 
ATOM      5  C   UNL     1       3.559   1.849  18.425  0.00  0.00    +0.000 A 
ATOM      6  C   UNL     1       4.060   2.600  17.376  0.00  0.00    +0.000 A 
ATOM      7  N   UNL     1       3.931   3.938  17.298  0.00  0.00    +0.000 NA
ATOM      8  C   UNL     1       3.280   4.566  18.316  0.00  0.00    +0.000 A 
ATOM      9  C   UNL     1       3.141   6.049  18.168  0.00  0.00    +0.000 C 
ATOM     10  O   UNL     1       3.612   6.635  17.199  0.00  0.00    +0.000 OA
ATOM     11  C   UNL     1       2.427   6.692  19.235  0.00  0.00    +0.000 A 
ATOM     12  S   UNL     1       2.087   8.350  19.247  0.00  0.00    +0.000 S 
ATOM     13  C   UNL     1       1.262   8.153  20.746  0.00  0.00    +0.000 A 
ATOM     14  N   UNL     1       1.267   6.926  21.239  0.00  0.00    +0.000 NA
ATOM     15  C   UNL     1       1.912   6.068  20.347  0.00  0.00    +0.000 A 
ENDROOT
BRANCH  13  16
ATOM     16  C   UNL     1       0.568   9.326  21.389  0.00  0.00    +0.000 A 
ATOM     17  C   UNL     1      -0.282   9.218  22.470  0.00  0.00    +0.000 A 
ATOM     18  S   UNL     1      -0.921  10.765  22.864  0.00  0.00    +0.000 S 
ATOM     19  C   UNL     1      -0.021  11.449  21.576  0.00  0.00    +0.000 A 
ATOM     20  N   UNL     1       0.733  10.616  20.897  0.00  0.00    +0.000 NA
ENDBRANCH  13  16
TORSDOF 1
ENDMDL
MODEL 8
REMARK VINA RESULT:      -6.1      4.951      8.174
REMARK  Name = 
REMARK  1 active torsions:
REMARK  status: ('A' for Active; 'I' for Inactive)
REMARK    1  A    between atoms: C_13  and  C_14
REMARK                            x       y       z     vdW  Elec       q    Type
REMARK                         _______ _______ _______ _____ _____    ______ ____
ROOT
ATOM      1  O   UNL     1       2.891   8.708  17.075  0.00  0.00    +0.000 OA
ATOM      2  C   UNL     1       2.749   7.926  18.007  0.00  0.00    +0.000 C 
ATOM      3  C   UNL     1       3.466   6.618  18.000  0.00  0.00    +0.000 A 
ATOM      4  C   UNL     1       4.326   6.281  16.949  0.00  0.00    +0.000 A 
ATOM      5  C   UNL     1       4.981   5.048  16.958  0.00  0.00    +0.000 A 
ATOM      6  C   UNL     1       4.757   4.186  18.018  0.00  0.00    +0.000 A 
ATOM      7  N   UNL     1       3.942   4.479  19.049  0.00  0.00    +0.000 NA
ATOM      8  C   UNL     1       3.310   5.686  19.026  0.00  0.00    +0.000 A 
ATOM      9  C   UNL     1       2.437   5.974  20.208  0.00  0.00    +0.000 C 
ATOM     10  O   UNL     1       2.300   5.152  21.108  0.00  0.00    +0.000 OA
ATOM     11  C   UNL     1       1.801   7.261  20.181  0.00  0.00    +0.000 A 
ATOM     12  S   UNL     1       0.826   7.831  21.442  0.00  0.00    +0.000 S 
ATOM     13  C   UNL     1       0.599   9.304  20.578  0.00  0.00    +0.000 A 
ATOM     14  N   UNL     1       1.183   9.361  19.393  0.00  0.00    +0.000 NA
ATOM     15  C   UNL     1       1.911   8.191  19.175  0.00  0.00    +0.000 A 
ENDROOT
BRANCH  13  16
ATOM     16  C   UNL     1      -0.192  10.429  21.193  0.00  0.00    +0.000 A 
ATOM     17  C   UNL     1      -0.464  10.531  22.541  0.00  0.00    +0.000 A 
ATOM     18  S   UNL     1      -1.444  11.912  22.834  0.00  0.00    +0.000 S 
ATOM     19  C   UNL     1      -1.426  12.263  21.157  0.00  0.00    +0.000 A 
ATOM     20  N   UNL     1      -0.727  11.443  20.407  0.00  0.00    +0.000 NA
ENDBRANCH  13  16
TORSDOF 1
ENDMDL
MODEL 9
REMARK VINA RESULT:      -6.1      4.676      7.637
REMARK  Name = 
REMARK  1 active torsions:
REMARK  status: ('A' for Active; 'I' for Inactive)
REMARK    1  A    between atoms: C_13  and  C_14
REMARK                            x       y       z     vdW  Elec       q    Type
REMARK                         _______ _______ _______ _____ _____    ______ ____
ROOT
ATOM      1  O   UNL     1       3.355   8.006  16.767  0.00  0.00    +0.000 OA
ATOM      2  C   UNL     1       3.088   7.386  17.790  0.00  0.00    +0.000 C 
ATOM      3  C   UNL     1       3.658   6.026  18.010  0.00  0.00    +0.000 A 
ATOM      4  C   UNL     1       4.524   5.455  17.071  0.00  0.00    +0.000 A 
ATOM      5  C   UNL     1       5.041   4.177  17.293  0.00  0.00    +0.000 A 
ATOM      6  C   UNL     1       4.677   3.506  18.448  0.00  0.00    +0.000 A 
ATOM      7  N   UNL     1       3.852   4.027  19.376  0.00  0.00    +0.000 NA
ATOM      8  C   UNL     1       3.356   5.274  19.145  0.00  0.00    +0.000 A 
ATOM      9  C   UNL     1       2.465   5.817  20.220  0.00  0.00    +0.000 C 
ATOM     10  O   UNL     1       2.200   5.153  21.216  0.00  0.00    +0.000 OA
ATOM     11  C   UNL     1       1.974   7.144  19.974  0.00  0.00    +0.000 A 
ATOM     12  S   UNL     1       1.010   7.987  21.081  0.00  0.00    +0.000 S 
ATOM     13  C   UNL     1       0.983   9.333  20.007  0.00  0.00    +0.000 A 
ATOM     14  N   UNL     1       1.624   9.158  18.863  0.00  0.00    +0.000 NA
ATOM     15  C   UNL     1       2.230   7.902  18.856  0.00  0.00    +0.000 A 
ENDROOT
BRANCH  13  16
ATOM     16  C   UNL     1       0.291  10.610  20.408  0.00  0.00    +0.000 A 
ATOM     17  C   UNL     1      -0.676  11.232  19.647  0.00  0.00    +0.000 A 
ATOM     18  S   UNL     1      -1.168  12.691  20.412  0.00  0.00    +0.000 S 
ATOM     19  C   UNL     1      -0.064  12.380  21.685  0.00  0.00    +0.000 A 
ATOM     20  N   UNL     1       0.620  11.263  21.591  0.00  0.00    +0.000 NA
ENDBRANCH  13  16
TORSDOF 1
ENDMDL
