MODEL 1
REMARK VINA RESULT:      -6.8      0.000      0.000
REMARK  Name = 
REMARK  4 active torsions:
REMARK  status: ('A' for Active; 'I' for Inactive)
REMARK    1  A    between atoms: C_1  and  C_2
REMARK    2  A    between atoms: C_2  and  N_3
REMARK    3  A    between atoms: C_2  and  C_10
REMARK    4  A    between atoms: C_4  and  C_6
REMARK                            x       y       z     vdW  Elec       q    Type
REMARK                         _______ _______ _______ _____ _____    ______ ____
ROOT
ATOM      1  N   UNL     1       4.433   5.672  18.096  0.00  0.00    +0.000 N 
ATOM      2  C   UNL     1       5.267   4.851  17.345  0.00  0.00    +0.000 C 
ATOM      3  N   UNL     1       4.898   3.650  17.002  0.00  0.00    +0.000 NA
ATOM      4  H   UNL     1       4.818   6.594  18.311  0.00  0.00    +0.000 HD
ATOM      5  H   UNL     1       3.981   3.428  17.395  0.00  0.00    +0.000 HD
ENDROOT
BRANCH   2   6
ATOM      6  C   UNL     1       6.710   5.342  16.932  0.00  0.00    +0.000 C 
ATOM      7 CL   UNL     1       7.941   4.466  17.893  0.00  0.00    +0.000 Cl
ATOM      8 CL   UNL     1       6.953   4.998  15.204  0.00  0.00    +0.000 Cl
ATOM      9 CL   UNL     1       6.842   7.085  17.270  0.00  0.00    +0.000 Cl
ENDBRANCH   2   6
BRANCH   1  11
ATOM     10  C   UNL     1       2.512   7.161  18.114  0.00  0.00    +0.000 C 
ATOM     11  C   UNL     1       2.976   5.707  17.996  0.00  0.00    +0.000 C 
BRANCH  11  12
ATOM     12  C   UNL     1       2.394   4.746  19.027  0.00  0.00    +0.000 A 
ATOM     13  C   UNL     1       2.687   4.817  20.398  0.00  0.00    +0.000 A 
ATOM     14  C   UNL     1       2.080   3.945  21.309  0.00  0.00    +0.000 A 
ATOM     15  C   UNL     1       1.170   2.989  20.864  0.00  0.00    +0.000 A 
ATOM     16  C   UNL     1       0.867   2.900  19.511  0.00  0.00    +0.000 A 
ATOM     17  C   UNL     1       1.470   3.772  18.601  0.00  0.00    +0.000 A 
ENDBRANCH  11  12
ENDBRANCH   1  11
TORSDOF 3
ENDMDL
MODEL 2
REMARK VINA RESULT:      -6.8      0.192      1.810
REMARK  Name = 
REMARK  4 active torsions:
REMARK  status: ('A' for Active; 'I' for Inactive)
REMARK    1  A    between atoms: C_1  and  C_2
REMARK    2  A    between atoms: C_2  and  N_3
REMARK    3  A    between atoms: C_2  and  C_10
REMARK    4  A    between atoms: C_4  and  C_6
REMARK                            x       y       z     vdW  Elec       q    Type
REMARK                         _______ _______ _______ _____ _____    ______ ____
ROOT
ATOM      1  N   UNL     1       4.349   5.671  18.101  0.00  0.00    +0.000 N 
ATOM      2  C   UNL     1       5.132   4.968  17.191  0.00  0.00    +0.000 C 
ATOM      3  N   UNL     1       4.689   3.885  16.619  0.00  0.00    +0.000 NA
ATOM      4  H   UNL     1       4.790   6.506  18.491  0.00  0.00    +0.000 HD
ATOM      5  H   UNL     1       3.760   3.645  16.970  0.00  0.00    +0.000 HD
ENDROOT
BRANCH   2   6
ATOM      6  C   UNL     1       6.602   5.444  16.869  0.00  0.00    +0.000 C 
ATOM      7 CL   UNL     1       6.970   5.133  15.145  0.00  0.00    +0.000 Cl
ATOM      8 CL   UNL     1       6.718   7.189  17.192  0.00  0.00    +0.000 Cl
ATOM      9 CL   UNL     1       7.740   4.521  17.880  0.00  0.00    +0.000 Cl
ENDBRANCH   2   6
BRANCH   1  11
ATOM     10  C   UNL     1       2.536   7.283  18.260  0.00  0.00    +0.000 C 
ATOM     11  C   UNL     1       2.897   5.813  18.027  0.00  0.00    +0.000 C 
BRANCH  11  12
ATOM     12  C   UNL     1       2.261   4.820  18.993  0.00  0.00    +0.000 A 
ATOM     13  C   UNL     1       1.429   3.767  18.580  0.00  0.00    +0.000 A 
ATOM     14  C   UNL     1       0.917   2.850  19.505  0.00  0.00    +0.000 A 
ATOM     15  C   UNL     1       1.230   2.969  20.857  0.00  0.00    +0.000 A 
ATOM     16  C   UNL     1       2.051   4.005  21.288  0.00  0.00    +0.000 A 
ATOM     17  C   UNL     1       2.564   4.919  20.366  0.00  0.00    +0.000 A 
ENDBRANCH  11  12
ENDBRANCH   1  11
TORSDOF 3
ENDMDL
MODEL 3
REMARK VINA RESULT:      -6.8      0.172      1.317
REMARK  Name = 
REMARK  4 active torsions:
REMARK  status: ('A' for Active; 'I' for Inactive)
REMARK    1  A    between atoms: C_1  and  C_2
REMARK    2  A    between atoms: C_2  and  N_3
REMARK    3  A    between atoms: C_2  and  C_10
REMARK    4  A    between atoms: C_4  and  C_6
REMARK                            x       y       z     vdW  Elec       q    Type
REMARK                         _______ _______ _______ _____ _____    ______ ____
ROOT
ATOM      1  N   UNL     1       4.414   5.631  18.070  0.00  0.00    +0.000 N 
ATOM      2  C   UNL     1       5.179   4.916  17.156  0.00  0.00    +0.000 C 
ATOM      3  N   UNL     1       4.736   3.811  16.628  0.00  0.00    +0.000 NA
ATOM      4  H   UNL     1       4.854   6.483  18.424  0.00  0.00    +0.000 HD
ATOM      5  H   UNL     1       3.823   3.567  17.013  0.00  0.00    +0.000 HD
ENDROOT
BRANCH   2   6
ATOM      6  C   UNL     1       6.632   5.404  16.775  0.00  0.00    +0.000 C 
ATOM      7 CL   UNL     1       6.933   5.096  15.038  0.00  0.00    +0.000 Cl
ATOM      8 CL   UNL     1       6.745   7.150  17.095  0.00  0.00    +0.000 Cl
ATOM      9 CL   UNL     1       7.817   4.490  17.740  0.00  0.00    +0.000 Cl
ENDBRANCH   2   6
BRANCH   1  11
ATOM     10  C   UNL     1       2.582   7.220  18.246  0.00  0.00    +0.000 C 
ATOM     11  C   UNL     1       2.958   5.750  18.037  0.00  0.00    +0.000 C 
BRANCH  11  12
ATOM     12  C   UNL     1       2.367   4.772  19.046  0.00  0.00    +0.000 A 
ATOM     13  C   UNL     1       2.633   4.828  20.423  0.00  0.00    +0.000 A 
ATOM     14  C   UNL     1       2.018   3.939  21.311  0.00  0.00    +0.000 A 
ATOM     15  C   UNL     1       1.126   2.979  20.838  0.00  0.00    +0.000 A 
ATOM     16  C   UNL     1       0.851   2.904  19.477  0.00  0.00    +0.000 A 
ATOM     17  C   UNL     1       1.462   3.792  18.590  0.00  0.00    +0.000 A 
ENDBRANCH  11  12
ENDBRANCH   1  11
TORSDOF 3
ENDMDL
MODEL 4
REMARK VINA RESULT:      -6.8      0.205      1.810
REMARK  Name = 
REMARK  4 active torsions:
REMARK  status: ('A' for Active; 'I' for Inactive)
REMARK    1  A    between atoms: C_1  and  C_2
REMARK    2  A    between atoms: C_2  and  N_3
REMARK    3  A    between atoms: C_2  and  C_10
REMARK    4  A    between atoms: C_4  and  C_6
REMARK                            x       y       z     vdW  Elec       q    Type
REMARK                         _______ _______ _______ _____ _____    ______ ____
ROOT
ATOM      1  N   UNL     1       4.343   5.703  18.087  0.00  0.00    +0.000 N 
ATOM      2  C   UNL     1       5.113   4.977  17.187  0.00  0.00    +0.000 C 
ATOM      3  N   UNL     1       4.660   3.884  16.643  0.00  0.00    +0.000 NA
ATOM      4  H   UNL     1       4.792   6.544  18.456  0.00  0.00    +0.000 HD
ATOM      5  H   UNL     1       3.733   3.656  17.007  0.00  0.00    +0.000 HD
ENDROOT
BRANCH   2   6
ATOM      6  C   UNL     1       6.583   5.437  16.839  0.00  0.00    +0.000 C 
ATOM      7 CL   UNL     1       6.764   7.183  17.190  0.00  0.00    +0.000 Cl
ATOM      8 CL   UNL     1       7.720   4.511  17.846  0.00  0.00    +0.000 Cl
ATOM      9 CL   UNL     1       6.878   5.159  15.106  0.00  0.00    +0.000 Cl
ENDBRANCH   2   6
BRANCH   1  11
ATOM     10  C   UNL     1       2.537   7.320  18.275  0.00  0.00    +0.000 C 
ATOM     11  C   UNL     1       2.891   5.851  18.025  0.00  0.00    +0.000 C 
BRANCH  11  12
ATOM     12  C   UNL     1       2.258   4.851  18.985  0.00  0.00    +0.000 A 
ATOM     13  C   UNL     1       1.433   3.795  18.566  0.00  0.00    +0.000 A 
ATOM     14  C   UNL     1       0.924   2.871  19.485  0.00  0.00    +0.000 A 
ATOM     15  C   UNL     1       1.232   2.987  20.839  0.00  0.00    +0.000 A 
ATOM     16  C   UNL     1       2.045   4.026  21.276  0.00  0.00    +0.000 A 
ATOM     17  C   UNL     1       2.555   4.947  20.359  0.00  0.00    +0.000 A 
ENDBRANCH  11  12
ENDBRANCH   1  11
TORSDOF 3
ENDMDL
MODEL 5
REMARK VINA RESULT:      -6.7      0.170      1.255
REMARK  Name = 
REMARK  4 active torsions:
REMARK  status: ('A' for Active; 'I' for Inactive)
REMARK    1  A    between atoms: C_1  and  C_2
REMARK    2  A    between atoms: C_2  and  N_3
REMARK    3  A    between atoms: C_2  and  C_10
REMARK    4  A    between atoms: C_4  and  C_6
REMARK                            x       y       z     vdW  Elec       q    Type
REMARK                         _______ _______ _______ _____ _____    ______ ____
ROOT
ATOM      1  N   UNL     1       4.375   5.746  18.063  0.00  0.00    +0.000 N 
ATOM      2  C   UNL     1       5.155   4.961  17.222  0.00  0.00    +0.000 C 
ATOM      3  N   UNL     1       4.713   3.826  16.761  0.00  0.00    +0.000 NA
ATOM      4  H   UNL     1       4.815   6.617  18.368  0.00  0.00    +0.000 HD
ATOM      5  H   UNL     1       3.787   3.618  17.140  0.00  0.00    +0.000 HD
ENDROOT
BRANCH   2   6
ATOM      6  C   UNL     1       6.622   5.407  16.845  0.00  0.00    +0.000 C 
ATOM      7 CL   UNL     1       7.802   4.471  17.812  0.00  0.00    +0.000 Cl
ATOM      8 CL   UNL     1       6.886   5.085  15.116  0.00  0.00    +0.000 Cl
ATOM      9 CL   UNL     1       6.810   7.138  17.218  0.00  0.00    +0.000 Cl
ENDBRANCH   2   6
BRANCH   1  11
ATOM     10  C   UNL     1       2.549   7.345  18.205  0.00  0.00    +0.000 C 
ATOM     11  C   UNL     1       2.922   5.876  17.985  0.00  0.00    +0.000 C 
BRANCH  11  12
ATOM     12  C   UNL     1       2.292   4.886  18.957  0.00  0.00    +0.000 A 
ATOM     13  C   UNL     1       1.424   3.858  18.557  0.00  0.00    +0.000 A 
ATOM     14  C   UNL     1       0.918   2.941  19.486  0.00  0.00    +0.000 A 
ATOM     15  C   UNL     1       1.274   3.036  20.830  0.00  0.00    +0.000 A 
ATOM     16  C   UNL     1       2.130   4.047  21.248  0.00  0.00    +0.000 A 
ATOM     17  C   UNL     1       2.637   4.961  20.322  0.00  0.00    +0.000 A 
ENDBRANCH  11  12
ENDBRANCH   1  11
TORSDOF 3
ENDMDL
MODEL 6
REMARK VINA RESULT:      -6.7      0.295      1.336
REMARK  Name = 
REMARK  4 active torsions:
REMARK  status: ('A' for Active; 'I' for Inactive)
REMARK    1  A    between atoms: C_1  and  C_2
REMARK    2  A    between atoms: C_2  and  N_3
REMARK    3  A    between atoms: C_2  and  C_10
REMARK    4  A    between atoms: C_4  and  C_6
REMARK                            x       y       z     vdW  Elec       q    Type
REMARK                         _______ _______ _______ _____ _____    ______ ____
ROOT
ATOM      1  N   UNL     1       4.502   5.580  18.014  0.00  0.00    +0.000 N 
ATOM      2  C   UNL     1       5.252   4.955  17.025  0.00  0.00    +0.000 C 
ATOM      3  N   UNL     1       4.764   3.961  16.339  0.00  0.00    +0.000 NA
ATOM      4  H   UNL     1       4.977   6.349  18.492  0.00  0.00    +0.000 HD
ATOM      5  H   UNL     1       3.829   3.718  16.669  0.00  0.00    +0.000 HD
ENDROOT
BRANCH   2   6
ATOM      6  C   UNL     1       6.738   5.408  16.743  0.00  0.00    +0.000 C 
ATOM      7 CL   UNL     1       6.913   7.153  17.102  0.00  0.00    +0.000 Cl
ATOM      8 CL   UNL     1       7.824   4.475  17.799  0.00  0.00    +0.000 Cl
ATOM      9 CL   UNL     1       7.108   5.129  15.024  0.00  0.00    +0.000 Cl
ENDBRANCH   2   6
BRANCH   1  11
ATOM     10  C   UNL     1       2.762   7.264  18.235  0.00  0.00    +0.000 C 
ATOM     11  C   UNL     1       3.056   5.785  17.970  0.00  0.00    +0.000 C 
BRANCH  11  12
ATOM     12  C   UNL     1       2.396   4.803  18.932  0.00  0.00    +0.000 A 
ATOM     13  C   UNL     1       2.512   4.894  20.328  0.00  0.00    +0.000 A 
ATOM     14  C   UNL     1       1.838   3.999  21.165  0.00  0.00    +0.000 A 
ATOM     15  C   UNL     1       1.036   2.998  20.621  0.00  0.00    +0.000 A 
ATOM     16  C   UNL     1       0.908   2.889  19.242  0.00  0.00    +0.000 A 
ATOM     17  C   UNL     1       1.578   3.783  18.405  0.00  0.00    +0.000 A 
ENDBRANCH  11  12
ENDBRANCH   1  11
TORSDOF 3
ENDMDL
MODEL 7
REMARK VINA RESULT:      -6.7      1.131      1.788
REMARK  Name = 
REMARK  4 active torsions:
REMARK  status: ('A' for Active; 'I' for Inactive)
REMARK    1  A    between atoms: C_1  and  C_2
REMARK    2  A    between atoms: C_2  and  N_3
REMARK    3  A    between atoms: C_2  and  C_10
REMARK    4  A    between atoms: C_4  and  C_6
REMARK                            x       y       z     vdW  Elec       q    Type
REMARK                         _______ _______ _______ _____ _____    ______ ____
ROOT
ATOM      1  N   UNL     1       4.402   5.280  17.741  0.00  0.00    +0.000 N 
ATOM      2  C   UNL     1       5.462   5.933  17.123  0.00  0.00    +0.000 C 
ATOM      3  N   UNL     1       5.297   6.563  15.995  0.00  0.00    +0.000 NA
ATOM      4  H   UNL     1       4.637   4.817  18.621  0.00  0.00    +0.000 HD
ATOM      5  H   UNL     1       4.340   6.456  15.657  0.00  0.00    +0.000 HD
ENDROOT
BRANCH   2   6
ATOM      6  C   UNL     1       6.908   5.881  17.753  0.00  0.00    +0.000 C 
ATOM      7 CL   UNL     1       6.787   5.574  19.512  0.00  0.00    +0.000 Cl
ATOM      8 CL   UNL     1       7.816   4.559  16.983  0.00  0.00    +0.000 Cl
ATOM      9 CL   UNL     1       7.706   7.452  17.492  0.00  0.00    +0.000 Cl
ENDBRANCH   2   6
BRANCH   1  11
ATOM     10  C   UNL     1       2.963   7.187  18.196  0.00  0.00    +0.000 C 
ATOM     11  C   UNL     1       3.012   5.731  17.725  0.00  0.00    +0.000 C 
BRANCH  11  12
ATOM     12  C   UNL     1       2.173   4.750  18.535  0.00  0.00    +0.000 A 
ATOM     13  C   UNL     1       1.608   3.585  17.993  0.00  0.00    +0.000 A 
ATOM     14  C   UNL     1       0.894   2.690  18.796  0.00  0.00    +0.000 A 
ATOM     15  C   UNL     1       0.733   2.944  20.157  0.00  0.00    +0.000 A 
ATOM     16  C   UNL     1       1.282   4.092  20.714  0.00  0.00    +0.000 A 
ATOM     17  C   UNL     1       1.997   4.985  19.914  0.00  0.00    +0.000 A 
ENDBRANCH  11  12
ENDBRANCH   1  11
TORSDOF 3
ENDMDL
MODEL 8
REMARK VINA RESULT:      -6.6      1.116      1.317
REMARK  Name = 
REMARK  4 active torsions:
REMARK  status: ('A' for Active; 'I' for Inactive)
REMARK    1  A    between atoms: C_1  and  C_2
REMARK    2  A    between atoms: C_2  and  N_3
REMARK    3  A    between atoms: C_2  and  C_10
REMARK    4  A    between atoms: C_4  and  C_6
REMARK                            x       y       z     vdW  Elec       q    Type
REMARK                         _______ _______ _______ _____ _____    ______ ____
ROOT
ATOM      1  N   UNL     1       4.396   5.277  17.752  0.00  0.00    +0.000 N 
ATOM      2  C   UNL     1       5.429   5.954  17.114  0.00  0.00    +0.000 C 
ATOM      3  N   UNL     1       5.219   6.615  16.012  0.00  0.00    +0.000 NA
ATOM      4  H   UNL     1       4.667   4.790  18.609  0.00  0.00    +0.000 HD
ATOM      5  H   UNL     1       4.250   6.512  15.707  0.00  0.00    +0.000 HD
ENDROOT
BRANCH   2   6
ATOM      6  C   UNL     1       6.898   5.894  17.689  0.00  0.00    +0.000 C 
ATOM      7 CL   UNL     1       6.842   5.599  19.453  0.00  0.00    +0.000 Cl
ATOM      8 CL   UNL     1       7.764   4.559  16.893  0.00  0.00    +0.000 Cl
ATOM      9 CL   UNL     1       7.698   7.455  17.387  0.00  0.00    +0.000 Cl
ENDBRANCH   2   6
BRANCH   1  11
ATOM     10  C   UNL     1       2.967   7.172  18.279  0.00  0.00    +0.000 C 
ATOM     11  C   UNL     1       3.004   5.718  17.800  0.00  0.00    +0.000 C 
BRANCH  11  12
ATOM     12  C   UNL     1       2.209   4.729  18.644  0.00  0.00    +0.000 A 
ATOM     13  C   UNL     1       1.996   4.887  20.022  0.00  0.00    +0.000 A 
ATOM     14  C   UNL     1       1.209   3.977  20.737  0.00  0.00    +0.000 A 
ATOM     15  C   UNL     1       0.621   2.895  20.086  0.00  0.00    +0.000 A 
ATOM     16  C   UNL     1       0.820   2.719  18.722  0.00  0.00    +0.000 A 
ATOM     17  C   UNL     1       1.603   3.627  18.007  0.00  0.00    +0.000 A 
ENDBRANCH  11  12
ENDBRANCH   1  11
TORSDOF 3
ENDMDL
MODEL 9
REMARK VINA RESULT:      -6.6      0.800      1.665
REMARK  Name = 
REMARK  4 active torsions:
REMARK  status: ('A' for Active; 'I' for Inactive)
REMARK    1  A    between atoms: C_1  and  C_2
REMARK    2  A    between atoms: C_2  and  N_3
REMARK    3  A    between atoms: C_2  and  C_10
REMARK    4  A    between atoms: C_4  and  C_6
REMARK                            x       y       z     vdW  Elec       q    Type
REMARK                         _______ _______ _______ _____ _____    ______ ____
ROOT
ATOM      1  N   UNL     1       4.453   5.916  18.618  0.00  0.00    +0.000 N 
ATOM      2  C   UNL     1       5.468   5.040  18.253  0.00  0.00    +0.000 C 
ATOM      3  N   UNL     1       5.241   3.764  18.126  0.00  0.00    +0.000 NA
ATOM      4  H   UNL     1       4.736   6.896  18.689  0.00  0.00    +0.000 HD
ATOM      5  H   UNL     1       4.275   3.543  18.371  0.00  0.00    +0.000 HD
ENDROOT
BRANCH   2   6
ATOM      6  C   UNL     1       6.939   5.570  18.031  0.00  0.00    +0.000 C 
ATOM      7 CL   UNL     1       6.886   7.197  17.288  0.00  0.00    +0.000 Cl
ATOM      8 CL   UNL     1       7.750   5.668  19.611  0.00  0.00    +0.000 Cl
ATOM      9 CL   UNL     1       7.792   4.457  16.934  0.00  0.00    +0.000 Cl
ENDBRANCH   2   6
BRANCH   1  11
ATOM     10  C   UNL     1       2.415   7.181  18.222  0.00  0.00    +0.000 C 
ATOM     11  C   UNL     1       3.050   5.788  18.229  0.00  0.00    +0.000 C 
BRANCH  11  12
ATOM     12  C   UNL     1       2.383   4.766  19.142  0.00  0.00    +0.000 A 
ATOM     13  C   UNL     1       2.553   4.750  20.535  0.00  0.00    +0.000 A 
ATOM     14  C   UNL     1       1.871   3.824  21.332  0.00  0.00    +0.000 A 
ATOM     15  C   UNL     1       1.006   2.899  20.748  0.00  0.00    +0.000 A 
ATOM     16  C   UNL     1       0.825   2.897  19.371  0.00  0.00    +0.000 A 
ATOM     17  C   UNL     1       1.503   3.823  18.575  0.00  0.00    +0.000 A 
ENDBRANCH  11  12
ENDBRANCH   1  11
TORSDOF 3
ENDMDL
