MODEL 1
REMARK VINA RESULT:      -6.9      0.000      0.000
REMARK  Name = 
REMARK  16 active torsions:
REMARK  status: ('A' for Active; 'I' for Inactive)
REMARK    1  A    between atoms: C_1  and  O_2
REMARK    2  A    between atoms: O_2  and  C_3
REMARK    3  A    between atoms: C_6  and  C_7
REMARK    4  A    between atoms: C_8  and  C_9
REMARK    5  A    between atoms: C_8  and  C_23
REMARK    6  A    between atoms: C_9  and  C_11
REMARK    7  A    between atoms: C_13  and  O_14
REMARK    8  A    between atoms: O_14  and  C_15
REMARK    9  A    between atoms: C_16  and  O_17
REMARK   10  A    between atoms: O_17  and  C_18
REMARK   11  A    between atoms: C_19  and  O_20
REMARK   12  A    between atoms: O_20  and  C_21
REMARK   13  A    between atoms: C_26  and  O_27
REMARK   14  A    between atoms: O_27  and  C_28
REMARK   15  A    between atoms: C_30  and  O_31
REMARK   16  A    between atoms: O_31  and  C_32
REMARK                            x       y       z     vdW  Elec       q    Type
REMARK                         _______ _______ _______ _____ _____    ______ ____
ROOT
ATOM      1  C   UNL     1      -0.643   9.387  19.286  0.00  0.00    +0.000 C 
ATOM      2  C   UNL     1       0.583   9.712  19.753  0.00  0.00    +0.000 C 
ENDROOT
BRANCH   1   6
ATOM      3  C   UNL     1      -3.744  11.513  17.245  0.00  0.00    +0.000 A 
ATOM      4  C   UNL     1      -2.907  10.661  16.526  0.00  0.00    +0.000 A 
ATOM      5  C   UNL     1      -1.850  10.001  17.164  0.00  0.00    +0.000 A 
ATOM      6  C   UNL     1      -1.604  10.204  18.527  0.00  0.00    +0.000 A 
ATOM      7  C   UNL     1      -2.408  11.106  19.225  0.00  0.00    +0.000 A 
ATOM      8  C   UNL     1      -3.473  11.758  18.590  0.00  0.00    +0.000 A 
BRANCH   3  10
ATOM      9  C   UNL     1      -5.917  12.421  17.308  0.00  0.00    +0.000 C 
ATOM     10  O   UNL     1      -4.770  12.077  16.537  0.00  0.00    +0.000 OA
ENDBRANCH   3  10
ENDBRANCH   1   6
BRANCH   2  11
ATOM     11  C   UNL     1       1.112  11.089  19.707  0.00  0.00    +0.000 A 
ATOM     12  C   UNL     1       1.798  11.410  18.514  0.00  0.00    +0.000 A 
ATOM     13  C   UNL     1       2.199  12.709  18.222  0.00  0.00    +0.000 A 
ATOM     14  C   UNL     1       1.931  13.735  19.115  0.00  0.00    +0.000 A 
ATOM     15  C   UNL     1       1.302  13.428  20.323  0.00  0.00    +0.000 A 
ATOM     16  C   UNL     1       0.879  12.118  20.634  0.00  0.00    +0.000 A 
BRANCH  14  17
ATOM     17  O   UNL     1       2.310  14.982  18.702  0.00  0.00    +0.000 OA
ATOM     18  C   UNL     1       3.492  15.517  19.286  0.00  0.00    +0.000 C 
ENDBRANCH  14  17
BRANCH  16  19
ATOM     19  O   UNL     1       0.276  12.089  21.859  0.00  0.00    +0.000 OA
ATOM     20  C   UNL     1      -0.648  13.080  22.252  0.00  0.00    +0.000 C 
ENDBRANCH  16  19
ENDBRANCH   2  11
BRANCH   2  21
ATOM     21  C   UNL     1       1.381   8.718  20.586  0.00  0.00    +0.000 C 
ATOM     22  O   UNL     1       1.688   8.987  21.746  0.00  0.00    +0.000 OA
BRANCH  21  23
ATOM     23  C   UNL     1       1.845   7.413  20.038  0.00  0.00    +0.000 A 
ATOM     24  C   UNL     1       2.748   7.335  18.982  0.00  0.00    +0.000 A 
ATOM     25  C   UNL     1       3.190   6.099  18.510  0.00  0.00    +0.000 A 
ATOM     26  C   UNL     1       2.751   4.910  19.132  0.00  0.00    +0.000 A 
ATOM     27  C   UNL     1       1.858   4.978  20.222  0.00  0.00    +0.000 A 
ATOM     28  C   UNL     1       1.412   6.234  20.660  0.00  0.00    +0.000 A 
BRANCH  25  29
ATOM     29  O   UNL     1       4.050   5.978  17.443  0.00  0.00    +0.000 OA
ATOM     30  C   UNL     1       5.442   6.077  17.731  0.00  0.00    +0.000 C 
ENDBRANCH  25  29
BRANCH  26  31
ATOM     31  O   UNL     1       3.199   3.744  18.553  0.00  0.00    +0.000 OA
ATOM     32  C   UNL     1       2.309   3.105  17.644  0.00  0.00    +0.000 C 
ENDBRANCH  26  31
BRANCH  27  33
ATOM     33  O   UNL     1       1.446   3.799  20.788  0.00  0.00    +0.000 OA
ATOM     34  C   UNL     1       2.253   3.218  21.805  0.00  0.00    +0.000 C 
ENDBRANCH  27  33
ENDBRANCH  21  23
ENDBRANCH   2  21
TORSDOF 10
ENDMDL
MODEL 2
REMARK VINA RESULT:      -6.8      1.874      4.685
REMARK  Name = 
REMARK  16 active torsions:
REMARK  status: ('A' for Active; 'I' for Inactive)
REMARK    1  A    between atoms: C_1  and  O_2
REMARK    2  A    between atoms: O_2  and  C_3
REMARK    3  A    between atoms: C_6  and  C_7
REMARK    4  A    between atoms: C_8  and  C_9
REMARK    5  A    between atoms: C_8  and  C_23
REMARK    6  A    between atoms: C_9  and  C_11
REMARK    7  A    between atoms: C_13  and  O_14
REMARK    8  A    between atoms: O_14  and  C_15
REMARK    9  A    between atoms: C_16  and  O_17
REMARK   10  A    between atoms: O_17  and  C_18
REMARK   11  A    between atoms: C_19  and  O_20
REMARK   12  A    between atoms: O_20  and  C_21
REMARK   13  A    between atoms: C_26  and  O_27
REMARK   14  A    between atoms: O_27  and  C_28
REMARK   15  A    between atoms: C_30  and  O_31
REMARK   16  A    between atoms: O_31  and  C_32
REMARK                            x       y       z     vdW  Elec       q    Type
REMARK                         _______ _______ _______ _____ _____    ______ ____
ROOT
ATOM      1  C   UNL     1       1.201   9.966  20.406  0.00  0.00    +0.000 C 
ATOM      2  C   UNL     1       0.942   9.782  19.093  0.00  0.00    +0.000 C 
ENDROOT
BRANCH   1   6
ATOM      3  C   UNL     1      -1.507  11.778  23.178  0.00  0.00    +0.000 A 
ATOM      4  C   UNL     1      -0.752  12.585  22.329  0.00  0.00    +0.000 A 
ATOM      5  C   UNL     1       0.182  12.015  21.455  0.00  0.00    +0.000 A 
ATOM      6  C   UNL     1       0.388  10.631  21.438  0.00  0.00    +0.000 A 
ATOM      7  C   UNL     1      -0.328   9.836  22.335  0.00  0.00    +0.000 A 
ATOM      8  C   UNL     1      -1.271  10.404  23.201  0.00  0.00    +0.000 A 
BRANCH   3  10
ATOM      9  C   UNL     1      -3.682  12.668  23.349  0.00  0.00    +0.000 C 
ATOM     10  O   UNL     1      -2.419  12.429  23.963  0.00  0.00    +0.000 OA
ENDBRANCH   3  10
ENDBRANCH   1   6
BRANCH   2  11
ATOM     11  C   UNL     1      -0.208  10.411  18.413  0.00  0.00    +0.000 A 
ATOM     12  C   UNL     1      -1.240   9.512  18.063  0.00  0.00    +0.000 A 
ATOM     13  C   UNL     1      -2.471   9.951  17.587  0.00  0.00    +0.000 A 
ATOM     14  C   UNL     1      -2.712  11.308  17.442  0.00  0.00    +0.000 A 
ATOM     15  C   UNL     1      -1.686  12.210  17.732  0.00  0.00    +0.000 A 
ATOM     16  C   UNL     1      -0.434  11.784  18.224  0.00  0.00    +0.000 A 
BRANCH  14  17
ATOM     17  O   UNL     1      -3.974  11.635  17.028  0.00  0.00    +0.000 OA
ATOM     18  C   UNL     1      -5.049  11.197  17.850  0.00  0.00    +0.000 C 
ENDBRANCH  14  17
BRANCH  16  19
ATOM     19  O   UNL     1       0.382  12.856  18.446  0.00  0.00    +0.000 OA
ATOM     20  C   UNL     1      -0.105  14.179  18.393  0.00  0.00    +0.000 C 
ENDBRANCH  16  19
ENDBRANCH   2  11
BRANCH   2  21
ATOM     21  C   UNL     1       1.973   9.121  18.186  0.00  0.00    +0.000 C 
ATOM     22  O   UNL     1       2.291   9.650  17.123  0.00  0.00    +0.000 OA
BRANCH  21  23
ATOM     23  C   UNL     1       2.607   7.817  18.523  0.00  0.00    +0.000 A 
ATOM     24  C   UNL     1       2.095   6.981  19.510  0.00  0.00    +0.000 A 
ATOM     25  C   UNL     1       2.691   5.749  19.783  0.00  0.00    +0.000 A 
ATOM     26  C   UNL     1       3.804   5.323  19.025  0.00  0.00    +0.000 A 
ATOM     27  C   UNL     1       4.314   6.150  18.002  0.00  0.00    +0.000 A 
ATOM     28  C   UNL     1       3.708   7.393  17.767  0.00  0.00    +0.000 A 
BRANCH  25  29
ATOM     29  O   UNL     1       2.240   4.911  20.776  0.00  0.00    +0.000 OA
ATOM     30  C   UNL     1       1.060   4.164  20.495  0.00  0.00    +0.000 C 
ENDBRANCH  25  29
BRANCH  26  31
ATOM     31  O   UNL     1       4.353   4.121  19.413  0.00  0.00    +0.000 OA
ATOM     32  C   UNL     1       4.009   2.984  18.628  0.00  0.00    +0.000 C 
ENDBRANCH  26  31
BRANCH  27  33
ATOM     33  O   UNL     1       5.403   5.704  17.301  0.00  0.00    +0.000 OA
ATOM     34  C   UNL     1       5.269   5.502  15.899  0.00  0.00    +0.000 C 
ENDBRANCH  27  33
ENDBRANCH  21  23
ENDBRANCH   2  21
TORSDOF 10
ENDMDL
MODEL 3
REMARK VINA RESULT:      -6.6      1.907      4.258
REMARK  Name = 
REMARK  16 active torsions:
REMARK  status: ('A' for Active; 'I' for Inactive)
REMARK    1  A    between atoms: C_1  and  O_2
REMARK    2  A    between atoms: O_2  and  C_3
REMARK    3  A    between atoms: C_6  and  C_7
REMARK    4  A    between atoms: C_8  and  C_9
REMARK    5  A    between atoms: C_8  and  C_23
REMARK    6  A    between atoms: C_9  and  C_11
REMARK    7  A    between atoms: C_13  and  O_14
REMARK    8  A    between atoms: O_14  and  C_15
REMARK    9  A    between atoms: C_16  and  O_17
REMARK   10  A    between atoms: O_17  and  C_18
REMARK   11  A    between atoms: C_19  and  O_20
REMARK   12  A    between atoms: O_20  and  C_21
REMARK   13  A    between atoms: C_26  and  O_27
REMARK   14  A    between atoms: O_27  and  C_28
REMARK   15  A    between atoms: C_30  and  O_31
REMARK   16  A    between atoms: O_31  and  C_32
REMARK                            x       y       z     vdW  Elec       q    Type
REMARK                         _______ _______ _______ _____ _____    ______ ____
ROOT
ATOM      1  C   UNL     1       1.138  10.397  20.528  0.00  0.00    +0.000 C 
ATOM      2  C   UNL     1       0.883  10.128  19.229  0.00  0.00    +0.000 C 
ENDROOT
BRANCH   1   6
ATOM      3  C   UNL     1      -1.710  12.107  23.224  0.00  0.00    +0.000 A 
ATOM      4  C   UNL     1      -0.870  12.944  22.491  0.00  0.00    +0.000 A 
ATOM      5  C   UNL     1       0.109  12.403  21.647  0.00  0.00    +0.000 A 
ATOM      6  C   UNL     1       0.272  11.017  21.545  0.00  0.00    +0.000 A 
ATOM      7  C   UNL     1      -0.532  10.188  22.329  0.00  0.00    +0.000 A 
ATOM      8  C   UNL     1      -1.518  10.728  23.164  0.00  0.00    +0.000 A 
BRANCH   3  10
ATOM      9  C   UNL     1      -3.987  12.654  23.483  0.00  0.00    +0.000 C 
ATOM     10  O   UNL     1      -2.657  12.734  23.987  0.00  0.00    +0.000 OA
ENDBRANCH   3  10
ENDBRANCH   1   6
BRANCH   2  11
ATOM     11  C   UNL     1      -0.337  10.598  18.544  0.00  0.00    +0.000 A 
ATOM     12  C   UNL     1      -1.326   9.604  18.367  0.00  0.00    +0.000 A 
ATOM     13  C   UNL     1      -2.604   9.909  17.912  0.00  0.00    +0.000 A 
ATOM     14  C   UNL     1      -2.938  11.221  17.613  0.00  0.00    +0.000 A 
ATOM     15  C   UNL     1      -1.959  12.209  17.730  0.00  0.00    +0.000 A 
ATOM     16  C   UNL     1      -0.659  11.921  18.200  0.00  0.00    +0.000 A 
BRANCH  14  17
ATOM     17  O   UNL     1      -4.238  11.420  17.235  0.00  0.00    +0.000 OA
ATOM     18  C   UNL     1      -5.103  12.002  18.203  0.00  0.00    +0.000 C 
ENDBRANCH  14  17
BRANCH  16  19
ATOM     19  O   UNL     1       0.096  13.058  18.240  0.00  0.00    +0.000 OA
ATOM     20  C   UNL     1      -0.440  14.286  18.680  0.00  0.00    +0.000 C 
ENDBRANCH  16  19
ENDBRANCH   2  11
BRANCH   2  21
ATOM     21  C   UNL     1       1.966   9.541  18.333  0.00  0.00    +0.000 C 
ATOM     22  O   UNL     1       2.504  10.237  17.474  0.00  0.00    +0.000 OA
BRANCH  21  23
ATOM     23  C   UNL     1       2.396   8.119  18.433  0.00  0.00    +0.000 A 
ATOM     24  C   UNL     1       3.234   7.534  17.489  0.00  0.00    +0.000 A 
ATOM     25  C   UNL     1       3.648   6.208  17.624  0.00  0.00    +0.000 A 
ATOM     26  C   UNL     1       3.247   5.458  18.752  0.00  0.00    +0.000 A 
ATOM     27  C   UNL     1       2.421   6.050  19.730  0.00  0.00    +0.000 A 
ATOM     28  C   UNL     1       2.003   7.377  19.555  0.00  0.00    +0.000 A 
BRANCH  25  29
ATOM     29  O   UNL     1       4.442   5.581  16.693  0.00  0.00    +0.000 OA
ATOM     30  C   UNL     1       5.576   6.307  16.227  0.00  0.00    +0.000 C 
ENDBRANCH  25  29
BRANCH  26  31
ATOM     31  O   UNL     1       3.660   4.144  18.759  0.00  0.00    +0.000 OA
ATOM     32  C   UNL     1       4.907   3.875  19.392  0.00  0.00    +0.000 C 
ENDBRANCH  26  31
BRANCH  27  33
ATOM     33  O   UNL     1       2.045   5.282  20.801  0.00  0.00    +0.000 OA
ATOM     34  C   UNL     1       1.053   4.282  20.601  0.00  0.00    +0.000 C 
ENDBRANCH  27  33
ENDBRANCH  21  23
ENDBRANCH   2  21
TORSDOF 10
ENDMDL
MODEL 4
REMARK VINA RESULT:      -6.6      0.528      2.137
REMARK  Name = 
REMARK  16 active torsions:
REMARK  status: ('A' for Active; 'I' for Inactive)
REMARK    1  A    between atoms: C_1  and  O_2
REMARK    2  A    between atoms: O_2  and  C_3
REMARK    3  A    between atoms: C_6  and  C_7
REMARK    4  A    between atoms: C_8  and  C_9
REMARK    5  A    between atoms: C_8  and  C_23
REMARK    6  A    between atoms: C_9  and  C_11
REMARK    7  A    between atoms: C_13  and  O_14
REMARK    8  A    between atoms: O_14  and  C_15
REMARK    9  A    between atoms: C_16  and  O_17
REMARK   10  A    between atoms: O_17  and  C_18
REMARK   11  A    between atoms: C_19  and  O_20
REMARK   12  A    between atoms: O_20  and  C_21
REMARK   13  A    between atoms: C_26  and  O_27
REMARK   14  A    between atoms: O_27  and  C_28
REMARK   15  A    between atoms: C_30  and  O_31
REMARK   16  A    between atoms: O_31  and  C_32
REMARK                            x       y       z     vdW  Elec       q    Type
REMARK                         _______ _______ _______ _____ _____    ______ ____
ROOT
ATOM      1  C   UNL     1      -0.618   9.323  19.389  0.00  0.00    +0.000 C 
ATOM      2  C   UNL     1       0.618   9.621  19.845  0.00  0.00    +0.000 C 
ENDROOT
BRANCH   1   6
ATOM      3  C   UNL     1      -3.609  11.456  17.196  0.00  0.00    +0.000 A 
ATOM      4  C   UNL     1      -2.800  10.533  16.535  0.00  0.00    +0.000 A 
ATOM      5  C   UNL     1      -1.777   9.867  17.221  0.00  0.00    +0.000 A 
ATOM      6  C   UNL     1      -1.537  10.135  18.574  0.00  0.00    +0.000 A 
ATOM      7  C   UNL     1      -2.311  11.106  19.212  0.00  0.00    +0.000 A 
ATOM      8  C   UNL     1      -3.342  11.763  18.529  0.00  0.00    +0.000 A 
BRANCH   3  10
ATOM      9  C   UNL     1      -5.800  12.322  17.158  0.00  0.00    +0.000 C 
ATOM     10  O   UNL     1      -4.604  12.021  16.446  0.00  0.00    +0.000 OA
ENDBRANCH   3  10
ENDBRANCH   1   6
BRANCH   2  11
ATOM     11  C   UNL     1       1.209  10.968  19.721  0.00  0.00    +0.000 A 
ATOM     12  C   UNL     1       1.835  11.218  18.479  0.00  0.00    +0.000 A 
ATOM     13  C   UNL     1       2.279  12.486  18.120  0.00  0.00    +0.000 A 
ATOM     14  C   UNL     1       2.116  13.550  18.993  0.00  0.00    +0.000 A 
ATOM     15  C   UNL     1       1.548  13.312  20.246  0.00  0.00    +0.000 A 
ATOM     16  C   UNL     1       1.083  12.035  20.626  0.00  0.00    +0.000 A 
BRANCH  14  17
ATOM     17  O   UNL     1       2.528  14.764  18.516  0.00  0.00    +0.000 OA
ATOM     18  C   UNL     1       1.766  15.898  18.911  0.00  0.00    +0.000 C 
ENDBRANCH  14  17
BRANCH  16  19
ATOM     19  O   UNL     1       0.557  12.073  21.885  0.00  0.00    +0.000 OA
ATOM     20  C   UNL     1      -0.830  12.213  22.103  0.00  0.00    +0.000 C 
ENDBRANCH  16  19
ENDBRANCH   2  11
BRANCH   2  21
ATOM     21  C   UNL     1       1.367   8.644  20.743  0.00  0.00    +0.000 C 
ATOM     22  O   UNL     1       1.590   8.929  21.918  0.00  0.00    +0.000 OA
BRANCH  21  23
ATOM     23  C   UNL     1       1.880   7.338  20.243  0.00  0.00    +0.000 A 
ATOM     24  C   UNL     1       1.277   6.131  20.581  0.00  0.00    +0.000 A 
ATOM     25  C   UNL     1       1.759   4.924  20.073  0.00  0.00    +0.000 A 
ATOM     26  C   UNL     1       2.847   4.925  19.173  0.00  0.00    +0.000 A 
ATOM     27  C   UNL     1       3.448   6.145  18.800  0.00  0.00    +0.000 A 
ATOM     28  C   UNL     1       2.956   7.341  19.346  0.00  0.00    +0.000 A 
BRANCH  25  29
ATOM     29  O   UNL     1       1.217   3.707  20.414  0.00  0.00    +0.000 OA
ATOM     30  C   UNL     1       1.656   3.133  21.642  0.00  0.00    +0.000 C 
ENDBRANCH  25  29
BRANCH  26  31
ATOM     31  O   UNL     1       3.282   3.680  18.777  0.00  0.00    +0.000 OA
ATOM     32  C   UNL     1       2.816   3.217  17.514  0.00  0.00    +0.000 C 
ENDBRANCH  26  31
BRANCH  27  33
ATOM     33  O   UNL     1       4.510   6.099  17.935  0.00  0.00    +0.000 OA
ATOM     34  C   UNL     1       4.401   6.785  16.693  0.00  0.00    +0.000 C 
ENDBRANCH  27  33
ENDBRANCH  21  23
ENDBRANCH   2  21
TORSDOF 10
ENDMDL
MODEL 5
REMARK VINA RESULT:      -6.4      3.292      7.371
REMARK  Name = 
REMARK  16 active torsions:
REMARK  status: ('A' for Active; 'I' for Inactive)
REMARK    1  A    between atoms: C_1  and  O_2
REMARK    2  A    between atoms: O_2  and  C_3
REMARK    3  A    between atoms: C_6  and  C_7
REMARK    4  A    between atoms: C_8  and  C_9
REMARK    5  A    between atoms: C_8  and  C_23
REMARK    6  A    between atoms: C_9  and  C_11
REMARK    7  A    between atoms: C_13  and  O_14
REMARK    8  A    between atoms: O_14  and  C_15
REMARK    9  A    between atoms: C_16  and  O_17
REMARK   10  A    between atoms: O_17  and  C_18
REMARK   11  A    between atoms: C_19  and  O_20
REMARK   12  A    between atoms: O_20  and  C_21
REMARK   13  A    between atoms: C_26  and  O_27
REMARK   14  A    between atoms: O_27  and  C_28
REMARK   15  A    between atoms: C_30  and  O_31
REMARK   16  A    between atoms: O_31  and  C_32
REMARK                            x       y       z     vdW  Elec       q    Type
REMARK                         _______ _______ _______ _____ _____    ______ ____
ROOT
ATOM      1  C   UNL     1      -2.034  11.103  19.897  0.00  0.00    +0.000 C 
ATOM      2  C   UNL     1      -0.832  11.453  20.406  0.00  0.00    +0.000 C 
ENDROOT
BRANCH   1   6
ATOM      3  C   UNL     1      -3.616  10.597  15.955  0.00  0.00    +0.000 A 
ATOM      4  C   UNL     1      -2.445   9.932  16.315  0.00  0.00    +0.000 A 
ATOM      5  C   UNL     1      -1.879  10.129  17.581  0.00  0.00    +0.000 A 
ATOM      6  C   UNL     1      -2.467  11.014  18.493  0.00  0.00    +0.000 A 
ATOM      7  C   UNL     1      -3.604  11.722  18.101  0.00  0.00    +0.000 A 
ATOM      8  C   UNL     1      -4.177  11.516  16.839  0.00  0.00    +0.000 A 
BRANCH   3  10
ATOM      9  C   UNL     1      -3.132   9.900  13.757  0.00  0.00    +0.000 C 
ATOM     10  O   UNL     1      -4.108  10.304  14.712  0.00  0.00    +0.000 OA
ENDBRANCH   3  10
ENDBRANCH   1   6
BRANCH   2  11
ATOM     11  C   UNL     1       0.259  11.994  19.572  0.00  0.00    +0.000 A 
ATOM     12  C   UNL     1       0.369  13.403  19.598  0.00  0.00    +0.000 A 
ATOM     13  C   UNL     1       1.446  14.068  19.024  0.00  0.00    +0.000 A 
ATOM     14  C   UNL     1       2.452  13.348  18.398  0.00  0.00    +0.000 A 
ATOM     15  C   UNL     1       2.334  11.960  18.315  0.00  0.00    +0.000 A 
ATOM     16  C   UNL     1       1.253  11.265  18.900  0.00  0.00    +0.000 A 
BRANCH  14  17
ATOM     17  O   UNL     1       3.495  14.095  17.924  0.00  0.00    +0.000 OA
ATOM     18  C   UNL     1       3.303  15.503  17.876  0.00  0.00    +0.000 C 
ENDBRANCH  14  17
BRANCH  16  19
ATOM     19  O   UNL     1       1.383   9.921  18.696  0.00  0.00    +0.000 OA
ATOM     20  C   UNL     1       2.307   9.400  17.765  0.00  0.00    +0.000 C 
ENDBRANCH  16  19
ENDBRANCH   2  11
BRANCH   2  21
ATOM     21  C   UNL     1      -0.628  11.547  21.913  0.00  0.00    +0.000 C 
ATOM     22  O   UNL     1       0.160  10.791  22.479  0.00  0.00    +0.000 OA
BRANCH  21  23
ATOM     23  C   UNL     1      -1.378  12.516  22.758  0.00  0.00    +0.000 A 
ATOM     24  C   UNL     1      -0.878  13.781  23.050  0.00  0.00    +0.000 A 
ATOM     25  C   UNL     1      -1.617  14.682  23.819  0.00  0.00    +0.000 A 
ATOM     26  C   UNL     1      -2.905  14.326  24.275  0.00  0.00    +0.000 A 
ATOM     27  C   UNL     1      -3.434  13.056  23.961  0.00  0.00    +0.000 A 
ATOM     28  C   UNL     1      -2.659  12.163  23.206  0.00  0.00    +0.000 A 
BRANCH  25  29
ATOM     29  O   UNL     1      -1.142  15.926  24.163  0.00  0.00    +0.000 OA
ATOM     30  C   UNL     1      -0.945  16.851  23.098  0.00  0.00    +0.000 C 
ENDBRANCH  25  29
BRANCH  26  31
ATOM     31  O   UNL     1      -3.524  15.261  25.073  0.00  0.00    +0.000 OA
ATOM     32  C   UNL     1      -4.402  16.172  24.419  0.00  0.00    +0.000 C 
ENDBRANCH  26  31
BRANCH  27  33
ATOM     33  O   UNL     1      -4.682  12.746  24.435  0.00  0.00    +0.000 OA
ATOM     34  C   UNL     1      -5.798  12.928  23.572  0.00  0.00    +0.000 C 
ENDBRANCH  27  33
ENDBRANCH  21  23
ENDBRANCH   2  21
TORSDOF 10
ENDMDL
MODEL 6
REMARK VINA RESULT:      -6.4      2.204      8.127
REMARK  Name = 
REMARK  16 active torsions:
REMARK  status: ('A' for Active; 'I' for Inactive)
REMARK    1  A    between atoms: C_1  and  O_2
REMARK    2  A    between atoms: O_2  and  C_3
REMARK    3  A    between atoms: C_6  and  C_7
REMARK    4  A    between atoms: C_8  and  C_9
REMARK    5  A    between atoms: C_8  and  C_23
REMARK    6  A    between atoms: C_9  and  C_11
REMARK    7  A    between atoms: C_13  and  O_14
REMARK    8  A    between atoms: O_14  and  C_15
REMARK    9  A    between atoms: C_16  and  O_17
REMARK   10  A    between atoms: O_17  and  C_18
REMARK   11  A    between atoms: C_19  and  O_20
REMARK   12  A    between atoms: O_20  and  C_21
REMARK   13  A    between atoms: C_26  and  O_27
REMARK   14  A    between atoms: O_27  and  C_28
REMARK   15  A    between atoms: C_30  and  O_31
REMARK   16  A    between atoms: O_31  and  C_32
REMARK                            x       y       z     vdW  Elec       q    Type
REMARK                         _______ _______ _______ _____ _____    ______ ____
ROOT
ATOM      1  C   UNL     1       1.197   8.417  21.357  0.00  0.00    +0.000 C 
ATOM      2  C   UNL     1       0.522   9.587  21.321  0.00  0.00    +0.000 C 
ENDROOT
BRANCH   1   6
ATOM      3  C   UNL     1       2.997   5.959  18.354  0.00  0.00    +0.000 A 
ATOM      4  C   UNL     1       2.835   7.324  18.119  0.00  0.00    +0.000 A 
ATOM      5  C   UNL     1       2.196   8.135  19.064  0.00  0.00    +0.000 A 
ATOM      6  C   UNL     1       1.690   7.585  20.247  0.00  0.00    +0.000 A 
ATOM      7  C   UNL     1       1.801   6.208  20.446  0.00  0.00    +0.000 A 
ATOM      8  C   UNL     1       2.450   5.398  19.506  0.00  0.00    +0.000 A 
BRANCH   3  10
ATOM      9  C   UNL     1       3.436   3.858  17.381  0.00  0.00    +0.000 C 
ATOM     10  O   UNL     1       3.669   5.264  17.386  0.00  0.00    +0.000 OA
ENDBRANCH   3  10
ENDBRANCH   1   6
BRANCH   2  11
ATOM     11  C   UNL     1       0.000  10.166  20.068  0.00  0.00    +0.000 A 
ATOM     12  C   UNL     1      -1.251   9.649  19.664  0.00  0.00    +0.000 A 
ATOM     13  C   UNL     1      -1.975  10.207  18.616  0.00  0.00    +0.000 A 
ATOM     14  C   UNL     1      -1.471  11.302  17.931  0.00  0.00    +0.000 A 
ATOM     15  C   UNL     1      -0.213  11.794  18.281  0.00  0.00    +0.000 A 
ATOM     16  C   UNL     1       0.533  11.248  19.348  0.00  0.00    +0.000 A 
BRANCH  14  17
ATOM     17  O   UNL     1      -2.291  11.811  16.962  0.00  0.00    +0.000 OA
ATOM     18  C   UNL     1      -3.598  11.257  16.874  0.00  0.00    +0.000 C 
ENDBRANCH  14  17
BRANCH  16  19
ATOM     19  O   UNL     1       1.714  11.918  19.497  0.00  0.00    +0.000 OA
ATOM     20  C   UNL     1       1.980  13.113  18.796  0.00  0.00    +0.000 C 
ENDBRANCH  16  19
ENDBRANCH   2  11
BRANCH   2  21
ATOM     21  C   UNL     1       0.043  10.244  22.610  0.00  0.00    +0.000 C 
ATOM     22  O   UNL     1       0.380   9.785  23.701  0.00  0.00    +0.000 OA
BRANCH  21  23
ATOM     23  C   UNL     1      -0.860  11.427  22.611  0.00  0.00    +0.000 A 
ATOM     24  C   UNL     1      -2.176  11.351  23.057  0.00  0.00    +0.000 A 
ATOM     25  C   UNL     1      -2.990  12.483  23.078  0.00  0.00    +0.000 A 
ATOM     26  C   UNL     1      -2.467  13.733  22.680  0.00  0.00    +0.000 A 
ATOM     27  C   UNL     1      -1.126  13.829  22.253  0.00  0.00    +0.000 A 
ATOM     28  C   UNL     1      -0.338  12.668  22.222  0.00  0.00    +0.000 A 
BRANCH  25  29
ATOM     29  O   UNL     1      -4.307  12.442  23.473  0.00  0.00    +0.000 OA
ATOM     30  C   UNL     1      -4.551  12.353  24.874  0.00  0.00    +0.000 C 
ENDBRANCH  25  29
BRANCH  26  31
ATOM     31  O   UNL     1      -3.369  14.774  22.681  0.00  0.00    +0.000 OA
ATOM     32  C   UNL     1      -4.073  15.004  21.465  0.00  0.00    +0.000 C 
ENDBRANCH  26  31
BRANCH  27  33
ATOM     33  O   UNL     1      -0.663  15.058  21.863  0.00  0.00    +0.000 OA
ATOM     34  C   UNL     1      -0.523  15.318  20.471  0.00  0.00    +0.000 C 
ENDBRANCH  27  33
ENDBRANCH  21  23
ENDBRANCH   2  21
TORSDOF 10
ENDMDL
MODEL 7
REMARK VINA RESULT:      -6.3      2.183      7.843
REMARK  Name = 
REMARK  16 active torsions:
REMARK  status: ('A' for Active; 'I' for Inactive)
REMARK    1  A    between atoms: C_1  and  O_2
REMARK    2  A    between atoms: O_2  and  C_3
REMARK    3  A    between atoms: C_6  and  C_7
REMARK    4  A    between atoms: C_8  and  C_9
REMARK    5  A    between atoms: C_8  and  C_23
REMARK    6  A    between atoms: C_9  and  C_11
REMARK    7  A    between atoms: C_13  and  O_14
REMARK    8  A    between atoms: O_14  and  C_15
REMARK    9  A    between atoms: C_16  and  O_17
REMARK   10  A    between atoms: O_17  and  C_18
REMARK   11  A    between atoms: C_19  and  O_20
REMARK   12  A    between atoms: O_20  and  C_21
REMARK   13  A    between atoms: C_26  and  O_27
REMARK   14  A    between atoms: O_27  and  C_28
REMARK   15  A    between atoms: C_30  and  O_31
REMARK   16  A    between atoms: O_31  and  C_32
REMARK                            x       y       z     vdW  Elec       q    Type
REMARK                         _______ _______ _______ _____ _____    ______ ____
ROOT
ATOM      1  C   UNL     1       1.212   8.414  21.374  0.00  0.00    +0.000 C 
ATOM      2  C   UNL     1       0.539   9.586  21.343  0.00  0.00    +0.000 C 
ENDROOT
BRANCH   1   6
ATOM      3  C   UNL     1       2.955   5.937  18.353  0.00  0.00    +0.000 A 
ATOM      4  C   UNL     1       2.788   7.299  18.112  0.00  0.00    +0.000 A 
ATOM      5  C   UNL     1       2.167   8.117  19.064  0.00  0.00    +0.000 A 
ATOM      6  C   UNL     1       1.684   7.575  20.260  0.00  0.00    +0.000 A 
ATOM      7  C   UNL     1       1.800   6.199  20.467  0.00  0.00    +0.000 A 
ATOM      8  C   UNL     1       2.431   5.383  19.520  0.00  0.00    +0.000 A 
BRANCH   3  10
ATOM      9  C   UNL     1       4.726   5.903  16.799  0.00  0.00    +0.000 C 
ATOM     10  O   UNL     1       3.609   5.235  17.378  0.00  0.00    +0.000 OA
ENDBRANCH   3  10
ENDBRANCH   1   6
BRANCH   2  11
ATOM     11  C   UNL     1      -0.003  10.159  20.095  0.00  0.00    +0.000 A 
ATOM     12  C   UNL     1      -1.235   9.602  19.685  0.00  0.00    +0.000 A 
ATOM     13  C   UNL     1      -1.978  10.144  18.642  0.00  0.00    +0.000 A 
ATOM     14  C   UNL     1      -1.513  11.263  17.969  0.00  0.00    +0.000 A 
ATOM     15  C   UNL     1      -0.273  11.797  18.325  0.00  0.00    +0.000 A 
ATOM     16  C   UNL     1       0.492  11.266  19.386  0.00  0.00    +0.000 A 
BRANCH  14  17
ATOM     17  O   UNL     1      -2.351  11.754  17.005  0.00  0.00    +0.000 OA
ATOM     18  C   UNL     1      -3.732  11.443  17.140  0.00  0.00    +0.000 C 
ENDBRANCH  14  17
BRANCH  16  19
ATOM     19  O   UNL     1       1.648  11.976  19.543  0.00  0.00    +0.000 OA
ATOM     20  C   UNL     1       1.903  13.147  18.799  0.00  0.00    +0.000 C 
ENDBRANCH  16  19
ENDBRANCH   2  11
BRANCH   2  21
ATOM     21  C   UNL     1       0.084  10.251  22.635  0.00  0.00    +0.000 C 
ATOM     22  O   UNL     1       0.405   9.774  23.723  0.00  0.00    +0.000 OA
BRANCH  21  23
ATOM     23  C   UNL     1      -0.777  11.465  22.644  0.00  0.00    +0.000 A 
ATOM     24  C   UNL     1      -0.312  12.703  22.212  0.00  0.00    +0.000 A 
ATOM     25  C   UNL     1      -1.150  13.818  22.200  0.00  0.00    +0.000 A 
ATOM     26  C   UNL     1      -2.500  13.687  22.594  0.00  0.00    +0.000 A 
ATOM     27  C   UNL     1      -2.991  12.431  23.007  0.00  0.00    +0.000 A 
ATOM     28  C   UNL     1      -2.118  11.333  23.030  0.00  0.00    +0.000 A 
BRANCH  25  29
ATOM     29  O   UNL     1      -0.718  15.067  21.818  0.00  0.00    +0.000 OA
ATOM     30  C   UNL     1       0.691  15.275  21.794  0.00  0.00    +0.000 C 
ENDBRANCH  25  29
BRANCH  26  31
ATOM     31  O   UNL     1      -3.225  14.858  22.603  0.00  0.00    +0.000 OA
ATOM     32  C   UNL     1      -4.106  15.067  21.504  0.00  0.00    +0.000 C 
ENDBRANCH  26  31
BRANCH  27  33
ATOM     33  O   UNL     1      -4.303  12.351  23.394  0.00  0.00    +0.000 OA
ATOM     34  C   UNL     1      -4.602  12.380  24.785  0.00  0.00    +0.000 C 
ENDBRANCH  27  33
ENDBRANCH  21  23
ENDBRANCH   2  21
TORSDOF 10
ENDMDL
MODEL 8
REMARK VINA RESULT:      -6.3      1.068      2.461
REMARK  Name = 
REMARK  16 active torsions:
REMARK  status: ('A' for Active; 'I' for Inactive)
REMARK    1  A    between atoms: C_1  and  O_2
REMARK    2  A    between atoms: O_2  and  C_3
REMARK    3  A    between atoms: C_6  and  C_7
REMARK    4  A    between atoms: C_8  and  C_9
REMARK    5  A    between atoms: C_8  and  C_23
REMARK    6  A    between atoms: C_9  and  C_11
REMARK    7  A    between atoms: C_13  and  O_14
REMARK    8  A    between atoms: O_14  and  C_15
REMARK    9  A    between atoms: C_16  and  O_17
REMARK   10  A    between atoms: O_17  and  C_18
REMARK   11  A    between atoms: C_19  and  O_20
REMARK   12  A    between atoms: O_20  and  C_21
REMARK   13  A    between atoms: C_26  and  O_27
REMARK   14  A    between atoms: O_27  and  C_28
REMARK   15  A    between atoms: C_30  and  O_31
REMARK   16  A    between atoms: O_31  and  C_32
REMARK                            x       y       z     vdW  Elec       q    Type
REMARK                         _______ _______ _______ _____ _____    ______ ____
ROOT
ATOM      1  C   UNL     1      -0.464   9.364  19.300  0.00  0.00    +0.000 C 
ATOM      2  C   UNL     1       0.486   9.774  20.169  0.00  0.00    +0.000 C 
ENDROOT
BRANCH   1   6
ATOM      3  C   UNL     1      -3.607  11.435  17.266  0.00  0.00    +0.000 A 
ATOM      4  C   UNL     1      -2.808  10.536  16.561  0.00  0.00    +0.000 A 
ATOM      5  C   UNL     1      -1.738   9.892  17.193  0.00  0.00    +0.000 A 
ATOM      6  C   UNL     1      -1.440  10.158  18.535  0.00  0.00    +0.000 A 
ATOM      7  C   UNL     1      -2.207  11.106  19.216  0.00  0.00    +0.000 A 
ATOM      8  C   UNL     1      -3.284  11.742  18.587  0.00  0.00    +0.000 A 
BRANCH   3  10
ATOM      9  C   UNL     1      -5.877  12.067  17.286  0.00  0.00    +0.000 C 
ATOM     10  O   UNL     1      -4.650  11.980  16.567  0.00  0.00    +0.000 OA
ENDBRANCH   3  10
ENDBRANCH   1   6
BRANCH   2  11
ATOM     11  C   UNL     1       0.587  11.170  20.638  0.00  0.00    +0.000 A 
ATOM     12  C   UNL     1       1.380  12.004  19.819  0.00  0.00    +0.000 A 
ATOM     13  C   UNL     1       1.435  13.381  20.003  0.00  0.00    +0.000 A 
ATOM     14  C   UNL     1       0.699  13.974  21.017  0.00  0.00    +0.000 A 
ATOM     15  C   UNL     1      -0.049  13.161  21.870  0.00  0.00    +0.000 A 
ATOM     16  C   UNL     1      -0.125  11.762  21.694  0.00  0.00    +0.000 A 
BRANCH  14  17
ATOM     17  O   UNL     1       0.774  15.339  21.071  0.00  0.00    +0.000 OA
ATOM     18  C   UNL     1       0.524  15.943  22.334  0.00  0.00    +0.000 C 
ENDBRANCH  14  17
BRANCH  16  19
ATOM     19  O   UNL     1      -0.933  11.204  22.642  0.00  0.00    +0.000 OA
ATOM     20  C   UNL     1      -2.093  11.861  23.105  0.00  0.00    +0.000 C 
ENDBRANCH  16  19
ENDBRANCH   2  11
BRANCH   2  21
ATOM     21  C   UNL     1       1.347   8.758  20.908  0.00  0.00    +0.000 C 
ATOM     22  O   UNL     1       1.770   9.009  22.036  0.00  0.00    +0.000 OA
BRANCH  21  23
ATOM     23  C   UNL     1       1.734   7.454  20.304  0.00  0.00    +0.000 A 
ATOM     24  C   UNL     1       1.302   6.240  20.829  0.00  0.00    +0.000 A 
ATOM     25  C   UNL     1       1.654   5.033  20.223  0.00  0.00    +0.000 A 
ATOM     26  C   UNL     1       2.424   5.038  19.040  0.00  0.00    +0.000 A 
ATOM     27  C   UNL     1       2.844   6.264  18.482  0.00  0.00    +0.000 A 
ATOM     28  C   UNL     1       2.495   7.460  19.126  0.00  0.00    +0.000 A 
BRANCH  25  29
ATOM     29  O   UNL     1       1.280   3.811  20.733  0.00  0.00    +0.000 OA
ATOM     30  C   UNL     1       2.046   3.315  21.827  0.00  0.00    +0.000 C 
ENDBRANCH  25  29
BRANCH  26  31
ATOM     31  O   UNL     1       2.766   3.795  18.557  0.00  0.00    +0.000 OA
ATOM     32  C   UNL     1       4.107   3.374  18.781  0.00  0.00    +0.000 C 
ENDBRANCH  26  31
BRANCH  27  33
ATOM     33  O   UNL     1       3.602   6.223  17.341  0.00  0.00    +0.000 OA
ATOM     34  C   UNL     1       4.715   7.103  17.236  0.00  0.00    +0.000 C 
ENDBRANCH  27  33
ENDBRANCH  21  23
ENDBRANCH   2  21
TORSDOF 10
ENDMDL
MODEL 9
REMARK VINA RESULT:      -6.3      1.775      2.784
REMARK  Name = 
REMARK  16 active torsions:
REMARK  status: ('A' for Active; 'I' for Inactive)
REMARK    1  A    between atoms: C_1  and  O_2
REMARK    2  A    between atoms: O_2  and  C_3
REMARK    3  A    between atoms: C_6  and  C_7
REMARK    4  A    between atoms: C_8  and  C_9
REMARK    5  A    between atoms: C_8  and  C_23
REMARK    6  A    between atoms: C_9  and  C_11
REMARK    7  A    between atoms: C_13  and  O_14
REMARK    8  A    between atoms: O_14  and  C_15
REMARK    9  A    between atoms: C_16  and  O_17
REMARK   10  A    between atoms: O_17  and  C_18
REMARK   11  A    between atoms: C_19  and  O_20
REMARK   12  A    between atoms: O_20  and  C_21
REMARK   13  A    between atoms: C_26  and  O_27
REMARK   14  A    between atoms: O_27  and  C_28
REMARK   15  A    between atoms: C_30  and  O_31
REMARK   16  A    between atoms: O_31  and  C_32
REMARK                            x       y       z     vdW  Elec       q    Type
REMARK                         _______ _______ _______ _____ _____    ______ ____
ROOT
ATOM      1  C   UNL     1      -0.619   9.967  17.478  0.00  0.00    +0.000 C 
ATOM      2  C   UNL     1       0.274  10.499  18.342  0.00  0.00    +0.000 C 
ENDROOT
BRANCH   1   6
ATOM      3  C   UNL     1      -4.813  10.808  17.552  0.00  0.00    +0.000 A 
ATOM      4  C   UNL     1      -4.316   9.726  18.277  0.00  0.00    +0.000 A 
ATOM      5  C   UNL     1      -2.956   9.398  18.220  0.00  0.00    +0.000 A 
ATOM      6  C   UNL     1      -2.080  10.138  17.417  0.00  0.00    +0.000 A 
ATOM      7  C   UNL     1      -2.596  11.181  16.647  0.00  0.00    +0.000 A 
ATOM      8  C   UNL     1      -3.955  11.516  16.712  0.00  0.00    +0.000 A 
BRANCH   3  10
ATOM      9  C   UNL     1      -6.698  10.663  18.958  0.00  0.00    +0.000 C 
ATOM     10  O   UNL     1      -6.147  11.067  17.708  0.00  0.00    +0.000 OA
ENDBRANCH   3  10
ENDBRANCH   1   6
BRANCH   2  11
ATOM     11  C   UNL     1      -0.133  11.258  19.540  0.00  0.00    +0.000 A 
ATOM     12  C   UNL     1      -0.160  10.497  20.731  0.00  0.00    +0.000 A 
ATOM     13  C   UNL     1      -0.340  11.086  21.977  0.00  0.00    +0.000 A 
ATOM     14  C   UNL     1      -0.501  12.459  22.078  0.00  0.00    +0.000 A 
ATOM     15  C   UNL     1      -0.531  13.221  20.909  0.00  0.00    +0.000 A 
ATOM     16  C   UNL     1      -0.342  12.643  19.635  0.00  0.00    +0.000 A 
BRANCH  14  17
ATOM     17  O   UNL     1      -0.606  12.942  23.354  0.00  0.00    +0.000 OA
ATOM     18  C   UNL     1      -1.542  13.992  23.565  0.00  0.00    +0.000 C 
ENDBRANCH  14  17
BRANCH  16  19
ATOM     19  O   UNL     1      -0.395  13.602  18.663  0.00  0.00    +0.000 OA
ATOM     20  C   UNL     1      -0.164  14.963  18.954  0.00  0.00    +0.000 C 
ENDBRANCH  16  19
ENDBRANCH   2  11
BRANCH   2  21
ATOM     21  C   UNL     1       1.748  10.122  18.259  0.00  0.00    +0.000 C 
ATOM     22  O   UNL     1       2.598  10.988  18.056  0.00  0.00    +0.000 OA
BRANCH  21  23
ATOM     23  C   UNL     1       2.218   8.716  18.389  0.00  0.00    +0.000 A 
ATOM     24  C   UNL     1       3.129   8.157  17.498  0.00  0.00    +0.000 A 
ATOM     25  C   UNL     1       3.578   6.846  17.662  0.00  0.00    +0.000 A 
ATOM     26  C   UNL     1       3.135   6.084  18.765  0.00  0.00    +0.000 A 
ATOM     27  C   UNL     1       2.233   6.649  19.691  0.00  0.00    +0.000 A 
ATOM     28  C   UNL     1       1.782   7.962  19.488  0.00  0.00    +0.000 A 
BRANCH  25  29
ATOM     29  O   UNL     1       4.447   6.245  16.782  0.00  0.00    +0.000 OA
ATOM     30  C   UNL     1       5.806   6.667  16.837  0.00  0.00    +0.000 C 
ENDBRANCH  25  29
BRANCH  26  31
ATOM     31  O   UNL     1       3.590   4.785  18.802  0.00  0.00    +0.000 OA
ATOM     32  C   UNL     1       2.945   3.863  17.929  0.00  0.00    +0.000 C 
ENDBRANCH  26  31
BRANCH  27  33
ATOM     33  O   UNL     1       1.818   5.870  20.740  0.00  0.00    +0.000 OA
ATOM     34  C   UNL     1       0.931   4.791  20.471  0.00  0.00    +0.000 C 
ENDBRANCH  27  33
ENDBRANCH  21  23
ENDBRANCH   2  21
TORSDOF 10
ENDMDL
