MODEL 1
REMARK VINA RESULT:      -7.4      0.000      0.000
REMARK  Name = 
REMARK  6 active torsions:
REMARK  status: ('A' for Active; 'I' for Inactive)
REMARK    1  A    between atoms: C_1  and  O_2
REMARK    2  A    between atoms: O_2  and  C_3
REMARK    3  A    between atoms: C_7  and  N_8
REMARK    4  A    between atoms: N_8  and  C_9
REMARK    5  A    between atoms: C_10  and  C_12
REMARK    6  A    between atoms: C_15  and  C_16
REMARK                            x       y       z     vdW  Elec       q    Type
REMARK                         _______ _______ _______ _____ _____    ______ ____
ROOT
ATOM      1  C   UNL     1       1.080   9.852  19.795  0.00  0.00    +0.000 A 
ATOM      2  C   UNL     1       1.433  10.266  18.524  0.00  0.00    +0.000 A 
ATOM      3  C   UNL     1       2.005   9.224  17.737  0.00  0.00    +0.000 A 
ATOM      4  C   UNL     1       2.190   8.054  18.451  0.00  0.00    +0.000 A 
ATOM      5  S   UNL     1       1.547   8.211  20.030  0.00  0.00    +0.000 S 
ENDROOT
BRANCH   4   6
ATOM      6  C   UNL     1       2.885   6.828  18.017  0.00  0.00    +0.000 A 
ATOM      7  C   UNL     1       4.176   6.855  17.451  0.00  0.00    +0.000 A 
ATOM      8  C   UNL     1       4.799   5.673  17.025  0.00  0.00    +0.000 A 
ATOM      9  C   UNL     1       4.139   4.459  17.164  0.00  0.00    +0.000 A 
ATOM     10  F   UNL     1       4.736   3.332  16.754  0.00  0.00    +0.000 F 
ATOM     11  C   UNL     1       2.870   4.417  17.723  0.00  0.00    +0.000 A 
ATOM     12  F   UNL     1       2.228   3.247  17.856  0.00  0.00    +0.000 F 
ATOM     13  C   UNL     1       2.244   5.586  18.147  0.00  0.00    +0.000 A 
ENDBRANCH   4   6
BRANCH   1  16
ATOM     14  N   UNL     1      -0.631  11.424  20.735  0.00  0.00    +0.000 N 
ATOM     15  C   UNL     1      -1.267  11.565  19.426  0.00  0.00    +0.000 C 
ATOM     16  C   UNL     1       0.492  10.570  20.940  0.00  0.00    +0.000 C 
ATOM     17  O   UNL     1       1.012  10.434  22.050  0.00  0.00    +0.000 OA
BRANCH  14  22
ATOM     18  C   UNL     1      -2.911  12.494  23.557  0.00  0.00    +0.000 A 
ATOM     19  C   UNL     1      -2.332  13.702  23.933  0.00  0.00    +0.000 A 
ATOM     20  C   UNL     1      -1.197  14.167  23.277  0.00  0.00    +0.000 A 
ATOM     21  C   UNL     1      -0.638  13.423  22.234  0.00  0.00    +0.000 A 
ATOM     22  C   UNL     1      -1.199  12.208  21.817  0.00  0.00    +0.000 A 
ATOM     23  C   UNL     1      -2.343  11.754  22.510  0.00  0.00    +0.000 A 
BRANCH  18  25
ATOM     24  C   UNL     1      -5.194  12.944  24.073  0.00  0.00    +0.000 C 
ATOM     25  O   UNL     1      -4.027  12.157  24.272  0.00  0.00    +0.000 OA
ENDBRANCH  18  25
ENDBRANCH  14  22
ENDBRANCH   1  16
TORSDOF 4
ENDMDL
MODEL 2
REMARK VINA RESULT:      -7.3      2.083      3.050
REMARK  Name = 
REMARK  6 active torsions:
REMARK  status: ('A' for Active; 'I' for Inactive)
REMARK    1  A    between atoms: C_1  and  O_2
REMARK    2  A    between atoms: O_2  and  C_3
REMARK    3  A    between atoms: C_7  and  N_8
REMARK    4  A    between atoms: N_8  and  C_9
REMARK    5  A    between atoms: C_10  and  C_12
REMARK    6  A    between atoms: C_15  and  C_16
REMARK                            x       y       z     vdW  Elec       q    Type
REMARK                         _______ _______ _______ _____ _____    ______ ____
ROOT
ATOM      1  C   UNL     1       1.609   8.197  19.988  0.00  0.00    +0.000 A 
ATOM      2  C   UNL     1       2.171   8.324  18.731  0.00  0.00    +0.000 A 
ATOM      3  C   UNL     1       2.534   7.071  18.155  0.00  0.00    +0.000 A 
ATOM      4  C   UNL     1       2.352   6.009  19.022  0.00  0.00    +0.000 A 
ATOM      5  S   UNL     1       1.624   6.545  20.476  0.00  0.00    +0.000 S 
ENDROOT
BRANCH   4   6
ATOM      6  C   UNL     1       2.754   4.604  18.830  0.00  0.00    +0.000 A 
ATOM      7  C   UNL     1       2.319   3.840  17.729  0.00  0.00    +0.000 A 
ATOM      8  C   UNL     1       2.699   2.497  17.589  0.00  0.00    +0.000 A 
ATOM      9  C   UNL     1       3.516   1.911  18.547  0.00  0.00    +0.000 A 
ATOM     10  F   UNL     1       3.876   0.628  18.412  0.00  0.00    +0.000 F 
ATOM     11  C   UNL     1       3.955   2.651  19.634  0.00  0.00    +0.000 A 
ATOM     12  F   UNL     1       4.743   2.088  20.562  0.00  0.00    +0.000 F 
ATOM     13  C   UNL     1       3.581   3.985  19.781  0.00  0.00    +0.000 A 
ENDBRANCH   4   6
BRANCH   1  16
ATOM     14  N   UNL     1       0.182  10.185  20.530  0.00  0.00    +0.000 N 
ATOM     15  C   UNL     1      -0.360  10.206  19.173  0.00  0.00    +0.000 C 
ATOM     16  C   UNL     1       1.116   9.195  20.954  0.00  0.00    +0.000 C 
ATOM     17  O   UNL     1       1.554   9.164  22.107  0.00  0.00    +0.000 OA
BRANCH  14  22
ATOM     18  C   UNL     1      -0.188  13.570  22.176  0.00  0.00    +0.000 A 
ATOM     19  C   UNL     1      -1.148  13.299  23.146  0.00  0.00    +0.000 A 
ATOM     20  C   UNL     1      -1.682  12.021  23.262  0.00  0.00    +0.000 A 
ATOM     21  C   UNL     1      -1.251  11.002  22.407  0.00  0.00    +0.000 A 
ATOM     22  C   UNL     1      -0.277  11.232  21.425  0.00  0.00    +0.000 A 
ATOM     23  C   UNL     1       0.238  12.543  21.322  0.00  0.00    +0.000 A 
BRANCH  18  25
ATOM     24  C   UNL     1       1.555  15.103  21.631  0.00  0.00    +0.000 C 
ATOM     25  O   UNL     1       0.264  14.861  22.175  0.00  0.00    +0.000 OA
ENDBRANCH  18  25
ENDBRANCH  14  22
ENDBRANCH   1  16
TORSDOF 4
ENDMDL
MODEL 3
REMARK VINA RESULT:      -7.2      1.075      1.652
REMARK  Name = 
REMARK  6 active torsions:
REMARK  status: ('A' for Active; 'I' for Inactive)
REMARK    1  A    between atoms: C_1  and  O_2
REMARK    2  A    between atoms: O_2  and  C_3
REMARK    3  A    between atoms: C_7  and  N_8
REMARK    4  A    between atoms: N_8  and  C_9
REMARK    5  A    between atoms: C_10  and  C_12
REMARK    6  A    between atoms: C_15  and  C_16
REMARK                            x       y       z     vdW  Elec       q    Type
REMARK                         _______ _______ _______ _____ _____    ______ ____
ROOT
ATOM      1  C   UNL     1       0.940  10.053  19.865  0.00  0.00    +0.000 A 
ATOM      2  C   UNL     1       1.327  10.489  18.610  0.00  0.00    +0.000 A 
ATOM      3  C   UNL     1       1.913   9.457  17.819  0.00  0.00    +0.000 A 
ATOM      4  C   UNL     1       2.074   8.274  18.515  0.00  0.00    +0.000 A 
ATOM      5  S   UNL     1       1.392   8.405  20.081  0.00  0.00    +0.000 S 
ENDROOT
BRANCH   4   6
ATOM      6  C   UNL     1       2.772   7.052  18.076  0.00  0.00    +0.000 A 
ATOM      7  C   UNL     1       4.018   7.092  17.419  0.00  0.00    +0.000 A 
ATOM      8  C   UNL     1       4.644   5.912  16.992  0.00  0.00    +0.000 A 
ATOM      9  C   UNL     1       4.032   4.688  17.219  0.00  0.00    +0.000 A 
ATOM     10  F   UNL     1       4.632   3.562  16.808  0.00  0.00    +0.000 F 
ATOM     11  C   UNL     1       2.807   4.631  17.868  0.00  0.00    +0.000 A 
ATOM     12  F   UNL     1       2.211   3.451  18.087  0.00  0.00    +0.000 F 
ATOM     13  C   UNL     1       2.178   5.799  18.294  0.00  0.00    +0.000 A 
ENDBRANCH   4   6
BRANCH   1  16
ATOM     14  N   UNL     1      -0.838  11.549  20.805  0.00  0.00    +0.000 N 
ATOM     15  C   UNL     1      -1.492  11.643  19.501  0.00  0.00    +0.000 C 
ATOM     16  C   UNL     1       0.329  10.754  21.007  0.00  0.00    +0.000 C 
ATOM     17  O   UNL     1       0.865  10.656  22.114  0.00  0.00    +0.000 OA
BRANCH  14  22
ATOM     18  C   UNL     1      -1.251  14.079  23.586  0.00  0.00    +0.000 A 
ATOM     19  C   UNL     1      -2.561  13.833  23.986  0.00  0.00    +0.000 A 
ATOM     20  C   UNL     1      -3.314  12.853  23.349  0.00  0.00    +0.000 A 
ATOM     21  C   UNL     1      -2.754  12.106  22.308  0.00  0.00    +0.000 A 
ATOM     22  C   UNL     1      -1.434  12.315  21.884  0.00  0.00    +0.000 A 
ATOM     23  C   UNL     1      -0.698  13.326  22.541  0.00  0.00    +0.000 A 
BRANCH  18  25
ATOM     24  C   UNL     1      -1.323  15.632  25.393  0.00  0.00    +0.000 C 
ATOM     25  O   UNL     1      -0.618  15.058  24.300  0.00  0.00    +0.000 OA
ENDBRANCH  18  25
ENDBRANCH  14  22
ENDBRANCH   1  16
TORSDOF 4
ENDMDL
MODEL 4
REMARK VINA RESULT:      -7.2      1.279      2.177
REMARK  Name = 
REMARK  6 active torsions:
REMARK  status: ('A' for Active; 'I' for Inactive)
REMARK    1  A    between atoms: C_1  and  O_2
REMARK    2  A    between atoms: O_2  and  C_3
REMARK    3  A    between atoms: C_7  and  N_8
REMARK    4  A    between atoms: N_8  and  C_9
REMARK    5  A    between atoms: C_10  and  C_12
REMARK    6  A    between atoms: C_15  and  C_16
REMARK                            x       y       z     vdW  Elec       q    Type
REMARK                         _______ _______ _______ _____ _____    ______ ____
ROOT
ATOM      1  C   UNL     1       0.884  10.067  19.914  0.00  0.00    +0.000 A 
ATOM      2  C   UNL     1       1.229  10.506  18.648  0.00  0.00    +0.000 A 
ATOM      3  C   UNL     1       1.818   9.485  17.846  0.00  0.00    +0.000 A 
ATOM      4  C   UNL     1       2.023   8.309  18.542  0.00  0.00    +0.000 A 
ATOM      5  S   UNL     1       1.379   8.431  20.124  0.00  0.00    +0.000 S 
ENDROOT
BRANCH   4   6
ATOM      6  C   UNL     1       2.739   7.101  18.090  0.00  0.00    +0.000 A 
ATOM      7  C   UNL     1       2.244   5.802  18.323  0.00  0.00    +0.000 A 
ATOM      8  C   UNL     1       2.962   4.673  17.902  0.00  0.00    +0.000 A 
ATOM      9  C   UNL     1       4.174   4.835  17.244  0.00  0.00    +0.000 A 
ATOM     10  F   UNL     1       4.858   3.754  16.845  0.00  0.00    +0.000 F 
ATOM     11  C   UNL     1       4.671   6.107  17.003  0.00  0.00    +0.000 A 
ATOM     12  F   UNL     1       5.842   6.267  16.371  0.00  0.00    +0.000 F 
ATOM     13  C   UNL     1       3.965   7.233  17.420  0.00  0.00    +0.000 A 
ENDBRANCH   4   6
BRANCH   1  16
ATOM     14  N   UNL     1      -0.839  11.613  20.875  0.00  0.00    +0.000 N 
ATOM     15  C   UNL     1      -1.466  11.780  19.565  0.00  0.00    +0.000 C 
ATOM     16  C   UNL     1       0.286  10.758  21.069  0.00  0.00    +0.000 C 
ATOM     17  O   UNL     1       0.798  10.600  22.180  0.00  0.00    +0.000 OA
BRANCH  14  22
ATOM     18  C   UNL     1      -1.222  14.149  23.655  0.00  0.00    +0.000 A 
ATOM     19  C   UNL     1      -2.512  13.874  24.100  0.00  0.00    +0.000 A 
ATOM     20  C   UNL     1      -3.261  12.872  23.493  0.00  0.00    +0.000 A 
ATOM     21  C   UNL     1      -2.718  12.133  22.437  0.00  0.00    +0.000 A 
ATOM     22  C   UNL     1      -1.417  12.371  21.969  0.00  0.00    +0.000 A 
ATOM     23  C   UNL     1      -0.685  13.404  22.595  0.00  0.00    +0.000 A 
BRANCH  18  25
ATOM     24  C   UNL     1      -1.227  15.643  25.512  0.00  0.00    +0.000 C 
ATOM     25  O   UNL     1      -0.589  15.147  24.343  0.00  0.00    +0.000 OA
ENDBRANCH  18  25
ENDBRANCH  14  22
ENDBRANCH   1  16
TORSDOF 4
ENDMDL
MODEL 5
REMARK VINA RESULT:      -7.1      1.581      2.043
REMARK  Name = 
REMARK  6 active torsions:
REMARK  status: ('A' for Active; 'I' for Inactive)
REMARK    1  A    between atoms: C_1  and  O_2
REMARK    2  A    between atoms: O_2  and  C_3
REMARK    3  A    between atoms: C_7  and  N_8
REMARK    4  A    between atoms: N_8  and  C_9
REMARK    5  A    between atoms: C_10  and  C_12
REMARK    6  A    between atoms: C_15  and  C_16
REMARK                            x       y       z     vdW  Elec       q    Type
REMARK                         _______ _______ _______ _____ _____    ______ ____
ROOT
ATOM      1  C   UNL     1       1.551   8.556  19.904  0.00  0.00    +0.000 A 
ATOM      2  C   UNL     1       2.099   8.655  18.638  0.00  0.00    +0.000 A 
ATOM      3  C   UNL     1       2.436   7.388  18.077  0.00  0.00    +0.000 A 
ATOM      4  C   UNL     1       2.249   6.343  18.962  0.00  0.00    +0.000 A 
ATOM      5  S   UNL     1       1.548   6.912  20.417  0.00  0.00    +0.000 S 
ENDROOT
BRANCH   4   6
ATOM      6  C   UNL     1       2.627   4.928  18.787  0.00  0.00    +0.000 A 
ATOM      7  C   UNL     1       2.196   4.165  17.684  0.00  0.00    +0.000 A 
ATOM      8  C   UNL     1       2.552   2.814  17.561  0.00  0.00    +0.000 A 
ATOM      9  C   UNL     1       3.342   2.220  18.535  0.00  0.00    +0.000 A 
ATOM     10  F   UNL     1       3.680   0.929  18.416  0.00  0.00    +0.000 F 
ATOM     11  C   UNL     1       3.778   2.959  19.625  0.00  0.00    +0.000 A 
ATOM     12  F   UNL     1       4.539   2.389  20.570  0.00  0.00    +0.000 F 
ATOM     13  C   UNL     1       3.427   4.301  19.756  0.00  0.00    +0.000 A 
ENDBRANCH   4   6
BRANCH   1  16
ATOM     14  N   UNL     1       0.126  10.545  20.447  0.00  0.00    +0.000 N 
ATOM     15  C   UNL     1      -0.468  10.524  19.111  0.00  0.00    +0.000 C 
ATOM     16  C   UNL     1       1.086   9.576  20.860  0.00  0.00    +0.000 C 
ATOM     17  O   UNL     1       1.568   9.581  21.996  0.00  0.00    +0.000 OA
BRANCH  14  22
ATOM     18  C   UNL     1      -1.877  12.461  23.020  0.00  0.00    +0.000 A 
ATOM     19  C   UNL     1      -1.181  13.665  23.067  0.00  0.00    +0.000 A 
ATOM     20  C   UNL     1      -0.057  13.854  22.270  0.00  0.00    +0.000 A 
ATOM     21  C   UNL     1       0.373  12.835  21.415  0.00  0.00    +0.000 A 
ATOM     22  C   UNL     1      -0.308  11.613  21.330  0.00  0.00    +0.000 A 
ATOM     23  C   UNL     1      -1.438  11.444  22.160  0.00  0.00    +0.000 A 
BRANCH  18  25
ATOM     24  C   UNL     1      -4.224  12.778  23.288  0.00  0.00    +0.000 C 
ATOM     25  O   UNL     1      -2.969  12.408  23.843  0.00  0.00    +0.000 OA
ENDBRANCH  18  25
ENDBRANCH  14  22
ENDBRANCH   1  16
TORSDOF 4
ENDMDL
MODEL 6
REMARK VINA RESULT:      -7.1      4.820      9.835
REMARK  Name = 
REMARK  6 active torsions:
REMARK  status: ('A' for Active; 'I' for Inactive)
REMARK    1  A    between atoms: C_1  and  O_2
REMARK    2  A    between atoms: O_2  and  C_3
REMARK    3  A    between atoms: C_7  and  N_8
REMARK    4  A    between atoms: N_8  and  C_9
REMARK    5  A    between atoms: C_10  and  C_12
REMARK    6  A    between atoms: C_15  and  C_16
REMARK                            x       y       z     vdW  Elec       q    Type
REMARK                         _______ _______ _______ _____ _____    ______ ____
ROOT
ATOM      1  C   UNL     1       1.399   8.410  20.311  0.00  0.00    +0.000 A 
ATOM      2  C   UNL     1       1.234   8.356  21.683  0.00  0.00    +0.000 A 
ATOM      3  C   UNL     1       0.331   9.344  22.175  0.00  0.00    +0.000 A 
ATOM      4  C   UNL     1      -0.097  10.216  21.191  0.00  0.00    +0.000 A 
ATOM      5  S   UNL     1       0.512   9.738  19.664  0.00  0.00    +0.000 S 
ENDROOT
BRANCH   4   6
ATOM      6  C   UNL     1      -0.906  11.438  21.353  0.00  0.00    +0.000 A 
ATOM      7  C   UNL     1      -1.617  12.017  20.283  0.00  0.00    +0.000 A 
ATOM      8  C   UNL     1      -2.357  13.194  20.464  0.00  0.00    +0.000 A 
ATOM      9  C   UNL     1      -2.392  13.799  21.713  0.00  0.00    +0.000 A 
ATOM     10  F   UNL     1      -3.098  14.924  21.883  0.00  0.00    +0.000 F 
ATOM     11  C   UNL     1      -1.700  13.239  22.778  0.00  0.00    +0.000 A 
ATOM     12  F   UNL     1      -1.730  13.820  23.985  0.00  0.00    +0.000 F 
ATOM     13  C   UNL     1      -0.962  12.070  22.605  0.00  0.00    +0.000 A 
ENDBRANCH   4   6
BRANCH   1  16
ATOM     14  N   UNL     1       2.438   6.234  19.628  0.00  0.00    +0.000 N 
ATOM     15  C   UNL     1       1.791   5.540  20.740  0.00  0.00    +0.000 C 
ATOM     16  C   UNL     1       2.233   7.625  19.385  0.00  0.00    +0.000 C 
ATOM     17  O   UNL     1       2.761   8.203  18.432  0.00  0.00    +0.000 OA
BRANCH  14  22
ATOM     18  C   UNL     1       5.564   4.641  18.216  0.00  0.00    +0.000 A 
ATOM     19  C   UNL     1       5.038   3.885  17.172  0.00  0.00    +0.000 A 
ATOM     20  C   UNL     1       3.669   3.885  16.931  0.00  0.00    +0.000 A 
ATOM     21  C   UNL     1       2.817   4.650  17.733  0.00  0.00    +0.000 A 
ATOM     22  C   UNL     1       3.309   5.435  18.786  0.00  0.00    +0.000 A 
ATOM     23  C   UNL     1       4.703   5.405  19.016  0.00  0.00    +0.000 A 
BRANCH  18  25
ATOM     24  C   UNL     1       7.573   5.580  19.090  0.00  0.00    +0.000 C 
ATOM     25  O   UNL     1       6.924   4.564  18.338  0.00  0.00    +0.000 OA
ENDBRANCH  18  25
ENDBRANCH  14  22
ENDBRANCH   1  16
TORSDOF 4
ENDMDL
MODEL 7
REMARK VINA RESULT:      -7.1      0.686      1.397
REMARK  Name = 
REMARK  6 active torsions:
REMARK  status: ('A' for Active; 'I' for Inactive)
REMARK    1  A    between atoms: C_1  and  O_2
REMARK    2  A    between atoms: O_2  and  C_3
REMARK    3  A    between atoms: C_7  and  N_8
REMARK    4  A    between atoms: N_8  and  C_9
REMARK    5  A    between atoms: C_10  and  C_12
REMARK    6  A    between atoms: C_15  and  C_16
REMARK                            x       y       z     vdW  Elec       q    Type
REMARK                         _______ _______ _______ _____ _____    ______ ____
ROOT
ATOM      1  C   UNL     1       0.972  10.116  19.903  0.00  0.00    +0.000 A 
ATOM      2  C   UNL     1       1.340  10.531  18.636  0.00  0.00    +0.000 A 
ATOM      3  C   UNL     1       1.884   9.479  17.842  0.00  0.00    +0.000 A 
ATOM      4  C   UNL     1       2.034   8.298  18.546  0.00  0.00    +0.000 A 
ATOM      5  S   UNL     1       1.391   8.460  20.125  0.00  0.00    +0.000 S 
ENDROOT
BRANCH   4   6
ATOM      6  C   UNL     1       2.694   7.056  18.103  0.00  0.00    +0.000 A 
ATOM      7  C   UNL     1       2.136   5.783  18.337  0.00  0.00    +0.000 A 
ATOM      8  C   UNL     1       2.802   4.620  17.925  0.00  0.00    +0.000 A 
ATOM      9  C   UNL     1       4.026   4.721  17.277  0.00  0.00    +0.000 A 
ATOM     10  F   UNL     1       4.660   3.608  16.886  0.00  0.00    +0.000 F 
ATOM     11  C   UNL     1       4.585   5.967  17.035  0.00  0.00    +0.000 A 
ATOM     12  F   UNL     1       5.767   6.069  16.411  0.00  0.00    +0.000 F 
ATOM     13  C   UNL     1       3.930   7.127  17.442  0.00  0.00    +0.000 A 
ENDBRANCH   4   6
BRANCH   1  16
ATOM     14  N   UNL     1      -0.681  11.745  20.849  0.00  0.00    +0.000 N 
ATOM     15  C   UNL     1      -1.295  11.932  19.536  0.00  0.00    +0.000 C 
ATOM     16  C   UNL     1       0.403  10.841  21.052  0.00  0.00    +0.000 C 
ATOM     17  O   UNL     1       0.905  10.666  22.166  0.00  0.00    +0.000 OA
BRANCH  14  22
ATOM     18  C   UNL     1      -2.992  12.917  23.604  0.00  0.00    +0.000 A 
ATOM     19  C   UNL     1      -2.320  14.047  24.062  0.00  0.00    +0.000 A 
ATOM     20  C   UNL     1      -1.113  14.424  23.484  0.00  0.00    +0.000 A 
ATOM     21  C   UNL     1      -0.574  13.673  22.435  0.00  0.00    +0.000 A 
ATOM     22  C   UNL     1      -1.227  12.536  21.937  0.00  0.00    +0.000 A 
ATOM     23  C   UNL     1      -2.444  12.169  22.553  0.00  0.00    +0.000 A 
BRANCH  18  25
ATOM     24  C   UNL     1      -5.375  12.903  23.530  0.00  0.00    +0.000 C 
ATOM     25  O   UNL     1      -4.172  12.663  24.248  0.00  0.00    +0.000 OA
ENDBRANCH  18  25
ENDBRANCH  14  22
ENDBRANCH   1  16
TORSDOF 4
ENDMDL
MODEL 8
REMARK VINA RESULT:      -7.0      4.500      9.650
REMARK  Name = 
REMARK  6 active torsions:
REMARK  status: ('A' for Active; 'I' for Inactive)
REMARK    1  A    between atoms: C_1  and  O_2
REMARK    2  A    between atoms: O_2  and  C_3
REMARK    3  A    between atoms: C_7  and  N_8
REMARK    4  A    between atoms: N_8  and  C_9
REMARK    5  A    between atoms: C_10  and  C_12
REMARK    6  A    between atoms: C_15  and  C_16
REMARK                            x       y       z     vdW  Elec       q    Type
REMARK                         _______ _______ _______ _____ _____    ______ ____
ROOT
ATOM      1  C   UNL     1       0.976   9.139  20.102  0.00  0.00    +0.000 A 
ATOM      2  C   UNL     1       0.447   9.988  19.147  0.00  0.00    +0.000 A 
ATOM      3  C   UNL     1      -0.131  11.165  19.706  0.00  0.00    +0.000 A 
ATOM      4  C   UNL     1      -0.142  11.151  21.089  0.00  0.00    +0.000 A 
ATOM      5  S   UNL     1       0.667   9.762  21.678  0.00  0.00    +0.000 S 
ENDROOT
BRANCH   4   6
ATOM      6  C   UNL     1      -0.786  12.116  22.000  0.00  0.00    +0.000 A 
ATOM      7  C   UNL     1      -0.296  13.424  22.180  0.00  0.00    +0.000 A 
ATOM      8  C   UNL     1      -0.917  14.309  23.073  0.00  0.00    +0.000 A 
ATOM      9  C   UNL     1      -2.032  13.893  23.789  0.00  0.00    +0.000 A 
ATOM     10  F   UNL     1      -2.622  14.739  24.643  0.00  0.00    +0.000 F 
ATOM     11  C   UNL     1      -2.529  12.609  23.619  0.00  0.00    +0.000 A 
ATOM     12  F   UNL     1      -3.604  12.202  24.310  0.00  0.00    +0.000 F 
ATOM     13  C   UNL     1      -1.916  11.724  22.735  0.00  0.00    +0.000 A 
ENDBRANCH   4   6
BRANCH   1  16
ATOM     14  N   UNL     1       2.361   7.492  18.818  0.00  0.00    +0.000 N 
ATOM     15  C   UNL     1       2.529   8.441  17.719  0.00  0.00    +0.000 C 
ATOM     16  C   UNL     1       1.636   7.826  19.999  0.00  0.00    +0.000 C 
ATOM     17  O   UNL     1       1.516   7.032  20.935  0.00  0.00    +0.000 OA
BRANCH  14  22
ATOM     18  C   UNL     1       4.935   4.721  18.787  0.00  0.00    +0.000 A 
ATOM     19  C   UNL     1       4.180   3.652  18.312  0.00  0.00    +0.000 A 
ATOM     20  C   UNL     1       2.834   3.827  18.010  0.00  0.00    +0.000 A 
ATOM     21  C   UNL     1       2.237   5.080  18.176  0.00  0.00    +0.000 A 
ATOM     22  C   UNL     1       2.966   6.184  18.640  0.00  0.00    +0.000 A 
ATOM     23  C   UNL     1       4.328   5.973  18.952  0.00  0.00    +0.000 A 
BRANCH  18  25
ATOM     24  C   UNL     1       7.112   5.494  19.374  0.00  0.00    +0.000 C 
ATOM     25  O   UNL     1       6.246   4.419  19.034  0.00  0.00    +0.000 OA
ENDBRANCH  18  25
ENDBRANCH  14  22
ENDBRANCH   1  16
TORSDOF 4
ENDMDL
MODEL 9
REMARK VINA RESULT:      -7.0      1.797      2.533
REMARK  Name = 
REMARK  6 active torsions:
REMARK  status: ('A' for Active; 'I' for Inactive)
REMARK    1  A    between atoms: C_1  and  O_2
REMARK    2  A    between atoms: O_2  and  C_3
REMARK    3  A    between atoms: C_7  and  N_8
REMARK    4  A    between atoms: N_8  and  C_9
REMARK    5  A    between atoms: C_10  and  C_12
REMARK    6  A    between atoms: C_15  and  C_16
REMARK                            x       y       z     vdW  Elec       q    Type
REMARK                         _______ _______ _______ _____ _____    ______ ____
ROOT
ATOM      1  C   UNL     1       1.455   8.740  19.973  0.00  0.00    +0.000 A 
ATOM      2  C   UNL     1       1.936   8.888  18.684  0.00  0.00    +0.000 A 
ATOM      3  C   UNL     1       2.298   7.648  18.080  0.00  0.00    +0.000 A 
ATOM      4  C   UNL     1       2.199   6.578  18.950  0.00  0.00    +0.000 A 
ATOM      5  S   UNL     1       1.547   7.087  20.449  0.00  0.00    +0.000 S 
ENDROOT
BRANCH   4   6
ATOM      6  C   UNL     1       2.627   5.185  18.727  0.00  0.00    +0.000 A 
ATOM      7  C   UNL     1       3.674   4.852  17.844  0.00  0.00    +0.000 A 
ATOM      8  C   UNL     1       4.041   3.515  17.635  0.00  0.00    +0.000 A 
ATOM      9  C   UNL     1       3.366   2.504  18.305  0.00  0.00    +0.000 A 
ATOM     10  F   UNL     1       3.717   1.227  18.102  0.00  0.00    +0.000 F 
ATOM     11  C   UNL     1       2.336   2.816  19.180  0.00  0.00    +0.000 A 
ATOM     12  F   UNL     1       1.679   1.843  19.828  0.00  0.00    +0.000 F 
ATOM     13  C   UNL     1       1.965   4.142  19.393  0.00  0.00    +0.000 A 
ENDBRANCH   4   6
BRANCH   1  16
ATOM     14  N   UNL     1      -0.056  10.625  20.642  0.00  0.00    +0.000 N 
ATOM     15  C   UNL     1      -0.744  10.573  19.352  0.00  0.00    +0.000 C 
ATOM     16  C   UNL     1       0.995   9.719  20.972  0.00  0.00    +0.000 C 
ATOM     17  O   UNL     1       1.557   9.749  22.070  0.00  0.00    +0.000 OA
BRANCH  14  22
ATOM     18  C   UNL     1      -0.331  13.957  22.410  0.00  0.00    +0.000 A 
ATOM     19  C   UNL     1      -1.324  13.687  23.347  0.00  0.00    +0.000 A 
ATOM     20  C   UNL     1      -1.911  12.428  23.401  0.00  0.00    +0.000 A 
ATOM     21  C   UNL     1      -1.500  11.426  22.516  0.00  0.00    +0.000 A 
ATOM     22  C   UNL     1      -0.494  11.654  21.566  0.00  0.00    +0.000 A 
ATOM     23  C   UNL     1       0.074  12.947  21.526  0.00  0.00    +0.000 A 
BRANCH  18  25
ATOM     24  C   UNL     1       0.176  15.987  21.268  0.00  0.00    +0.000 C 
ATOM     25  O   UNL     1       0.171  15.228  22.470  0.00  0.00    +0.000 OA
ENDBRANCH  18  25
ENDBRANCH  14  22
ENDBRANCH   1  16
TORSDOF 4
ENDMDL
