MODEL 1
REMARK VINA RESULT:      -7.8      0.000      0.000
REMARK  Name = 
REMARK  6 active torsions:
REMARK  status: ('A' for Active; 'I' for Inactive)
REMARK    1  A    between atoms: C_1  and  C_2
REMARK    2  A    between atoms: C_6  and  N_7
REMARK    3  A    between atoms: C_8  and  C_10
REMARK    4  A    between atoms: C_10  and  C_11
REMARK    5  A    between atoms: C_11  and  S_12
REMARK    6  A    between atoms: S_12  and  C_15
REMARK                            x       y       z     vdW  Elec       q    Type
REMARK                         _______ _______ _______ _____ _____    ______ ____
ROOT
ATOM      1  N   UNL     1       6.372   5.237  15.709  0.00  0.00    +0.000 N 
ATOM      2  C   UNL     1       5.566   6.290  16.105  0.00  0.00    +0.000 C 
ATOM      3  O   UNL     1       5.027   7.105  15.360  0.00  0.00    +0.000 OA
ATOM      4  H   UNL     1       6.793   4.664  16.430  0.00  0.00    +0.000 HD
ENDROOT
BRANCH   1  10
ATOM      5  C   UNL     1       5.254   2.409  11.791  0.00  0.00    +0.000 C 
ATOM      6  C   UNL     1       6.099   3.472  12.432  0.00  0.00    +0.000 A 
ATOM      7  C   UNL     1       7.129   4.074  11.704  0.00  0.00    +0.000 A 
ATOM      8  C   UNL     1       7.911   5.057  12.293  0.00  0.00    +0.000 A 
ATOM      9  C   UNL     1       7.675   5.449  13.611  0.00  0.00    +0.000 A 
ATOM     10  C   UNL     1       6.655   4.866  14.367  0.00  0.00    +0.000 A 
ATOM     11  C   UNL     1       5.867   3.872  13.764  0.00  0.00    +0.000 A 
ENDBRANCH   1  10
BRANCH   2  12
ATOM     12  C   UNL     1       5.377   6.420  17.603  0.00  0.00    +0.000 C 
BRANCH  12  13
ATOM     13  C   UNL     1       4.127   5.632  17.985  0.00  0.00    +0.000 C 
BRANCH  13  14
ATOM     14  S   UNL     1       4.476   3.950  18.402  0.00  0.00    +0.000 S 
ATOM     15  O   UNL     1       4.281   3.146  17.214  0.00  0.00    +0.000 OA
ATOM     16  O   UNL     1       5.730   3.909  19.130  0.00  0.00    +0.000 OA
BRANCH  14  17
ATOM     17  C   UNL     1       3.172   3.542  19.549  0.00  0.00    +0.000 A 
ATOM     18  C   UNL     1       1.872   3.995  19.307  0.00  0.00    +0.000 A 
ATOM     19  C   UNL     1       0.853   3.672  20.208  0.00  0.00    +0.000 A 
ATOM     20  C   UNL     1       1.135   2.900  21.335  0.00  0.00    +0.000 A 
ATOM     21  C   UNL     1       2.432   2.439  21.563  0.00  0.00    +0.000 A 
ATOM     22  C   UNL     1       3.457   2.755  20.668  0.00  0.00    +0.000 A 
ENDBRANCH  14  17
ENDBRANCH  13  14
ENDBRANCH  12  13
ENDBRANCH   2  12
TORSDOF 5
ENDMDL
MODEL 2
REMARK VINA RESULT:      -7.7      3.635      6.924
REMARK  Name = 
REMARK  6 active torsions:
REMARK  status: ('A' for Active; 'I' for Inactive)
REMARK    1  A    between atoms: C_1  and  C_2
REMARK    2  A    between atoms: C_6  and  N_7
REMARK    3  A    between atoms: C_8  and  C_10
REMARK    4  A    between atoms: C_10  and  C_11
REMARK    5  A    between atoms: C_11  and  S_12
REMARK    6  A    between atoms: S_12  and  C_15
REMARK                            x       y       z     vdW  Elec       q    Type
REMARK                         _______ _______ _______ _____ _____    ______ ____
ROOT
ATOM      1  N   UNL     1       2.599   6.033  20.331  0.00  0.00    +0.000 N 
ATOM      2  C   UNL     1       1.815   4.925  20.604  0.00  0.00    +0.000 C 
ATOM      3  O   UNL     1       0.597   4.851  20.464  0.00  0.00    +0.000 OA
ATOM      4  H   UNL     1       3.589   5.976  20.534  0.00  0.00    +0.000 HD
ENDROOT
BRANCH   1  10
ATOM      5  C   UNL     1       0.223  10.340  20.964  0.00  0.00    +0.000 C 
ATOM      6  C   UNL     1       0.973   9.384  20.083  0.00  0.00    +0.000 A 
ATOM      7  C   UNL     1       1.210   9.711  18.745  0.00  0.00    +0.000 A 
ATOM      8  C   UNL     1       1.903   8.829  17.928  0.00  0.00    +0.000 A 
ATOM      9  C   UNL     1       2.365   7.614  18.436  0.00  0.00    +0.000 A 
ATOM     10  C   UNL     1       2.142   7.255  19.768  0.00  0.00    +0.000 A 
ATOM     11  C   UNL     1       1.441   8.153  20.589  0.00  0.00    +0.000 A 
ENDBRANCH   1  10
BRANCH   2  12
ATOM     12  C   UNL     1       2.573   3.726  21.139  0.00  0.00    +0.000 C 
BRANCH  12  13
ATOM     13  C   UNL     1       2.471   2.610  20.103  0.00  0.00    +0.000 C 
BRANCH  13  14
ATOM     14  S   UNL     1       4.042   2.145  19.439  0.00  0.00    +0.000 S 
ATOM     15  O   UNL     1       4.952   1.940  20.548  0.00  0.00    +0.000 OA
ATOM     16  O   UNL     1       3.833   1.109  18.447  0.00  0.00    +0.000 OA
BRANCH  14  17
ATOM     17  C   UNL     1       4.566   3.618  18.580  0.00  0.00    +0.000 A 
ATOM     18  C   UNL     1       4.003   3.933  17.340  0.00  0.00    +0.000 A 
ATOM     19  C   UNL     1       4.416   5.087  16.670  0.00  0.00    +0.000 A 
ATOM     20  C   UNL     1       5.378   5.920  17.241  0.00  0.00    +0.000 A 
ATOM     21  C   UNL     1       5.926   5.609  18.486  0.00  0.00    +0.000 A 
ATOM     22  C   UNL     1       5.519   4.457  19.163  0.00  0.00    +0.000 A 
ENDBRANCH  14  17
ENDBRANCH  13  14
ENDBRANCH  12  13
ENDBRANCH   2  12
TORSDOF 5
ENDMDL
MODEL 3
REMARK VINA RESULT:      -7.7      3.612      6.979
REMARK  Name = 
REMARK  6 active torsions:
REMARK  status: ('A' for Active; 'I' for Inactive)
REMARK    1  A    between atoms: C_1  and  C_2
REMARK    2  A    between atoms: C_6  and  N_7
REMARK    3  A    between atoms: C_8  and  C_10
REMARK    4  A    between atoms: C_10  and  C_11
REMARK    5  A    between atoms: C_11  and  S_12
REMARK    6  A    between atoms: S_12  and  C_15
REMARK                            x       y       z     vdW  Elec       q    Type
REMARK                         _______ _______ _______ _____ _____    ______ ____
ROOT
ATOM      1  N   UNL     1       2.608   6.061  20.318  0.00  0.00    +0.000 N 
ATOM      2  C   UNL     1       1.829   4.948  20.586  0.00  0.00    +0.000 C 
ATOM      3  O   UNL     1       0.612   4.868  20.438  0.00  0.00    +0.000 OA
ATOM      4  H   UNL     1       3.597   6.010  20.528  0.00  0.00    +0.000 HD
ENDROOT
BRANCH   1  10
ATOM      5  C   UNL     1       0.205  10.355  20.940  0.00  0.00    +0.000 C 
ATOM      6  C   UNL     1       0.966   9.403  20.063  0.00  0.00    +0.000 A 
ATOM      7  C   UNL     1       1.209   9.732  18.726  0.00  0.00    +0.000 A 
ATOM      8  C   UNL     1       1.911   8.854  17.913  0.00  0.00    +0.000 A 
ATOM      9  C   UNL     1       2.377   7.642  18.423  0.00  0.00    +0.000 A 
ATOM     10  C   UNL     1       2.148   7.281  19.753  0.00  0.00    +0.000 A 
ATOM     11  C   UNL     1       1.437   8.175  20.571  0.00  0.00    +0.000 A 
ENDBRANCH   1  10
BRANCH   2  12
ATOM     12  C   UNL     1       2.590   3.753  21.125  0.00  0.00    +0.000 C 
BRANCH  12  13
ATOM     13  C   UNL     1       2.477   2.628  20.100  0.00  0.00    +0.000 C 
BRANCH  13  14
ATOM     14  S   UNL     1       4.041   2.152  19.429  0.00  0.00    +0.000 S 
ATOM     15  O   UNL     1       4.955   1.941  20.533  0.00  0.00    +0.000 OA
ATOM     16  O   UNL     1       3.819   1.117  18.438  0.00  0.00    +0.000 OA
BRANCH  14  17
ATOM     17  C   UNL     1       4.570   3.621  18.566  0.00  0.00    +0.000 A 
ATOM     18  C   UNL     1       5.526   4.459  19.148  0.00  0.00    +0.000 A 
ATOM     19  C   UNL     1       5.938   5.608  18.469  0.00  0.00    +0.000 A 
ATOM     20  C   UNL     1       5.401   5.911  17.217  0.00  0.00    +0.000 A 
ATOM     21  C   UNL     1       4.458   5.063  16.635  0.00  0.00    +0.000 A 
ATOM     22  C   UNL     1       4.041   3.911  17.306  0.00  0.00    +0.000 A 
ENDBRANCH  14  17
ENDBRANCH  13  14
ENDBRANCH  12  13
ENDBRANCH   2  12
TORSDOF 5
ENDMDL
MODEL 4
REMARK VINA RESULT:      -7.6      0.399      1.127
REMARK  Name = 
REMARK  6 active torsions:
REMARK  status: ('A' for Active; 'I' for Inactive)
REMARK    1  A    between atoms: C_1  and  C_2
REMARK    2  A    between atoms: C_6  and  N_7
REMARK    3  A    between atoms: C_8  and  C_10
REMARK    4  A    between atoms: C_10  and  C_11
REMARK    5  A    between atoms: C_11  and  S_12
REMARK    6  A    between atoms: S_12  and  C_15
REMARK                            x       y       z     vdW  Elec       q    Type
REMARK                         _______ _______ _______ _____ _____    ______ ____
ROOT
ATOM      1  N   UNL     1       5.793   5.079  15.608  0.00  0.00    +0.000 N 
ATOM      2  C   UNL     1       5.209   6.288  15.948  0.00  0.00    +0.000 C 
ATOM      3  O   UNL     1       5.024   7.237  15.191  0.00  0.00    +0.000 OA
ATOM      4  H   UNL     1       5.928   4.394  16.341  0.00  0.00    +0.000 HD
ENDROOT
BRANCH   1  10
ATOM      5  C   UNL     1       4.860   2.516  11.466  0.00  0.00    +0.000 C 
ATOM      6  C   UNL     1       5.746   3.434  12.259  0.00  0.00    +0.000 A 
ATOM      7  C   UNL     1       6.945   3.892  11.706  0.00  0.00    +0.000 A 
ATOM      8  C   UNL     1       7.765   4.740  12.435  0.00  0.00    +0.000 A 
ATOM      9  C   UNL     1       7.400   5.138  13.722  0.00  0.00    +0.000 A 
ATOM     10  C   UNL     1       6.210   4.696  14.305  0.00  0.00    +0.000 A 
ATOM     11  C   UNL     1       5.384   3.838  13.560  0.00  0.00    +0.000 A 
ENDBRANCH   1  10
BRANCH   2  12
ATOM     12  C   UNL     1       4.795   6.409  17.401  0.00  0.00    +0.000 C 
BRANCH  12  13
ATOM     13  C   UNL     1       3.649   5.431  17.642  0.00  0.00    +0.000 C 
BRANCH  13  14
ATOM     14  S   UNL     1       4.203   3.848  18.200  0.00  0.00    +0.000 S 
ATOM     15  O   UNL     1       3.990   2.897  17.128  0.00  0.00    +0.000 OA
ATOM     16  O   UNL     1       5.512   4.007  18.804  0.00  0.00    +0.000 OA
BRANCH  14  17
ATOM     17  C   UNL     1       3.050   3.456  19.503  0.00  0.00    +0.000 A 
ATOM     18  C   UNL     1       3.460   2.655  20.573  0.00  0.00    +0.000 A 
ATOM     19  C   UNL     1       2.554   2.351  21.591  0.00  0.00    +0.000 A 
ATOM     20  C   UNL     1       1.252   2.848  21.540  0.00  0.00    +0.000 A 
ATOM     21  C   UNL     1       0.851   3.659  20.477  0.00  0.00    +0.000 A 
ATOM     22  C   UNL     1       1.751   3.969  19.455  0.00  0.00    +0.000 A 
ENDBRANCH  14  17
ENDBRANCH  13  14
ENDBRANCH  12  13
ENDBRANCH   2  12
TORSDOF 5
ENDMDL
MODEL 5
REMARK VINA RESULT:      -7.5      3.979      7.132
REMARK  Name = 
REMARK  6 active torsions:
REMARK  status: ('A' for Active; 'I' for Inactive)
REMARK    1  A    between atoms: C_1  and  C_2
REMARK    2  A    between atoms: C_6  and  N_7
REMARK    3  A    between atoms: C_8  and  C_10
REMARK    4  A    between atoms: C_10  and  C_11
REMARK    5  A    between atoms: C_11  and  S_12
REMARK    6  A    between atoms: S_12  and  C_15
REMARK                            x       y       z     vdW  Elec       q    Type
REMARK                         _______ _______ _______ _____ _____    ______ ____
ROOT
ATOM      1  N   UNL     1       2.199   5.893  21.083  0.00  0.00    +0.000 N 
ATOM      2  C   UNL     1       1.628   4.662  20.805  0.00  0.00    +0.000 C 
ATOM      3  O   UNL     1       0.554   4.478  20.238  0.00  0.00    +0.000 OA
ATOM      4  H   UNL     1       3.071   5.906  21.599  0.00  0.00    +0.000 HD
ENDROOT
BRANCH   1  10
ATOM      5  C   UNL     1       2.019   9.513  17.698  0.00  0.00    +0.000 C 
ATOM      6  C   UNL     1       1.589   8.941  19.018  0.00  0.00    +0.000 A 
ATOM      7  C   UNL     1       0.695   9.650  19.824  0.00  0.00    +0.000 A 
ATOM      8  C   UNL     1       0.295   9.124  21.045  0.00  0.00    +0.000 A 
ATOM      9  C   UNL     1       0.783   7.889  21.473  0.00  0.00    +0.000 A 
ATOM     10  C   UNL     1       1.681   7.156  20.693  0.00  0.00    +0.000 A 
ATOM     11  C   UNL     1       2.080   7.694  19.458  0.00  0.00    +0.000 A 
ENDBRANCH   1  10
BRANCH   2  12
ATOM     12  C   UNL     1       2.429   3.466  21.280  0.00  0.00    +0.000 C 
BRANCH  12  13
ATOM     13  C   UNL     1       2.378   2.406  20.183  0.00  0.00    +0.000 C 
BRANCH  13  14
ATOM     14  S   UNL     1       3.948   2.132  19.420  0.00  0.00    +0.000 S 
ATOM     15  O   UNL     1       4.912   1.859  20.466  0.00  0.00    +0.000 OA
ATOM     16  O   UNL     1       3.767   1.209  18.317  0.00  0.00    +0.000 OA
BRANCH  14  17
ATOM     17  C   UNL     1       4.342   3.729  18.729  0.00  0.00    +0.000 A 
ATOM     18  C   UNL     1       5.420   4.457  19.240  0.00  0.00    +0.000 A 
ATOM     19  C   UNL     1       5.725   5.707  18.696  0.00  0.00    +0.000 A 
ATOM     20  C   UNL     1       4.960   6.219  17.648  0.00  0.00    +0.000 A 
ATOM     21  C   UNL     1       3.894   5.481  17.132  0.00  0.00    +0.000 A 
ATOM     22  C   UNL     1       3.582   4.230  17.669  0.00  0.00    +0.000 A 
ENDBRANCH  14  17
ENDBRANCH  13  14
ENDBRANCH  12  13
ENDBRANCH   2  12
TORSDOF 5
ENDMDL
MODEL 6
REMARK VINA RESULT:      -7.4      1.034      1.204
REMARK  Name = 
REMARK  6 active torsions:
REMARK  status: ('A' for Active; 'I' for Inactive)
REMARK    1  A    between atoms: C_1  and  C_2
REMARK    2  A    between atoms: C_6  and  N_7
REMARK    3  A    between atoms: C_8  and  C_10
REMARK    4  A    between atoms: C_10  and  C_11
REMARK    5  A    between atoms: C_11  and  S_12
REMARK    6  A    between atoms: S_12  and  C_15
REMARK                            x       y       z     vdW  Elec       q    Type
REMARK                         _______ _______ _______ _____ _____    ______ ____
ROOT
ATOM      1  N   UNL     1       6.497   4.791  15.892  0.00  0.00    +0.000 N 
ATOM      2  C   UNL     1       6.085   5.957  16.514  0.00  0.00    +0.000 C 
ATOM      3  O   UNL     1       5.909   7.043  15.966  0.00  0.00    +0.000 OA
ATOM      4  H   UNL     1       6.649   3.973  16.470  0.00  0.00    +0.000 HD
ENDROOT
BRANCH   1  10
ATOM      5  C   UNL     1       5.185   2.567  11.658  0.00  0.00    +0.000 C 
ATOM      6  C   UNL     1       6.061   3.529  12.407  0.00  0.00    +0.000 A 
ATOM      7  C   UNL     1       7.055   4.238  11.727  0.00  0.00    +0.000 A 
ATOM      8  C   UNL     1       7.866   5.129  12.416  0.00  0.00    +0.000 A 
ATOM      9  C   UNL     1       7.695   5.320  13.787  0.00  0.00    +0.000 A 
ATOM     10  C   UNL     1       6.713   4.624  14.498  0.00  0.00    +0.000 A 
ATOM     11  C   UNL     1       5.895   3.726  13.794  0.00  0.00    +0.000 A 
ENDBRANCH   1  10
BRANCH   2  12
ATOM     12  C   UNL     1       5.864   5.839  18.009  0.00  0.00    +0.000 C 
BRANCH  12  13
ATOM     13  C   UNL     1       5.176   4.503  18.273  0.00  0.00    +0.000 C 
BRANCH  13  14
ATOM     14  S   UNL     1       3.457   4.523  17.861  0.00  0.00    +0.000 S 
ATOM     15  O   UNL     1       3.029   5.906  17.800  0.00  0.00    +0.000 OA
ATOM     16  O   UNL     1       3.243   3.628  16.740  0.00  0.00    +0.000 OA
BRANCH  14  17
ATOM     17  C   UNL     1       2.692   3.786  19.294  0.00  0.00    +0.000 A 
ATOM     18  C   UNL     1       1.302   3.817  19.430  0.00  0.00    +0.000 A 
ATOM     19  C   UNL     1       0.707   3.238  20.554  0.00  0.00    +0.000 A 
ATOM     20  C   UNL     1       1.498   2.631  21.529  0.00  0.00    +0.000 A 
ATOM     21  C   UNL     1       2.885   2.590  21.382  0.00  0.00    +0.000 A 
ATOM     22  C   UNL     1       3.489   3.165  20.261  0.00  0.00    +0.000 A 
ENDBRANCH  14  17
ENDBRANCH  13  14
ENDBRANCH  12  13
ENDBRANCH   2  12
TORSDOF 5
ENDMDL
MODEL 7
REMARK VINA RESULT:      -7.4      1.750      7.205
REMARK  Name = 
REMARK  6 active torsions:
REMARK  status: ('A' for Active; 'I' for Inactive)
REMARK    1  A    between atoms: C_1  and  C_2
REMARK    2  A    between atoms: C_6  and  N_7
REMARK    3  A    between atoms: C_8  and  C_10
REMARK    4  A    between atoms: C_10  and  C_11
REMARK    5  A    between atoms: C_11  and  S_12
REMARK    6  A    between atoms: S_12  and  C_15
REMARK                            x       y       z     vdW  Elec       q    Type
REMARK                         _______ _______ _______ _____ _____    ______ ____
ROOT
ATOM      1  N   UNL     1       4.020   6.050  18.284  0.00  0.00    +0.000 N 
ATOM      2  C   UNL     1       5.362   6.008  18.619  0.00  0.00    +0.000 C 
ATOM      3  O   UNL     1       5.842   5.447  19.602  0.00  0.00    +0.000 OA
ATOM      4  H   UNL     1       3.751   6.587  17.469  0.00  0.00    +0.000 HD
ENDROOT
BRANCH   1  10
ATOM      5  C   UNL     1       0.971   2.149  18.579  0.00  0.00    +0.000 C 
ATOM      6  C   UNL     1       1.468   3.458  19.122  0.00  0.00    +0.000 A 
ATOM      7  C   UNL     1       0.901   3.989  20.283  0.00  0.00    +0.000 A 
ATOM      8  C   UNL     1       1.359   5.198  20.788  0.00  0.00    +0.000 A 
ATOM      9  C   UNL     1       2.383   5.889  20.140  0.00  0.00    +0.000 A 
ATOM     10  C   UNL     1       2.970   5.387  18.975  0.00  0.00    +0.000 A 
ATOM     11  C   UNL     1       2.502   4.162  18.471  0.00  0.00    +0.000 A 
ENDBRANCH   1  10
BRANCH   2  12
ATOM     12  C   UNL     1       6.280   6.750  17.669  0.00  0.00    +0.000 C 
BRANCH  12  13
ATOM     13  C   UNL     1       6.015   6.227  16.260  0.00  0.00    +0.000 C 
BRANCH  13  14
ATOM     14  S   UNL     1       6.508   4.543  16.050  0.00  0.00    +0.000 S 
ATOM     15  O   UNL     1       7.820   4.384  16.644  0.00  0.00    +0.000 OA
ATOM     16  O   UNL     1       5.404   3.689  16.445  0.00  0.00    +0.000 OA
BRANCH  14  17
ATOM     17  C   UNL     1       6.697   4.398  14.283  0.00  0.00    +0.000 A 
ATOM     18  C   UNL     1       7.631   5.198  13.618  0.00  0.00    +0.000 A 
ATOM     19  C   UNL     1       7.776   5.081  12.234  0.00  0.00    +0.000 A 
ATOM     20  C   UNL     1       6.997   4.168  11.524  0.00  0.00    +0.000 A 
ATOM     21  C   UNL     1       6.076   3.361  12.194  0.00  0.00    +0.000 A 
ATOM     22  C   UNL     1       5.925   3.470  13.578  0.00  0.00    +0.000 A 
ENDBRANCH  14  17
ENDBRANCH  13  14
ENDBRANCH  12  13
ENDBRANCH   2  12
TORSDOF 5
ENDMDL
MODEL 8
REMARK VINA RESULT:      -7.3      5.156      7.178
REMARK  Name = 
REMARK  6 active torsions:
REMARK  status: ('A' for Active; 'I' for Inactive)
REMARK    1  A    between atoms: C_1  and  C_2
REMARK    2  A    between atoms: C_6  and  N_7
REMARK    3  A    between atoms: C_8  and  C_10
REMARK    4  A    between atoms: C_10  and  C_11
REMARK    5  A    between atoms: C_11  and  S_12
REMARK    6  A    between atoms: S_12  and  C_15
REMARK                            x       y       z     vdW  Elec       q    Type
REMARK                         _______ _______ _______ _____ _____    ______ ____
ROOT
ATOM      1  N   UNL     1       9.318   9.300  19.281  0.00  0.00    +0.000 N 
ATOM      2  C   UNL     1       8.360   8.779  18.428  0.00  0.00    +0.000 C 
ATOM      3  O   UNL     1       7.621   9.429  17.691  0.00  0.00    +0.000 OA
ATOM      4  H   UNL     1       9.830   8.655  19.869  0.00  0.00    +0.000 HD
ENDROOT
BRANCH   1  10
ATOM      5  C   UNL     1      10.975  13.429  17.089  0.00  0.00    +0.000 C 
ATOM      6  C   UNL     1      10.483  12.711  18.312  0.00  0.00    +0.000 A 
ATOM      7  C   UNL     1      10.376  13.397  19.525  0.00  0.00    +0.000 A 
ATOM      8  C   UNL     1       9.922  12.737  20.657  0.00  0.00    +0.000 A 
ATOM      9  C   UNL     1       9.571  11.388  20.593  0.00  0.00    +0.000 A 
ATOM     10  C   UNL     1       9.670  10.672  19.397  0.00  0.00    +0.000 A 
ATOM     11  C   UNL     1      10.130  11.347  18.254  0.00  0.00    +0.000 A 
ENDBRANCH   1  10
BRANCH   2  12
ATOM     12  C   UNL     1       8.235   7.269  18.455  0.00  0.00    +0.000 C 
BRANCH  12  13
ATOM     13  C   UNL     1       7.425   6.846  17.233  0.00  0.00    +0.000 C 
BRANCH  13  14
ATOM     14  S   UNL     1       7.101   5.109  17.194  0.00  0.00    +0.000 S 
ATOM     15  O   UNL     1       7.371   4.635  15.851  0.00  0.00    +0.000 OA
ATOM     16  O   UNL     1       7.741   4.496  18.342  0.00  0.00    +0.000 OA
BRANCH  14  17
ATOM     17  C   UNL     1       5.337   5.024  17.448  0.00  0.00    +0.000 A 
ATOM     18  C   UNL     1       4.617   6.195  17.698  0.00  0.00    +0.000 A 
ATOM     19  C   UNL     1       3.236   6.125  17.897  0.00  0.00    +0.000 A 
ATOM     20  C   UNL     1       2.584   4.893  17.840  0.00  0.00    +0.000 A 
ATOM     21  C   UNL     1       3.306   3.728  17.576  0.00  0.00    +0.000 A 
ATOM     22  C   UNL     1       4.686   3.789  17.375  0.00  0.00    +0.000 A 
ENDBRANCH  14  17
ENDBRANCH  13  14
ENDBRANCH  12  13
ENDBRANCH   2  12
TORSDOF 5
ENDMDL
MODEL 9
REMARK VINA RESULT:      -7.3      1.099      1.165
REMARK  Name = 
REMARK  6 active torsions:
REMARK  status: ('A' for Active; 'I' for Inactive)
REMARK    1  A    between atoms: C_1  and  C_2
REMARK    2  A    between atoms: C_6  and  N_7
REMARK    3  A    between atoms: C_8  and  C_10
REMARK    4  A    between atoms: C_10  and  C_11
REMARK    5  A    between atoms: C_11  and  S_12
REMARK    6  A    between atoms: S_12  and  C_15
REMARK                            x       y       z     vdW  Elec       q    Type
REMARK                         _______ _______ _______ _____ _____    ______ ____
ROOT
ATOM      1  N   UNL     1       6.159   5.112  15.774  0.00  0.00    +0.000 N 
ATOM      2  C   UNL     1       6.769   6.036  16.606  0.00  0.00    +0.000 C 
ATOM      3  O   UNL     1       7.773   6.692  16.340  0.00  0.00    +0.000 OA
ATOM      4  H   UNL     1       5.360   4.604  16.134  0.00  0.00    +0.000 HD
ENDROOT
BRANCH   1  10
ATOM      5  C   UNL     1       5.421   2.424  11.672  0.00  0.00    +0.000 C 
ATOM      6  C   UNL     1       6.173   3.493  12.412  0.00  0.00    +0.000 A 
ATOM      7  C   UNL     1       7.216   4.173  11.778  0.00  0.00    +0.000 A 
ATOM      8  C   UNL     1       7.913   5.162  12.458  0.00  0.00    +0.000 A 
ATOM      9  C   UNL     1       7.577   5.481  13.775  0.00  0.00    +0.000 A 
ATOM     10  C   UNL     1       6.541   4.817  14.438  0.00  0.00    +0.000 A 
ATOM     11  C   UNL     1       5.840   3.819  13.743  0.00  0.00    +0.000 A 
ENDBRANCH   1  10
BRANCH   2  12
ATOM     12  C   UNL     1       6.113   6.203  17.962  0.00  0.00    +0.000 C 
BRANCH  12  13
ATOM     13  C   UNL     1       4.708   5.613  17.876  0.00  0.00    +0.000 C 
BRANCH  13  14
ATOM     14  S   UNL     1       4.652   3.904  18.323  0.00  0.00    +0.000 S 
ATOM     15  O   UNL     1       4.651   3.123  17.102  0.00  0.00    +0.000 OA
ATOM     16  O   UNL     1       5.642   3.667  19.355  0.00  0.00    +0.000 OA
BRANCH  14  17
ATOM     17  C   UNL     1       3.041   3.737  19.070  0.00  0.00    +0.000 A 
ATOM     18  C   UNL     1       2.164   2.750  18.611  0.00  0.00    +0.000 A 
ATOM     19  C   UNL     1       0.904   2.622  19.199  0.00  0.00    +0.000 A 
ATOM     20  C   UNL     1       0.529   3.472  20.239  0.00  0.00    +0.000 A 
ATOM     21  C   UNL     1       1.413   4.446  20.703  0.00  0.00    +0.000 A 
ATOM     22  C   UNL     1       2.676   4.580  20.122  0.00  0.00    +0.000 A 
ENDBRANCH  14  17
ENDBRANCH  13  14
ENDBRANCH  12  13
ENDBRANCH   2  12
TORSDOF 5
ENDMDL
