MODEL 1
REMARK VINA RESULT:      -6.8      0.000      0.000
REMARK  Name = 
REMARK  7 active torsions:
REMARK  status: ('A' for Active; 'I' for Inactive)
REMARK    1  A    between atoms: C_1  and  C_2
REMARK    2  A    between atoms: C_8  and  N_9
REMARK    3  A    between atoms: C_10  and  C_12
REMARK    4  A    between atoms: C_12  and  C_13
REMARK    5  A    between atoms: C_13  and  C_14
REMARK    6  A    between atoms: C_13  and  C_15
REMARK    7  A    between atoms: C_13  and  C_16
REMARK                            x       y       z     vdW  Elec       q    Type
REMARK                         _______ _______ _______ _____ _____    ______ ____
ROOT
ATOM      1  N   UNL     1       3.487   3.946  18.085  0.00  0.00    +0.000 N 
ATOM      2  C   UNL     1       4.067   3.421  19.238  0.00  0.00    +0.000 C 
ATOM      3  O   UNL     1       5.212   3.652  19.624  0.00  0.00    +0.000 OA
ATOM      4  H   UNL     1       2.479   3.952  18.033  0.00  0.00    +0.000 HD
ENDROOT
BRANCH   1  12
ATOM      5  C   UNL     1       3.574   6.946  18.071  0.00  0.00    +0.000 C 
ATOM      6  C   UNL     1       4.253   6.065  17.050  0.00  0.00    +0.000 A 
ATOM      7  C   UNL     1       4.996   6.714  16.040  0.00  0.00    +0.000 A 
ATOM      8  C   UNL     1       5.666   5.987  15.058  0.00  0.00    +0.000 A 
ATOM      9  C   UNL     1       5.582   4.605  15.063  0.00  0.00    +0.000 A 
ATOM     10 CL   UNL     1       6.375   3.692  13.839  0.00  0.00    +0.000 Cl
ATOM     11  C   UNL     1       4.849   3.947  16.048  0.00  0.00    +0.000 A 
ATOM     12  C   UNL     1       4.200   4.653  17.074  0.00  0.00    +0.000 A 
ENDBRANCH   1  12
BRANCH   2  13
ATOM     13  C   UNL     1       3.184   2.495  20.065  0.00  0.00    +0.000 C 
BRANCH  13  14
ATOM     14  C   UNL     1       1.933   3.166  20.690  0.00  0.00    +0.000 C 
ATOM     15  C   UNL     1       2.159   4.663  20.978  0.00  0.00    +0.000 C 
ATOM     16  C   UNL     1       0.761   3.058  19.689  0.00  0.00    +0.000 C 
ATOM     17  C   UNL     1       1.530   2.454  21.989  0.00  0.00    +0.000 C 
ENDBRANCH  13  14
ENDBRANCH   2  13
TORSDOF 3
ENDMDL
MODEL 2
REMARK VINA RESULT:      -6.8      0.048      1.078
REMARK  Name = 
REMARK  7 active torsions:
REMARK  status: ('A' for Active; 'I' for Inactive)
REMARK    1  A    between atoms: C_1  and  C_2
REMARK    2  A    between atoms: C_8  and  N_9
REMARK    3  A    between atoms: C_10  and  C_12
REMARK    4  A    between atoms: C_12  and  C_13
REMARK    5  A    between atoms: C_13  and  C_14
REMARK    6  A    between atoms: C_13  and  C_15
REMARK    7  A    between atoms: C_13  and  C_16
REMARK                            x       y       z     vdW  Elec       q    Type
REMARK                         _______ _______ _______ _____ _____    ______ ____
ROOT
ATOM      1  N   UNL     1       3.513   3.974  18.148  0.00  0.00    +0.000 N 
ATOM      2  C   UNL     1       4.117   3.423  19.276  0.00  0.00    +0.000 C 
ATOM      3  O   UNL     1       5.281   3.618  19.624  0.00  0.00    +0.000 OA
ATOM      4  H   UNL     1       2.504   4.008  18.130  0.00  0.00    +0.000 HD
ENDROOT
BRANCH   1  12
ATOM      5  C   UNL     1       3.588   6.974  18.096  0.00  0.00    +0.000 C 
ATOM      6  C   UNL     1       4.258   6.083  17.077  0.00  0.00    +0.000 A 
ATOM      7  C   UNL     1       4.986   6.722  16.050  0.00  0.00    +0.000 A 
ATOM      8  C   UNL     1       5.645   5.986  15.068  0.00  0.00    +0.000 A 
ATOM      9  C   UNL     1       5.567   4.603  15.091  0.00  0.00    +0.000 A 
ATOM     10 CL   UNL     1       6.347   3.678  13.868  0.00  0.00    +0.000 Cl
ATOM     11  C   UNL     1       4.849   3.955  16.094  0.00  0.00    +0.000 A 
ATOM     12  C   UNL     1       4.210   4.671  17.119  0.00  0.00    +0.000 A 
ENDBRANCH   1  12
BRANCH   2  13
ATOM     13  C   UNL     1       3.238   2.513  20.125  0.00  0.00    +0.000 C 
BRANCH  13  14
ATOM     14  C   UNL     1       1.943   3.172  20.668  0.00  0.00    +0.000 C 
ATOM     15  C   UNL     1       0.772   3.059  19.672  0.00  0.00    +0.000 C 
ATOM     16  C   UNL     1       1.522   2.444  21.963  0.00  0.00    +0.000 C 
ATOM     17  C   UNL     1       2.188   4.651  20.998  0.00  0.00    +0.000 C 
ENDBRANCH  13  14
ENDBRANCH   2  13
TORSDOF 3
ENDMDL
MODEL 3
REMARK VINA RESULT:      -6.7      0.087      1.092
REMARK  Name = 
REMARK  7 active torsions:
REMARK  status: ('A' for Active; 'I' for Inactive)
REMARK    1  A    between atoms: C_1  and  C_2
REMARK    2  A    between atoms: C_8  and  N_9
REMARK    3  A    between atoms: C_10  and  C_12
REMARK    4  A    between atoms: C_12  and  C_13
REMARK    5  A    between atoms: C_13  and  C_14
REMARK    6  A    between atoms: C_13  and  C_15
REMARK    7  A    between atoms: C_13  and  C_16
REMARK                            x       y       z     vdW  Elec       q    Type
REMARK                         _______ _______ _______ _____ _____    ______ ____
ROOT
ATOM      1  N   UNL     1       3.466   3.971  18.140  0.00  0.00    +0.000 N 
ATOM      2  C   UNL     1       4.060   3.360  19.242  0.00  0.00    +0.000 C 
ATOM      3  O   UNL     1       5.230   3.511  19.591  0.00  0.00    +0.000 OA
ATOM      4  H   UNL     1       2.458   4.032  18.129  0.00  0.00    +0.000 HD
ENDROOT
BRANCH   1  12
ATOM      5  C   UNL     1       3.510   6.972  18.131  0.00  0.00    +0.000 C 
ATOM      6  C   UNL     1       4.210   6.103  17.114  0.00  0.00    +0.000 A 
ATOM      7  C   UNL     1       4.952   6.765  16.112  0.00  0.00    +0.000 A 
ATOM      8  C   UNL     1       5.639   6.050  15.134  0.00  0.00    +0.000 A 
ATOM      9  C   UNL     1       5.575   4.666  15.136  0.00  0.00    +0.000 A 
ATOM     10 CL   UNL     1       6.391   3.766  13.917  0.00  0.00    +0.000 Cl
ATOM     11  C   UNL     1       4.844   3.996  16.114  0.00  0.00    +0.000 A 
ATOM     12  C   UNL     1       4.177   4.690  17.136  0.00  0.00    +0.000 A 
ENDBRANCH   1  12
BRANCH   2  13
ATOM     13  C   UNL     1       3.161   2.440  20.059  0.00  0.00    +0.000 C 
BRANCH  13  14
ATOM     14  C   UNL     1       1.912   3.122  20.674  0.00  0.00    +0.000 C 
ATOM     15  C   UNL     1       1.480   2.460  21.997  0.00  0.00    +0.000 C 
ATOM     16  C   UNL     1       2.253   4.596  20.984  0.00  0.00    +0.000 C 
ATOM     17  C   UNL     1       0.738   3.093  19.685  0.00  0.00    +0.000 C 
ENDBRANCH  13  14
ENDBRANCH   2  13
TORSDOF 3
ENDMDL
MODEL 4
REMARK VINA RESULT:      -6.6      1.751      1.751
REMARK  Name = 
REMARK  7 active torsions:
REMARK  status: ('A' for Active; 'I' for Inactive)
REMARK    1  A    between atoms: C_1  and  C_2
REMARK    2  A    between atoms: C_8  and  N_9
REMARK    3  A    between atoms: C_10  and  C_12
REMARK    4  A    between atoms: C_12  and  C_13
REMARK    5  A    between atoms: C_13  and  C_14
REMARK    6  A    between atoms: C_13  and  C_15
REMARK    7  A    between atoms: C_13  and  C_16
REMARK                            x       y       z     vdW  Elec       q    Type
REMARK                         _______ _______ _______ _____ _____    ______ ____
ROOT
ATOM      1  N   UNL     1       4.621   3.051  17.867  0.00  0.00    +0.000 N 
ATOM      2  C   UNL     1       3.229   3.055  17.917  0.00  0.00    +0.000 C 
ATOM      3  O   UNL     1       2.490   3.547  17.065  0.00  0.00    +0.000 OA
ATOM      4  H   UNL     1       5.105   2.367  18.429  0.00  0.00    +0.000 HD
ENDROOT
BRANCH   1  12
ATOM      5  C   UNL     1       6.198   5.449  18.745  0.00  0.00    +0.000 C 
ATOM      6  C   UNL     1       6.146   4.932  17.327  0.00  0.00    +0.000 A 
ATOM      7  C   UNL     1       6.918   5.621  16.367  0.00  0.00    +0.000 A 
ATOM      8  C   UNL     1       6.942   5.214  15.035  0.00  0.00    +0.000 A 
ATOM      9  C   UNL     1       6.178   4.126  14.645  0.00  0.00    +0.000 A 
ATOM     10 CL   UNL     1       6.168   3.629  12.998  0.00  0.00    +0.000 Cl
ATOM     11  C   UNL     1       5.405   3.437  15.577  0.00  0.00    +0.000 A 
ATOM     12  C   UNL     1       5.396   3.799  16.934  0.00  0.00    +0.000 A 
ENDBRANCH   1  12
BRANCH   2  13
ATOM     13  C   UNL     1       2.605   2.386  19.135  0.00  0.00    +0.000 C 
BRANCH  13  14
ATOM     14  C   UNL     1       2.163   3.357  20.262  0.00  0.00    +0.000 C 
ATOM     15  C   UNL     1       2.910   4.704  20.194  0.00  0.00    +0.000 C 
ATOM     16  C   UNL     1       0.656   3.654  20.098  0.00  0.00    +0.000 C 
ATOM     17  C   UNL     1       2.387   2.721  21.641  0.00  0.00    +0.000 C 
ENDBRANCH  13  14
ENDBRANCH   2  13
TORSDOF 3
ENDMDL
MODEL 5
REMARK VINA RESULT:      -6.6      1.747      2.005
REMARK  Name = 
REMARK  7 active torsions:
REMARK  status: ('A' for Active; 'I' for Inactive)
REMARK    1  A    between atoms: C_1  and  C_2
REMARK    2  A    between atoms: C_8  and  N_9
REMARK    3  A    between atoms: C_10  and  C_12
REMARK    4  A    between atoms: C_12  and  C_13
REMARK    5  A    between atoms: C_13  and  C_14
REMARK    6  A    between atoms: C_13  and  C_15
REMARK    7  A    between atoms: C_13  and  C_16
REMARK                            x       y       z     vdW  Elec       q    Type
REMARK                         _______ _______ _______ _____ _____    ______ ____
ROOT
ATOM      1  N   UNL     1       4.651   3.045  17.788  0.00  0.00    +0.000 N 
ATOM      2  C   UNL     1       3.277   3.203  17.955  0.00  0.00    +0.000 C 
ATOM      3  O   UNL     1       2.547   3.877  17.229  0.00  0.00    +0.000 OA
ATOM      4  H   UNL     1       5.084   2.246  18.227  0.00  0.00    +0.000 HD
ENDROOT
BRANCH   1  12
ATOM      5  C   UNL     1       6.215   5.424  18.740  0.00  0.00    +0.000 C 
ATOM      6  C   UNL     1       6.191   4.931  17.313  0.00  0.00    +0.000 A 
ATOM      7  C   UNL     1       6.983   5.634  16.380  0.00  0.00    +0.000 A 
ATOM      8  C   UNL     1       7.033   5.251  15.042  0.00  0.00    +0.000 A 
ATOM      9  C   UNL     1       6.274   4.172  14.618  0.00  0.00    +0.000 A 
ATOM     10 CL   UNL     1       6.297   3.704  12.962  0.00  0.00    +0.000 Cl
ATOM     11  C   UNL     1       5.482   3.469  15.523  0.00  0.00    +0.000 A 
ATOM     12  C   UNL     1       5.446   3.808  16.885  0.00  0.00    +0.000 A 
ENDBRANCH   1  12
BRANCH   2  13
ATOM     13  C   UNL     1       2.660   2.467  19.138  0.00  0.00    +0.000 C 
BRANCH  13  14
ATOM     14  C   UNL     1       2.165   3.379  20.291  0.00  0.00    +0.000 C 
ATOM     15  C   UNL     1       2.357   2.724  21.673  0.00  0.00    +0.000 C 
ATOM     16  C   UNL     1       2.987   4.686  20.278  0.00  0.00    +0.000 C 
ATOM     17  C   UNL     1       0.683   3.734  20.100  0.00  0.00    +0.000 C 
ENDBRANCH  13  14
ENDBRANCH   2  13
TORSDOF 3
ENDMDL
MODEL 6
REMARK VINA RESULT:      -6.5      1.729      2.027
REMARK  Name = 
REMARK  7 active torsions:
REMARK  status: ('A' for Active; 'I' for Inactive)
REMARK    1  A    between atoms: C_1  and  C_2
REMARK    2  A    between atoms: C_8  and  N_9
REMARK    3  A    between atoms: C_10  and  C_12
REMARK    4  A    between atoms: C_12  and  C_13
REMARK    5  A    between atoms: C_13  and  C_14
REMARK    6  A    between atoms: C_13  and  C_15
REMARK    7  A    between atoms: C_13  and  C_16
REMARK                            x       y       z     vdW  Elec       q    Type
REMARK                         _______ _______ _______ _____ _____    ______ ____
ROOT
ATOM      1  N   UNL     1       4.799   3.072  18.068  0.00  0.00    +0.000 N 
ATOM      2  C   UNL     1       3.415   2.913  18.067  0.00  0.00    +0.000 C 
ATOM      3  O   UNL     1       2.663   3.243  17.151  0.00  0.00    +0.000 OA
ATOM      4  H   UNL     1       5.333   2.497  18.703  0.00  0.00    +0.000 HD
ENDROOT
BRANCH   1  12
ATOM      5  C   UNL     1       6.398   5.477  18.884  0.00  0.00    +0.000 C 
ATOM      6  C   UNL     1       6.283   4.966  17.468  0.00  0.00    +0.000 A 
ATOM      7  C   UNL     1       7.003   5.666  16.475  0.00  0.00    +0.000 A 
ATOM      8  C   UNL     1       6.967   5.267  15.141  0.00  0.00    +0.000 A 
ATOM      9  C   UNL     1       6.193   4.175  14.782  0.00  0.00    +0.000 A 
ATOM     10 CL   UNL     1       6.109   3.687  13.134  0.00  0.00    +0.000 Cl
ATOM     11  C   UNL     1       5.471   3.476  15.746  0.00  0.00    +0.000 A 
ATOM     12  C   UNL     1       5.523   3.831  17.104  0.00  0.00    +0.000 A 
ENDBRANCH   1  12
BRANCH   2  13
ATOM     13  C   UNL     1       2.818   2.273  19.315  0.00  0.00    +0.000 C 
BRANCH  13  14
ATOM     14  C   UNL     1       2.067   3.251  20.257  0.00  0.00    +0.000 C 
ATOM     15  C   UNL     1       0.634   3.541  19.771  0.00  0.00    +0.000 C 
ATOM     16  C   UNL     1       1.961   2.606  21.657  0.00  0.00    +0.000 C 
ATOM     17  C   UNL     1       2.837   4.573  20.388  0.00  0.00    +0.000 C 
ENDBRANCH  13  14
ENDBRANCH   2  13
TORSDOF 3
ENDMDL
MODEL 7
REMARK VINA RESULT:      -6.4      1.723      2.255
REMARK  Name = 
REMARK  7 active torsions:
REMARK  status: ('A' for Active; 'I' for Inactive)
REMARK    1  A    between atoms: C_1  and  C_2
REMARK    2  A    between atoms: C_8  and  N_9
REMARK    3  A    between atoms: C_10  and  C_12
REMARK    4  A    between atoms: C_12  and  C_13
REMARK    5  A    between atoms: C_13  and  C_14
REMARK    6  A    between atoms: C_13  and  C_15
REMARK    7  A    between atoms: C_13  and  C_16
REMARK                            x       y       z     vdW  Elec       q    Type
REMARK                         _______ _______ _______ _____ _____    ______ ____
ROOT
ATOM      1  N   UNL     1       4.824   3.612  17.805  0.00  0.00    +0.000 N 
ATOM      2  C   UNL     1       3.989   4.452  18.538  0.00  0.00    +0.000 C 
ATOM      3  O   UNL     1       3.639   5.580  18.195  0.00  0.00    +0.000 OA
ATOM      4  H   UNL     1       4.790   2.625  18.013  0.00  0.00    +0.000 HD
ENDROOT
BRANCH   1  12
ATOM      5  C   UNL     1       7.449   5.041  18.080  0.00  0.00    +0.000 C 
ATOM      6  C   UNL     1       6.801   4.687  16.763  0.00  0.00    +0.000 A 
ATOM      7  C   UNL     1       7.505   5.039  15.591  0.00  0.00    +0.000 A 
ATOM      8  C   UNL     1       6.993   4.748  14.328  0.00  0.00    +0.000 A 
ATOM      9  C   UNL     1       5.762   4.121  14.224  0.00  0.00    +0.000 A 
ATOM     10 CL   UNL     1       5.099   3.782  12.673  0.00  0.00    +0.000 Cl
ATOM     11  C   UNL     1       5.051   3.771  15.370  0.00  0.00    +0.000 A 
ATOM     12  C   UNL     1       5.563   4.014  16.655  0.00  0.00    +0.000 A 
ENDBRANCH   1  12
BRANCH   2  13
ATOM     13  C   UNL     1       3.487   3.899  19.866  0.00  0.00    +0.000 C 
BRANCH  13  14
ATOM     14  C   UNL     1       1.949   3.722  19.962  0.00  0.00    +0.000 C 
ATOM     15  C   UNL     1       1.321   3.346  18.606  0.00  0.00    +0.000 C 
ATOM     16  C   UNL     1       1.643   2.574  20.949  0.00  0.00    +0.000 C 
ATOM     17  C   UNL     1       1.290   5.005  20.489  0.00  0.00    +0.000 C 
ENDBRANCH  13  14
ENDBRANCH   2  13
TORSDOF 3
ENDMDL
MODEL 8
REMARK VINA RESULT:      -6.4      1.271      1.526
REMARK  Name = 
REMARK  7 active torsions:
REMARK  status: ('A' for Active; 'I' for Inactive)
REMARK    1  A    between atoms: C_1  and  C_2
REMARK    2  A    between atoms: C_8  and  N_9
REMARK    3  A    between atoms: C_10  and  C_12
REMARK    4  A    between atoms: C_12  and  C_13
REMARK    5  A    between atoms: C_13  and  C_14
REMARK    6  A    between atoms: C_13  and  C_15
REMARK    7  A    between atoms: C_13  and  C_16
REMARK                            x       y       z     vdW  Elec       q    Type
REMARK                         _______ _______ _______ _____ _____    ______ ____
ROOT
ATOM      1  N   UNL     1       3.973   3.490  18.125  0.00  0.00    +0.000 N 
ATOM      2  C   UNL     1       2.668   3.006  18.165  0.00  0.00    +0.000 C 
ATOM      3  O   UNL     1       1.850   3.093  17.250  0.00  0.00    +0.000 OA
ATOM      4  H   UNL     1       4.636   3.097  18.778  0.00  0.00    +0.000 HD
ENDROOT
BRANCH   1  12
ATOM      5  C   UNL     1       3.679   6.471  18.311  0.00  0.00    +0.000 C 
ATOM      6  C   UNL     1       4.358   5.747  17.173  0.00  0.00    +0.000 A 
ATOM      7  C   UNL     1       4.909   6.546  16.147  0.00  0.00    +0.000 A 
ATOM      8  C   UNL     1       5.562   5.971  15.059  0.00  0.00    +0.000 A 
ATOM      9  C   UNL     1       5.655   4.592  14.976  0.00  0.00    +0.000 A 
ATOM     10 CL   UNL     1       6.430   3.863  13.623  0.00  0.00    +0.000 Cl
ATOM     11  C   UNL     1       5.113   3.787  15.976  0.00  0.00    +0.000 A 
ATOM     12  C   UNL     1       4.486   4.341  17.104  0.00  0.00    +0.000 A 
ENDBRANCH   1  12
BRANCH   2  13
ATOM     13  C   UNL     1       2.253   2.317  19.460  0.00  0.00    +0.000 C 
BRANCH  13  14
ATOM     14  C   UNL     1       1.843   3.274  20.610  0.00  0.00    +0.000 C 
ATOM     15  C   UNL     1       0.685   4.207  20.204  0.00  0.00    +0.000 C 
ATOM     16  C   UNL     1       1.361   2.430  21.809  0.00  0.00    +0.000 C 
ATOM     17  C   UNL     1       3.042   4.120  21.061  0.00  0.00    +0.000 C 
ENDBRANCH  13  14
ENDBRANCH   2  13
TORSDOF 3
ENDMDL
MODEL 9
REMARK VINA RESULT:      -6.4      1.591      2.192
REMARK  Name = 
REMARK  7 active torsions:
REMARK  status: ('A' for Active; 'I' for Inactive)
REMARK    1  A    between atoms: C_1  and  C_2
REMARK    2  A    between atoms: C_8  and  N_9
REMARK    3  A    between atoms: C_10  and  C_12
REMARK    4  A    between atoms: C_12  and  C_13
REMARK    5  A    between atoms: C_13  and  C_14
REMARK    6  A    between atoms: C_13  and  C_15
REMARK    7  A    between atoms: C_13  and  C_16
REMARK                            x       y       z     vdW  Elec       q    Type
REMARK                         _______ _______ _______ _____ _____    ______ ____
ROOT
ATOM      1  N   UNL     1       4.465   5.126  17.779  0.00  0.00    +0.000 N 
ATOM      2  C   UNL     1       4.435   4.256  18.866  0.00  0.00    +0.000 C 
ATOM      3  O   UNL     1       5.295   3.415  19.125  0.00  0.00    +0.000 OA
ATOM      4  H   UNL     1       3.899   5.960  17.835  0.00  0.00    +0.000 HD
ENDROOT
BRANCH   1  12
ATOM      5  C   UNL     1       7.239   6.252  17.999  0.00  0.00    +0.000 C 
ATOM      6  C   UNL     1       6.694   5.552  16.777  0.00  0.00    +0.000 A 
ATOM      7  C   UNL     1       7.571   5.405  15.680  0.00  0.00    +0.000 A 
ATOM      8  C   UNL     1       7.163   4.766  14.511  0.00  0.00    +0.000 A 
ATOM      9  C   UNL     1       5.867   4.287  14.419  0.00  0.00    +0.000 A 
ATOM     10 CL   UNL     1       5.335   3.524  12.971  0.00  0.00    +0.000 Cl
ATOM     11  C   UNL     1       4.985   4.428  15.488  0.00  0.00    +0.000 A 
ATOM     12  C   UNL     1       5.383   5.029  16.693  0.00  0.00    +0.000 A 
ENDBRANCH   1  12
BRANCH   2  13
ATOM     13  C   UNL     1       3.229   4.383  19.788  0.00  0.00    +0.000 C 
BRANCH  13  14
ATOM     14  C   UNL     1       1.958   3.633  19.312  0.00  0.00    +0.000 C 
ATOM     15  C   UNL     1       2.186   2.113  19.204  0.00  0.00    +0.000 C 
ATOM     16  C   UNL     1       0.832   3.862  20.344  0.00  0.00    +0.000 C 
ATOM     17  C   UNL     1       1.489   4.174  17.953  0.00  0.00    +0.000 C 
ENDBRANCH  13  14
ENDBRANCH   2  13
TORSDOF 3
ENDMDL
