MODEL 1
REMARK VINA RESULT:      -8.0      0.000      0.000
REMARK  Name = 
REMARK  2 active torsions:
REMARK  status: ('A' for Active; 'I' for Inactive)
REMARK    1  A    between atoms: C_1  and  C_2
REMARK    2  A    between atoms: C_7  and  C_8
REMARK                            x       y       z     vdW  Elec       q    Type
REMARK                         _______ _______ _______ _____ _____    ______ ____
ROOT
ATOM      1  C   UNL     1       0.709   4.415  20.671  0.00  0.00    +0.000 C 
ATOM      2  C   UNL     1       2.042   3.685  20.691  0.00  0.00    +0.000 C 
ATOM      3  O   UNL     1       2.099   2.635  21.338  0.00  0.00    +0.000 OA
ATOM      4  N   UNL     1       3.112   4.186  19.941  0.00  0.00    +0.000 N 
ATOM      5  C   UNL     1       3.082   5.512  19.551  0.00  0.00    +0.000 A 
ATOM      6  N   UNL     1       2.201   6.425  19.839  0.00  0.00    +0.000 NA
ATOM      7  C   UNL     1       2.576   7.514  19.105  0.00  0.00    +0.000 A 
ATOM      8  N   UNL     1       3.756   7.372  18.483  0.00  0.00    +0.000 NA
ATOM      9  N   UNL     1       4.036   6.061  18.719  0.00  0.00    +0.000 N 
ATOM     10  C   UNL     1       4.962   5.281  17.855  0.00  0.00    +0.000 C 
ATOM     11  C   UNL     1       4.586   5.664  16.393  0.00  0.00    +0.000 C 
ATOM     12  C   UNL     1       5.535   5.271  15.272  0.00  0.00    +0.000 C 
ATOM     13  C   UNL     1       7.019   5.365  15.591  0.00  0.00    +0.000 C 
ATOM     14  C   UNL     1       7.408   5.122  17.044  0.00  0.00    +0.000 C 
ATOM     15  C   UNL     1       6.438   5.720  18.079  0.00  0.00    +0.000 C 
ATOM     16  C   UNL     1       4.843   3.726  18.219  0.00  0.00    +0.000 C 
ATOM     17  C   UNL     1       3.948   2.899  17.275  0.00  0.00    +0.000 C 
ATOM     18  C   UNL     1       3.987   1.408  17.610  0.00  0.00    +0.000 C 
ATOM     19  C   UNL     1       3.599   1.134  19.054  0.00  0.00    +0.000 C 
ATOM     20  C   UNL     1       4.437   1.967  20.016  0.00  0.00    +0.000 C 
ATOM     21  C   UNL     1       4.392   3.474  19.705  0.00  0.00    +0.000 C 
ENDROOT
BRANCH   7  22
ATOM     22  C   UNL     1       1.616   8.643  18.950  0.00  0.00    +0.000 A 
ATOM     23  C   UNL     1       1.214   9.266  17.787  0.00  0.00    +0.000 A 
ATOM     24  C   UNL     1       0.217  10.214  18.152  0.00  0.00    +0.000 A 
ATOM     25  C   UNL     1       0.075  10.120  19.510  0.00  0.00    +0.000 A 
ATOM     26  O   UNL     1       0.918   9.177  20.007  0.00  0.00    +0.000 OA
ENDBRANCH   7  22
TORSDOF 1
ENDMDL
MODEL 2
REMARK VINA RESULT:      -6.8      9.104     11.333
REMARK  Name = 
REMARK  2 active torsions:
REMARK  status: ('A' for Active; 'I' for Inactive)
REMARK    1  A    between atoms: C_1  and  C_2
REMARK    2  A    between atoms: C_7  and  C_8
REMARK                            x       y       z     vdW  Elec       q    Type
REMARK                         _______ _______ _______ _____ _____    ______ ____
ROOT
ATOM      1  C   UNL     1       6.799  16.511  22.236  0.00  0.00    +0.000 C 
ATOM      2  C   UNL     1       7.093  16.371  20.751  0.00  0.00    +0.000 C 
ATOM      3  O   UNL     1       6.759  17.308  20.021  0.00  0.00    +0.000 OA
ATOM      4  N   UNL     1       7.774  15.239  20.288  0.00  0.00    +0.000 N 
ATOM      5  C   UNL     1       7.790  14.107  21.083  0.00  0.00    +0.000 A 
ATOM      6  N   UNL     1       7.191  13.902  22.220  0.00  0.00    +0.000 NA
ATOM      7  C   UNL     1       7.636  12.678  22.631  0.00  0.00    +0.000 A 
ATOM      8  N   UNL     1       8.376  12.031  21.718  0.00  0.00    +0.000 NA
ATOM      9  N   UNL     1       8.526  12.985  20.758  0.00  0.00    +0.000 N 
ATOM     10  C   UNL     1       9.645  12.956  19.780  0.00  0.00    +0.000 C 
ATOM     11  C   UNL     1      10.911  12.595  20.611  0.00  0.00    +0.000 C 
ATOM     12  C   UNL     1      12.176  12.191  19.868  0.00  0.00    +0.000 C 
ATOM     13  C   UNL     1      11.976  11.350  18.618  0.00  0.00    +0.000 C 
ATOM     14  C   UNL     1      10.682  11.589  17.850  0.00  0.00    +0.000 C 
ATOM     15  C   UNL     1       9.443  11.821  18.734  0.00  0.00    +0.000 C 
ATOM     16  C   UNL     1       9.702  14.351  18.997  0.00  0.00    +0.000 C 
ATOM     17  C   UNL     1      10.750  15.353  19.520  0.00  0.00    +0.000 C 
ATOM     18  C   UNL     1      10.831  16.605  18.645  0.00  0.00    +0.000 C 
ATOM     19  C   UNL     1       9.485  17.298  18.508  0.00  0.00    +0.000 C 
ATOM     20  C   UNL     1       8.413  16.325  18.031  0.00  0.00    +0.000 C 
ATOM     21  C   UNL     1       8.303  15.068  18.913  0.00  0.00    +0.000 C 
ENDROOT
BRANCH   7  22
ATOM     22  C   UNL     1       7.398  12.264  24.042  0.00  0.00    +0.000 A 
ATOM     23  C   UNL     1       8.054  12.691  25.179  0.00  0.00    +0.000 A 
ATOM     24  C   UNL     1       7.398  12.080  26.285  0.00  0.00    +0.000 A 
ATOM     25  C   UNL     1       6.392  11.314  25.762  0.00  0.00    +0.000 A 
ATOM     26  O   UNL     1       6.382  11.411  24.406  0.00  0.00    +0.000 OA
ENDBRANCH   7  22
TORSDOF 1
ENDMDL
MODEL 3
REMARK VINA RESULT:      -6.7      8.742     11.577
REMARK  Name = 
REMARK  2 active torsions:
REMARK  status: ('A' for Active; 'I' for Inactive)
REMARK    1  A    between atoms: C_1  and  C_2
REMARK    2  A    between atoms: C_7  and  C_8
REMARK                            x       y       z     vdW  Elec       q    Type
REMARK                         _______ _______ _______ _____ _____    ______ ____
ROOT
ATOM      1  C   UNL     1      -7.006  10.672  20.045  0.00  0.00    +0.000 C 
ATOM      2  C   UNL     1      -6.920  11.873  20.974  0.00  0.00    +0.000 C 
ATOM      3  O   UNL     1      -7.916  12.129  21.655  0.00  0.00    +0.000 OA
ATOM      4  N   UNL     1      -5.719  12.587  21.066  0.00  0.00    +0.000 N 
ATOM      5  C   UNL     1      -4.800  12.467  20.039  0.00  0.00    +0.000 A 
ATOM      6  N   UNL     1      -4.909  11.811  18.921  0.00  0.00    +0.000 NA
ATOM      7  C   UNL     1      -3.681  11.920  18.334  0.00  0.00    +0.000 A 
ATOM      8  N   UNL     1      -2.844  12.755  18.968  0.00  0.00    +0.000 NA
ATOM      9  N   UNL     1      -3.548  13.045  20.097  0.00  0.00    +0.000 N 
ATOM     10  C   UNL     1      -2.888  13.523  21.341  0.00  0.00    +0.000 C 
ATOM     11  C   UNL     1      -1.628  12.624  21.512  0.00  0.00    +0.000 C 
ATOM     12  C   UNL     1      -0.570  13.042  22.522  0.00  0.00    +0.000 C 
ATOM     13  C   UNL     1      -0.304  14.535  22.630  0.00  0.00    +0.000 C 
ATOM     14  C   UNL     1      -1.488  15.449  22.341  0.00  0.00    +0.000 C 
ATOM     15  C   UNL     1      -2.387  14.988  21.180  0.00  0.00    +0.000 C 
ATOM     16  C   UNL     1      -3.939  13.486  22.547  0.00  0.00    +0.000 C 
ATOM     17  C   UNL     1      -3.831  12.256  23.471  0.00  0.00    +0.000 C 
ATOM     18  C   UNL     1      -4.778  12.355  24.668  0.00  0.00    +0.000 C 
ATOM     19  C   UNL     1      -6.224  12.548  24.241  0.00  0.00    +0.000 C 
ATOM     20  C   UNL     1      -6.363  13.733  23.291  0.00  0.00    +0.000 C 
ATOM     21  C   UNL     1      -5.431  13.639  22.070  0.00  0.00    +0.000 C 
ENDROOT
BRANCH   7  22
ATOM     22  C   UNL     1      -3.351  11.028  17.187  0.00  0.00    +0.000 A 
ATOM     23  C   UNL     1      -2.654   9.837  17.206  0.00  0.00    +0.000 A 
ATOM     24  C   UNL     1      -2.689   9.320  15.880  0.00  0.00    +0.000 A 
ATOM     25  C   UNL     1      -3.392  10.224  15.132  0.00  0.00    +0.000 A 
ATOM     26  O   UNL     1      -3.795  11.265  15.907  0.00  0.00    +0.000 OA
ENDBRANCH   7  22
TORSDOF 1
ENDMDL
MODEL 4
REMARK VINA RESULT:      -6.6      4.878      9.954
REMARK  Name = 
REMARK  2 active torsions:
REMARK  status: ('A' for Active; 'I' for Inactive)
REMARK    1  A    between atoms: C_1  and  C_2
REMARK    2  A    between atoms: C_7  and  C_8
REMARK                            x       y       z     vdW  Elec       q    Type
REMARK                         _______ _______ _______ _____ _____    ______ ____
ROOT
ATOM      1  C   UNL     1      -1.012  10.376  23.043  0.00  0.00    +0.000 C 
ATOM      2  C   UNL     1      -1.683  11.728  22.854  0.00  0.00    +0.000 C 
ATOM      3  O   UNL     1      -2.540  12.051  23.681  0.00  0.00    +0.000 OA
ATOM      4  N   UNL     1      -1.267  12.562  21.810  0.00  0.00    +0.000 N 
ATOM      5  C   UNL     1      -0.585  11.999  20.746  0.00  0.00    +0.000 A 
ATOM      6  N   UNL     1      -0.310  10.747  20.527  0.00  0.00    +0.000 NA
ATOM      7  C   UNL     1       0.480  10.755  19.413  0.00  0.00    +0.000 A 
ATOM      8  N   UNL     1       0.587  11.957  18.828  0.00  0.00    +0.000 NA
ATOM      9  N   UNL     1      -0.043  12.759  19.730  0.00  0.00    +0.000 N 
ATOM     10  C   UNL     1       0.218  14.222  19.807  0.00  0.00    +0.000 C 
ATOM     11  C   UNL     1       1.764  14.373  19.694  0.00  0.00    +0.000 C 
ATOM     12  C   UNL     1       2.341  15.757  19.439  0.00  0.00    +0.000 C 
ATOM     13  C   UNL     1       1.546  16.648  18.498  0.00  0.00    +0.000 C 
ATOM     14  C   UNL     1       0.037  16.435  18.490  0.00  0.00    +0.000 C 
ATOM     15  C   UNL     1      -0.406  14.964  18.589  0.00  0.00    +0.000 C 
ATOM     16  C   UNL     1      -0.443  14.809  21.141  0.00  0.00    +0.000 C 
ATOM     17  C   UNL     1       0.530  15.006  22.321  0.00  0.00    +0.000 C 
ATOM     18  C   UNL     1      -0.147  15.686  23.512  0.00  0.00    +0.000 C 
ATOM     19  C   UNL     1      -1.377  14.928  23.984  0.00  0.00    +0.000 C 
ATOM     20  C   UNL     1      -2.343  14.678  22.832  0.00  0.00    +0.000 C 
ATOM     21  C   UNL     1      -1.684  13.975  21.633  0.00  0.00    +0.000 C 
ENDROOT
BRANCH   7  22
ATOM     22  C   UNL     1       1.235   9.520  19.059  0.00  0.00    +0.000 A 
ATOM     23  C   UNL     1       1.867   9.219  17.869  0.00  0.00    +0.000 A 
ATOM     24  C   UNL     1       2.526   7.972  18.058  0.00  0.00    +0.000 A 
ATOM     25  C   UNL     1       2.254   7.583  19.342  0.00  0.00    +0.000 A 
ATOM     26  O   UNL     1       1.471   8.507  19.958  0.00  0.00    +0.000 OA
ENDBRANCH   7  22
TORSDOF 1
ENDMDL
MODEL 5
REMARK VINA RESULT:      -6.6      9.679     12.011
REMARK  Name = 
REMARK  2 active torsions:
REMARK  status: ('A' for Active; 'I' for Inactive)
REMARK    1  A    between atoms: C_1  and  C_2
REMARK    2  A    between atoms: C_7  and  C_8
REMARK                            x       y       z     vdW  Elec       q    Type
REMARK                         _______ _______ _______ _____ _____    ______ ____
ROOT
ATOM      1  C   UNL     1       7.790  17.918  20.726  0.00  0.00    +0.000 C 
ATOM      2  C   UNL     1       8.320  17.540  19.352  0.00  0.00    +0.000 C 
ATOM      3  O   UNL     1       8.372  18.434  18.504  0.00  0.00    +0.000 OA
ATOM      4  N   UNL     1       8.778  16.236  19.126  0.00  0.00    +0.000 N 
ATOM      5  C   UNL     1       8.364  15.233  19.983  0.00  0.00    +0.000 A 
ATOM      6  N   UNL     1       7.527  15.305  20.977  0.00  0.00    +0.000 NA
ATOM      7  C   UNL     1       7.571  14.070  21.559  0.00  0.00    +0.000 A 
ATOM      8  N   UNL     1       8.291  13.169  20.873  0.00  0.00    +0.000 NA
ATOM      9  N   UNL     1       8.851  13.944  19.903  0.00  0.00    +0.000 N 
ATOM     10  C   UNL     1      10.095  13.547  19.192  0.00  0.00    +0.000 C 
ATOM     11  C   UNL     1      11.051  13.011  20.299  0.00  0.00    +0.000 C 
ATOM     12  C   UNL     1      12.296  12.248  19.875  0.00  0.00    +0.000 C 
ATOM     13  C   UNL     1      12.140  11.331  18.674  0.00  0.00    +0.000 C 
ATOM     14  C   UNL     1      11.115  11.761  17.631  0.00  0.00    +0.000 C 
ATOM     15  C   UNL     1       9.826  12.370  18.210  0.00  0.00    +0.000 C 
ATOM     16  C   UNL     1      10.641  14.790  18.344  0.00  0.00    +0.000 C 
ATOM     17  C   UNL     1      11.782  15.585  19.008  0.00  0.00    +0.000 C 
ATOM     18  C   UNL     1      12.333  16.673  18.086  0.00  0.00    +0.000 C 
ATOM     19  C   UNL     1      11.250  17.630  17.615  0.00  0.00    +0.000 C 
ATOM     20  C   UNL     1      10.084  16.874  16.989  0.00  0.00    +0.000 C 
ATOM     21  C   UNL     1       9.503  15.788  17.913  0.00  0.00    +0.000 C 
ENDROOT
BRANCH   7  22
ATOM     22  C   UNL     1       6.972  13.891  22.911  0.00  0.00    +0.000 A 
ATOM     23  C   UNL     1       6.678  14.860  23.849  0.00  0.00    +0.000 A 
ATOM     24  C   UNL     1       6.032  14.200  24.932  0.00  0.00    +0.000 A 
ATOM     25  C   UNL     1       5.977  12.874  24.598  0.00  0.00    +0.000 A 
ATOM     26  O   UNL     1       6.546  12.671  23.381  0.00  0.00    +0.000 OA
ENDBRANCH   7  22
TORSDOF 1
ENDMDL
MODEL 6
REMARK VINA RESULT:      -6.5      6.015     11.502
REMARK  Name = 
REMARK  2 active torsions:
REMARK  status: ('A' for Active; 'I' for Inactive)
REMARK    1  A    between atoms: C_1  and  C_2
REMARK    2  A    between atoms: C_7  and  C_8
REMARK                            x       y       z     vdW  Elec       q    Type
REMARK                         _______ _______ _______ _____ _____    ______ ____
ROOT
ATOM      1  C   UNL     1      -4.110  10.388  17.384  0.00  0.00    +0.000 C 
ATOM      2  C   UNL     1      -4.834  11.660  17.797  0.00  0.00    +0.000 C 
ATOM      3  O   UNL     1      -5.810  11.995  17.121  0.00  0.00    +0.000 OA
ATOM      4  N   UNL     1      -4.413  12.351  18.939  0.00  0.00    +0.000 N 
ATOM      5  C   UNL     1      -3.134  12.124  19.415  0.00  0.00    +0.000 A 
ATOM      6  N   UNL     1      -2.197  11.379  18.906  0.00  0.00    +0.000 NA
ATOM      7  C   UNL     1      -1.190  11.410  19.828  0.00  0.00    +0.000 A 
ATOM      8  N   UNL     1      -1.395  12.275  20.832  0.00  0.00    +0.000 NA
ATOM      9  N   UNL     1      -2.675  12.676  20.594  0.00  0.00    +0.000 N 
ATOM     10  C   UNL     1      -3.540  13.241  21.663  0.00  0.00    +0.000 C 
ATOM     11  C   UNL     1      -3.311  12.330  22.905  0.00  0.00    +0.000 C 
ATOM     12  C   UNL     1      -3.818  12.807  24.258  0.00  0.00    +0.000 C 
ATOM     13  C   UNL     1      -3.690  14.296  24.531  0.00  0.00    +0.000 C 
ATOM     14  C   UNL     1      -3.782  15.211  23.315  0.00  0.00    +0.000 C 
ATOM     15  C   UNL     1      -3.079  14.675  22.054  0.00  0.00    +0.000 C 
ATOM     16  C   UNL     1      -5.048  13.329  21.133  0.00  0.00    +0.000 C 
ATOM     17  C   UNL     1      -5.970  12.179  21.587  0.00  0.00    +0.000 C 
ATOM     18  C   UNL     1      -7.418  12.400  21.149  0.00  0.00    +0.000 C 
ATOM     19  C   UNL     1      -7.541  12.590  19.646  0.00  0.00    +0.000 C 
ATOM     20  C   UNL     1      -6.611  13.694  19.155  0.00  0.00    +0.000 C 
ATOM     21  C   UNL     1      -5.144  13.477  19.569  0.00  0.00    +0.000 C 
ENDROOT
BRANCH   7  22
ATOM     22  C   UNL     1      -0.084  10.418  19.718  0.00  0.00    +0.000 A 
ATOM     23  C   UNL     1       0.411   9.581  20.698  0.00  0.00    +0.000 A 
ATOM     24  C   UNL     1       1.393   8.758  20.077  0.00  0.00    +0.000 A 
ATOM     25  C   UNL     1       1.445   9.144  18.765  0.00  0.00    +0.000 A 
ATOM     26  O   UNL     1       0.561  10.149  18.534  0.00  0.00    +0.000 OA
ENDBRANCH   7  22
TORSDOF 1
ENDMDL
MODEL 7
REMARK VINA RESULT:      -6.5      7.647     13.326
REMARK  Name = 
REMARK  2 active torsions:
REMARK  status: ('A' for Active; 'I' for Inactive)
REMARK    1  A    between atoms: C_1  and  C_2
REMARK    2  A    between atoms: C_7  and  C_8
REMARK                            x       y       z     vdW  Elec       q    Type
REMARK                         _______ _______ _______ _____ _____    ______ ____
ROOT
ATOM      1  C   UNL     1      -0.384  15.685  23.273  0.00  0.00    +0.000 C 
ATOM      2  C   UNL     1      -1.669  16.127  23.956  0.00  0.00    +0.000 C 
ATOM      3  O   UNL     1      -1.684  17.260  24.446  0.00  0.00    +0.000 OA
ATOM      4  N   UNL     1      -2.780  15.276  23.948  0.00  0.00    +0.000 N 
ATOM      5  C   UNL     1      -2.579  13.929  23.708  0.00  0.00    +0.000 A 
ATOM      6  N   UNL     1      -1.458  13.290  23.543  0.00  0.00    +0.000 NA
ATOM      7  C   UNL     1      -1.828  12.017  23.218  0.00  0.00    +0.000 A 
ATOM      8  N   UNL     1      -3.146  11.787  23.326  0.00  0.00    +0.000 NA
ATOM      9  N   UNL     1      -3.624  13.038  23.573  0.00  0.00    +0.000 N 
ATOM     10  C   UNL     1      -5.034  13.417  23.291  0.00  0.00    +0.000 C 
ATOM     11  C   UNL     1      -5.355  12.808  21.895  0.00  0.00    +0.000 C 
ATOM     12  C   UNL     1      -6.806  12.756  21.441  0.00  0.00    +0.000 C 
ATOM     13  C   UNL     1      -7.831  12.444  22.519  0.00  0.00    +0.000 C 
ATOM     14  C   UNL     1      -7.486  12.915  23.927  0.00  0.00    +0.000 C 
ATOM     15  C   UNL     1      -6.005  12.756  24.313  0.00  0.00    +0.000 C 
ATOM     16  C   UNL     1      -5.191  15.005  23.410  0.00  0.00    +0.000 C 
ATOM     17  C   UNL     1      -5.167  15.767  22.070  0.00  0.00    +0.000 C 
ATOM     18  C   UNL     1      -5.449  17.259  22.255  0.00  0.00    +0.000 C 
ATOM     19  C   UNL     1      -4.481  17.909  23.231  0.00  0.00    +0.000 C 
ATOM     20  C   UNL     1      -4.448  17.156  24.556  0.00  0.00    +0.000 C 
ATOM     21  C   UNL     1      -4.144  15.656  24.389  0.00  0.00    +0.000 C 
ENDROOT
BRANCH   7  22
ATOM     22  C   UNL     1      -0.805  11.091  22.657  0.00  0.00    +0.000 A 
ATOM     23  C   UNL     1      -0.317  11.042  21.366  0.00  0.00    +0.000 A 
ATOM     24  C   UNL     1       0.710  10.056  21.354  0.00  0.00    +0.000 A 
ATOM     25  C   UNL     1       0.783   9.559  22.626  0.00  0.00    +0.000 A 
ATOM     26  O   UNL     1      -0.131  10.172  23.424  0.00  0.00    +0.000 OA
ENDBRANCH   7  22
TORSDOF 1
ENDMDL
MODEL 8
REMARK VINA RESULT:      -6.4      6.092     11.417
REMARK  Name = 
REMARK  2 active torsions:
REMARK  status: ('A' for Active; 'I' for Inactive)
REMARK    1  A    between atoms: C_1  and  C_2
REMARK    2  A    between atoms: C_7  and  C_8
REMARK                            x       y       z     vdW  Elec       q    Type
REMARK                         _______ _______ _______ _____ _____    ______ ____
ROOT
ATOM      1  C   UNL     1      -3.271   9.699  17.532  0.00  0.00    +0.000 C 
ATOM      2  C   UNL     1      -4.083  10.984  17.508  0.00  0.00    +0.000 C 
ATOM      3  O   UNL     1      -4.827  11.161  16.540  0.00  0.00    +0.000 OA
ATOM      4  N   UNL     1      -4.005  11.867  18.591  0.00  0.00    +0.000 N 
ATOM      5  C   UNL     1      -2.914  11.780  19.437  0.00  0.00    +0.000 A 
ATOM      6  N   UNL     1      -1.870  11.010  19.342  0.00  0.00    +0.000 NA
ATOM      7  C   UNL     1      -1.167  11.235  20.491  0.00  0.00    +0.000 A 
ATOM      8  N   UNL     1      -1.650  12.238  21.239  0.00  0.00    +0.000 NA
ATOM      9  N   UNL     1      -2.809  12.534  20.589  0.00  0.00    +0.000 N 
ATOM     10  C   UNL     1      -3.943  13.220  21.263  0.00  0.00    +0.000 C 
ATOM     11  C   UNL     1      -4.076  12.530  22.653  0.00  0.00    +0.000 C 
ATOM     12  C   UNL     1      -4.947  13.190  23.711  0.00  0.00    +0.000 C 
ATOM     13  C   UNL     1      -4.903  14.709  23.758  0.00  0.00    +0.000 C 
ATOM     14  C   UNL     1      -4.646  15.413  22.431  0.00  0.00    +0.000 C 
ATOM     15  C   UNL     1      -3.614  14.718  21.524  0.00  0.00    +0.000 C 
ATOM     16  C   UNL     1      -5.238  13.150  20.325  0.00  0.00    +0.000 C 
ATOM     17  C   UNL     1      -6.250  12.044  20.687  0.00  0.00    +0.000 C 
ATOM     18  C   UNL     1      -7.514  12.122  19.831  0.00  0.00    +0.000 C 
ATOM     19  C   UNL     1      -7.205  12.066  18.344  0.00  0.00    +0.000 C 
ATOM     20  C   UNL     1      -6.175  13.121  17.957  0.00  0.00    +0.000 C 
ATOM     21  C   UNL     1      -4.886  13.042  18.795  0.00  0.00    +0.000 C 
ENDROOT
BRANCH   7  22
ATOM     22  C   UNL     1      -0.074  10.293  20.862  0.00  0.00    +0.000 A 
ATOM     23  C   UNL     1       0.372   9.959  22.124  0.00  0.00    +0.000 A 
ATOM     24  C   UNL     1       1.361   8.949  21.956  0.00  0.00    +0.000 A 
ATOM     25  C   UNL     1       1.466   8.732  20.609  0.00  0.00    +0.000 A 
ATOM     26  O   UNL     1       0.608   9.541  19.934  0.00  0.00    +0.000 OA
ENDBRANCH   7  22
TORSDOF 1
ENDMDL
MODEL 9
REMARK VINA RESULT:      -6.4      6.942     12.681
REMARK  Name = 
REMARK  2 active torsions:
REMARK  status: ('A' for Active; 'I' for Inactive)
REMARK    1  A    between atoms: C_1  and  C_2
REMARK    2  A    between atoms: C_7  and  C_8
REMARK                            x       y       z     vdW  Elec       q    Type
REMARK                         _______ _______ _______ _____ _____    ______ ____
ROOT
ATOM      1  C   UNL     1       0.548  15.097  22.356  0.00  0.00    +0.000 C 
ATOM      2  C   UNL     1      -0.612  15.738  23.101  0.00  0.00    +0.000 C 
ATOM      3  O   UNL     1      -0.480  16.916  23.443  0.00  0.00    +0.000 OA
ATOM      4  N   UNL     1      -1.785  15.003  23.309  0.00  0.00    +0.000 N 
ATOM      5  C   UNL     1      -1.724  13.624  23.223  0.00  0.00    +0.000 A 
ATOM      6  N   UNL     1      -0.685  12.865  23.030  0.00  0.00    +0.000 NA
ATOM      7  C   UNL     1      -1.194  11.604  22.907  0.00  0.00    +0.000 A 
ATOM      8  N   UNL     1      -2.506  11.516  23.172  0.00  0.00    +0.000 NA
ATOM      9  N   UNL     1      -2.848  12.827  23.305  0.00  0.00    +0.000 N 
ATOM     10  C   UNL     1      -4.245  13.304  23.118  0.00  0.00    +0.000 C 
ATOM     11  C   UNL     1      -4.766  12.570  21.848  0.00  0.00    +0.000 C 
ATOM     12  C   UNL     1      -6.257  12.605  21.550  0.00  0.00    +0.000 C 
ATOM     13  C   UNL     1      -7.180  12.521  22.755  0.00  0.00    +0.000 C 
ATOM     14  C   UNL     1      -6.645  13.118  24.051  0.00  0.00    +0.000 C 
ATOM     15  C   UNL     1      -5.149  12.863  24.306  0.00  0.00    +0.000 C 
ATOM     16  C   UNL     1      -4.254  14.903  23.051  0.00  0.00    +0.000 C 
ATOM     17  C   UNL     1      -4.314  15.498  21.629  0.00  0.00    +0.000 C 
ATOM     18  C   UNL     1      -4.449  17.021  21.652  0.00  0.00    +0.000 C 
ATOM     19  C   UNL     1      -3.329  17.685  22.438  0.00  0.00    +0.000 C 
ATOM     20  C   UNL     1      -3.214  17.091  23.837  0.00  0.00    +0.000 C 
ATOM     21  C   UNL     1      -3.056  15.560  23.832  0.00  0.00    +0.000 C 
ENDROOT
BRANCH   7  22
ATOM     22  C   UNL     1      -0.319  10.525  22.368  0.00  0.00    +0.000 A 
ATOM     23  C   UNL     1      -0.242  10.058  21.071  0.00  0.00    +0.000 A 
ATOM     24  C   UNL     1       0.808   9.096  21.043  0.00  0.00    +0.000 A 
ATOM     25  C   UNL     1       1.302   9.028  22.317  0.00  0.00    +0.000 A 
ATOM     26  O   UNL     1       0.628   9.883  23.130  0.00  0.00    +0.000 OA
ENDBRANCH   7  22
TORSDOF 1
ENDMDL
