MODEL 1
REMARK VINA RESULT:      -8.1      0.000      0.000
REMARK  Name = 
REMARK  10 active torsions:
REMARK  status: ('A' for Active; 'I' for Inactive)
REMARK    1  A    between atoms: C_1  and  O_2
REMARK    2  A    between atoms: O_2  and  C_3
REMARK    3  A    between atoms: C_6  and  C_7
REMARK    4  A    between atoms: C_7  and  N_8
REMARK    5  A    between atoms: C_9  and  C_12
REMARK    6  A    between atoms: N_10  and  O_11
REMARK    7  A    between atoms: C_15  and  C_16
REMARK    8  A    between atoms: C_18  and  O_19
REMARK    9  A    between atoms: O_19  and  C_20
REMARK   10  A    between atoms: C_23  and  C_24
REMARK                            x       y       z     vdW  Elec       q    Type
REMARK                         _______ _______ _______ _____ _____    ______ ____
ROOT
ATOM      1  N   UNL     1       5.448   5.676  16.853  0.00  0.00    +0.000 N 
ATOM      2  C   UNL     1       5.346   4.766  17.887  0.00  0.00    +0.000 C 
ATOM      3  N   UNL     1       6.301   4.278  18.628  0.00  0.00    +0.000 NA
ATOM      4  H   UNL     1       4.828   6.477  16.910  0.00  0.00    +0.000 HD
ENDROOT
BRANCH   2   5
ATOM      5  C   UNL     1       3.983   4.209  18.208  0.00  0.00    +0.000 A 
ATOM      6  C   UNL     1       3.615   3.006  17.589  0.00  0.00    +0.000 A 
ATOM      7  C   UNL     1       2.410   2.384  17.908  0.00  0.00    +0.000 A 
ATOM      8  C   UNL     1       1.599   2.972  18.864  0.00  0.00    +0.000 A 
ATOM      9  C   UNL     1       0.331   2.319  19.318  0.00  0.00    +0.000 C 
ATOM     10  N   UNL     1       1.909   4.150  19.448  0.00  0.00    +0.000 NA
ATOM     11  C   UNL     1       3.067   4.773  19.092  0.00  0.00    +0.000 A 
BRANCH  11  12
ATOM     12  O   UNL     1       3.354   5.988  19.698  0.00  0.00    +0.000 OA
BRANCH  12  13
ATOM     13  C   UNL     1       2.581   7.086  19.365  0.00  0.00    +0.000 A 
ATOM     14  C   UNL     1       1.850   7.672  20.402  0.00  0.00    +0.000 A 
ATOM     15  C   UNL     1       1.103   8.833  20.173  0.00  0.00    +0.000 A 
ATOM     16  C   UNL     1       1.085   9.429  18.907  0.00  0.00    +0.000 A 
ATOM     17  C   UNL     1       0.341  10.710  18.659  0.00  0.00    +0.000 C 
ATOM     18  C   UNL     1       1.807   8.832  17.867  0.00  0.00    +0.000 A 
ATOM     19  C   UNL     1       2.564   7.679  18.100  0.00  0.00    +0.000 A 
ENDBRANCH  12  13
ENDBRANCH  11  12
ENDBRANCH   2   5
BRANCH   3  20
ATOM     20  O   UNL     1       7.553   4.848  18.398  0.00  0.00    +0.000 OA
ATOM     21  H   UNL     1       7.830   5.102  19.297  0.00  0.00    +0.000 HD
ENDBRANCH   3  20
BRANCH   1  22
ATOM     22  C   UNL     1       6.660   5.915  16.097  0.00  0.00    +0.000 C 
BRANCH  22  26
ATOM     23  C   UNL     1       6.604   3.709  12.368  0.00  0.00    +0.000 A 
ATOM     24  C   UNL     1       5.642   3.479  13.351  0.00  0.00    +0.000 A 
ATOM     25  C   UNL     1       5.675   4.186  14.555  0.00  0.00    +0.000 A 
ATOM     26  C   UNL     1       6.694   5.117  14.810  0.00  0.00    +0.000 A 
ATOM     27  C   UNL     1       7.654   5.343  13.812  0.00  0.00    +0.000 A 
ATOM     28  C   UNL     1       7.617   4.635  12.605  0.00  0.00    +0.000 A 
BRANCH  23  30
ATOM     29  C   UNL     1       5.810   1.704  11.398  0.00  0.00    +0.000 C 
ATOM     30  O   UNL     1       6.468   2.954  11.234  0.00  0.00    +0.000 OA
ENDBRANCH  23  30
ENDBRANCH  22  26
ENDBRANCH   1  22
TORSDOF 7
ENDMDL
MODEL 2
REMARK VINA RESULT:      -7.8      4.030      6.753
REMARK  Name = 
REMARK  10 active torsions:
REMARK  status: ('A' for Active; 'I' for Inactive)
REMARK    1  A    between atoms: C_1  and  O_2
REMARK    2  A    between atoms: O_2  and  C_3
REMARK    3  A    between atoms: C_6  and  C_7
REMARK    4  A    between atoms: C_7  and  N_8
REMARK    5  A    between atoms: C_9  and  C_12
REMARK    6  A    between atoms: N_10  and  O_11
REMARK    7  A    between atoms: C_15  and  C_16
REMARK    8  A    between atoms: C_18  and  O_19
REMARK    9  A    between atoms: O_19  and  C_20
REMARK   10  A    between atoms: C_23  and  C_24
REMARK                            x       y       z     vdW  Elec       q    Type
REMARK                         _______ _______ _______ _____ _____    ______ ____
ROOT
ATOM      1  N   UNL     1       7.620   7.443  17.966  0.00  0.00    +0.000 N 
ATOM      2  C   UNL     1       7.247   6.114  17.920  0.00  0.00    +0.000 C 
ATOM      3  N   UNL     1       7.356   5.213  18.856  0.00  0.00    +0.000 NA
ATOM      4  H   UNL     1       6.908   8.109  17.685  0.00  0.00    +0.000 HD
ENDROOT
BRANCH   2   5
ATOM      5  C   UNL     1       6.675   5.583  16.630  0.00  0.00    +0.000 A 
ATOM      6  C   UNL     1       7.570   5.008  15.716  0.00  0.00    +0.000 A 
ATOM      7  C   UNL     1       7.103   4.414  14.546  0.00  0.00    +0.000 A 
ATOM      8  C   UNL     1       5.736   4.389  14.320  0.00  0.00    +0.000 A 
ATOM      9  C   UNL     1       5.156   3.696  13.127  0.00  0.00    +0.000 C 
ATOM     10  N   UNL     1       4.855   4.970  15.164  0.00  0.00    +0.000 NA
ATOM     11  C   UNL     1       5.328   5.590  16.280  0.00  0.00    +0.000 A 
BRANCH  11  12
ATOM     12  O   UNL     1       4.401   6.190  17.122  0.00  0.00    +0.000 OA
BRANCH  12  13
ATOM     13  C   UNL     1       3.633   5.378  17.937  0.00  0.00    +0.000 A 
ATOM     14  C   UNL     1       3.699   5.631  19.309  0.00  0.00    +0.000 A 
ATOM     15  C   UNL     1       2.894   4.912  20.201  0.00  0.00    +0.000 A 
ATOM     16  C   UNL     1       2.008   3.937  19.731  0.00  0.00    +0.000 A 
ATOM     17  C   UNL     1       1.093   3.200  20.665  0.00  0.00    +0.000 C 
ATOM     18  C   UNL     1       1.955   3.675  18.356  0.00  0.00    +0.000 A 
ATOM     19  C   UNL     1       2.748   4.405  17.465  0.00  0.00    +0.000 A 
ENDBRANCH  12  13
ENDBRANCH  11  12
ENDBRANCH   2   5
BRANCH   3  20
ATOM     20  O   UNL     1       7.805   5.710  20.080  0.00  0.00    +0.000 OA
ATOM     21  H   UNL     1       8.405   6.426  19.802  0.00  0.00    +0.000 HD
ENDBRANCH   3  20
BRANCH   1  22
ATOM     22  C   UNL     1       8.607   7.979  18.881  0.00  0.00    +0.000 C 
BRANCH  22  26
ATOM     23  C   UNL     1       9.172  12.256  18.474  0.00  0.00    +0.000 A 
ATOM     24  C   UNL     1       9.775  11.548  19.515  0.00  0.00    +0.000 A 
ATOM     25  C   UNL     1       9.577  10.173  19.645  0.00  0.00    +0.000 A 
ATOM     26  C   UNL     1       8.745   9.482  18.751  0.00  0.00    +0.000 A 
ATOM     27  C   UNL     1       8.148  10.202  17.705  0.00  0.00    +0.000 A 
ATOM     28  C   UNL     1       8.350  11.581  17.575  0.00  0.00    +0.000 A 
BRANCH  23  30
ATOM     29  C   UNL     1      10.550  13.996  17.657  0.00  0.00    +0.000 C 
ATOM     30  O   UNL     1       9.439  13.598  18.452  0.00  0.00    +0.000 OA
ENDBRANCH  23  30
ENDBRANCH  22  26
ENDBRANCH   1  22
TORSDOF 7
ENDMDL
MODEL 3
REMARK VINA RESULT:      -7.8      0.966      1.304
REMARK  Name = 
REMARK  10 active torsions:
REMARK  status: ('A' for Active; 'I' for Inactive)
REMARK    1  A    between atoms: C_1  and  O_2
REMARK    2  A    between atoms: O_2  and  C_3
REMARK    3  A    between atoms: C_6  and  C_7
REMARK    4  A    between atoms: C_7  and  N_8
REMARK    5  A    between atoms: C_9  and  C_12
REMARK    6  A    between atoms: N_10  and  O_11
REMARK    7  A    between atoms: C_15  and  C_16
REMARK    8  A    between atoms: C_18  and  O_19
REMARK    9  A    between atoms: O_19  and  C_20
REMARK   10  A    between atoms: C_23  and  C_24
REMARK                            x       y       z     vdW  Elec       q    Type
REMARK                         _______ _______ _______ _____ _____    ______ ____
ROOT
ATOM      1  N   UNL     1       5.807   5.660  17.275  0.00  0.00    +0.000 N 
ATOM      2  C   UNL     1       5.725   5.009  18.490  0.00  0.00    +0.000 C 
ATOM      3  N   UNL     1       6.683   4.761  19.338  0.00  0.00    +0.000 NA
ATOM      4  H   UNL     1       5.144   6.416  17.135  0.00  0.00    +0.000 HD
ENDROOT
BRANCH   2   5
ATOM      5  C   UNL     1       4.385   4.463  18.911  0.00  0.00    +0.000 A 
ATOM      6  C   UNL     1       4.371   3.223  19.568  0.00  0.00    +0.000 A 
ATOM      7  C   UNL     1       3.181   2.700  20.068  0.00  0.00    +0.000 A 
ATOM      8  C   UNL     1       2.021   3.443  19.919  0.00  0.00    +0.000 A 
ATOM      9  C   UNL     1       0.721   2.984  20.503  0.00  0.00    +0.000 C 
ATOM     10  N   UNL     1       1.998   4.620  19.256  0.00  0.00    +0.000 NA
ATOM     11  C   UNL     1       3.160   5.097  18.730  0.00  0.00    +0.000 A 
BRANCH  11  12
ATOM     12  O   UNL     1       3.105   6.303  18.043  0.00  0.00    +0.000 OA
BRANCH  12  13
ATOM     13  C   UNL     1       2.451   7.367  18.636  0.00  0.00    +0.000 A 
ATOM     14  C   UNL     1       2.039   8.398  17.788  0.00  0.00    +0.000 A 
ATOM     15  C   UNL     1       1.300   9.476  18.290  0.00  0.00    +0.000 A 
ATOM     16  C   UNL     1       0.957   9.532  19.645  0.00  0.00    +0.000 A 
ATOM     17  C   UNL     1       0.112  10.648  20.189  0.00  0.00    +0.000 C 
ATOM     18  C   UNL     1       1.384   8.505  20.496  0.00  0.00    +0.000 A 
ATOM     19  C   UNL     1       2.109   7.421  19.990  0.00  0.00    +0.000 A 
ENDBRANCH  12  13
ENDBRANCH  11  12
ENDBRANCH   2   5
BRANCH   3  20
ATOM     20  O   UNL     1       7.910   5.333  19.001  0.00  0.00    +0.000 OA
ATOM     21  H   UNL     1       8.187   4.788  18.241  0.00  0.00    +0.000 HD
ENDBRANCH   3  20
BRANCH   1  22
ATOM     22  C   UNL     1       7.026   5.788  16.502  0.00  0.00    +0.000 C 
BRANCH  22  26
ATOM     23  C   UNL     1       6.564   3.906  12.627  0.00  0.00    +0.000 A 
ATOM     24  C   UNL     1       5.723   3.575  13.689  0.00  0.00    +0.000 A 
ATOM     25  C   UNL     1       5.887   4.178  14.938  0.00  0.00    +0.000 A 
ATOM     26  C   UNL     1       6.919   5.103  15.155  0.00  0.00    +0.000 A 
ATOM     27  C   UNL     1       7.756   5.433  14.078  0.00  0.00    +0.000 A 
ATOM     28  C   UNL     1       7.588   4.829  12.827  0.00  0.00    +0.000 A 
BRANCH  23  30
ATOM     29  C   UNL     1       5.497   2.083  11.564  0.00  0.00    +0.000 C 
ATOM     30  O   UNL     1       6.306   3.248  11.454  0.00  0.00    +0.000 OA
ENDBRANCH  23  30
ENDBRANCH  22  26
ENDBRANCH   1  22
TORSDOF 7
ENDMDL
MODEL 4
REMARK VINA RESULT:      -7.7      0.367      1.335
REMARK  Name = 
REMARK  10 active torsions:
REMARK  status: ('A' for Active; 'I' for Inactive)
REMARK    1  A    between atoms: C_1  and  O_2
REMARK    2  A    between atoms: O_2  and  C_3
REMARK    3  A    between atoms: C_6  and  C_7
REMARK    4  A    between atoms: C_7  and  N_8
REMARK    5  A    between atoms: C_9  and  C_12
REMARK    6  A    between atoms: N_10  and  O_11
REMARK    7  A    between atoms: C_15  and  C_16
REMARK    8  A    between atoms: C_18  and  O_19
REMARK    9  A    between atoms: O_19  and  C_20
REMARK   10  A    between atoms: C_23  and  C_24
REMARK                            x       y       z     vdW  Elec       q    Type
REMARK                         _______ _______ _______ _____ _____    ______ ____
ROOT
ATOM      1  N   UNL     1       5.482   5.598  16.796  0.00  0.00    +0.000 N 
ATOM      2  C   UNL     1       5.397   4.682  17.826  0.00  0.00    +0.000 C 
ATOM      3  N   UNL     1       6.370   4.139  18.503  0.00  0.00    +0.000 NA
ATOM      4  H   UNL     1       4.907   6.428  16.897  0.00  0.00    +0.000 HD
ENDROOT
BRANCH   2   5
ATOM      5  C   UNL     1       4.030   4.187  18.223  0.00  0.00    +0.000 A 
ATOM      6  C   UNL     1       3.586   2.987  17.650  0.00  0.00    +0.000 A 
ATOM      7  C   UNL     1       2.374   2.422  18.039  0.00  0.00    +0.000 A 
ATOM      8  C   UNL     1       1.633   3.063  19.019  0.00  0.00    +0.000 A 
ATOM      9  C   UNL     1       0.363   2.472  19.547  0.00  0.00    +0.000 C 
ATOM     10  N   UNL     1       2.018   4.239  19.560  0.00  0.00    +0.000 NA
ATOM     11  C   UNL     1       3.181   4.806  19.136  0.00  0.00    +0.000 A 
BRANCH  11  12
ATOM     12  O   UNL     1       3.545   6.022  19.699  0.00  0.00    +0.000 OA
BRANCH  12  13
ATOM     13  C   UNL     1       2.742   7.122  19.460  0.00  0.00    +0.000 A 
ATOM     14  C   UNL     1       2.717   7.603  18.148  0.00  0.00    +0.000 A 
ATOM     15  C   UNL     1       1.871   8.663  17.798  0.00  0.00    +0.000 A 
ATOM     16  C   UNL     1       1.033   9.249  18.754  0.00  0.00    +0.000 A 
ATOM     17  C   UNL     1       0.075  10.343  18.383  0.00  0.00    +0.000 C 
ATOM     18  C   UNL     1       1.071   8.774  20.070  0.00  0.00    +0.000 A 
ATOM     19  C   UNL     1       1.905   7.706  20.415  0.00  0.00    +0.000 A 
ENDBRANCH  12  13
ENDBRANCH  11  12
ENDBRANCH   2   5
BRANCH   3  20
ATOM     20  O   UNL     1       7.633   4.650  18.202  0.00  0.00    +0.000 OA
ATOM     21  H   UNL     1       7.739   5.342  18.881  0.00  0.00    +0.000 HD
ENDBRANCH   3  20
BRANCH   1  22
ATOM     22  C   UNL     1       6.657   5.787  15.970  0.00  0.00    +0.000 C 
BRANCH  22  26
ATOM     23  C   UNL     1       6.496   3.560  12.256  0.00  0.00    +0.000 A 
ATOM     24  C   UNL     1       7.585   4.380  12.554  0.00  0.00    +0.000 A 
ATOM     25  C   UNL     1       7.622   5.104  13.748  0.00  0.00    +0.000 A 
ATOM     26  C   UNL     1       6.553   5.043  14.654  0.00  0.00    +0.000 A 
ATOM     27  C   UNL     1       5.465   4.211  14.347  0.00  0.00    +0.000 A 
ATOM     28  C   UNL     1       5.431   3.485  13.151  0.00  0.00    +0.000 A 
BRANCH  23  30
ATOM     29  C   UNL     1       7.339   1.705  11.056  0.00  0.00    +0.000 C 
ATOM     30  O   UNL     1       6.574   2.904  11.057  0.00  0.00    +0.000 OA
ENDBRANCH  23  30
ENDBRANCH  22  26
ENDBRANCH   1  22
TORSDOF 7
ENDMDL
MODEL 5
REMARK VINA RESULT:      -7.6      2.436      4.291
REMARK  Name = 
REMARK  10 active torsions:
REMARK  status: ('A' for Active; 'I' for Inactive)
REMARK    1  A    between atoms: C_1  and  O_2
REMARK    2  A    between atoms: O_2  and  C_3
REMARK    3  A    between atoms: C_6  and  C_7
REMARK    4  A    between atoms: C_7  and  N_8
REMARK    5  A    between atoms: C_9  and  C_12
REMARK    6  A    between atoms: N_10  and  O_11
REMARK    7  A    between atoms: C_15  and  C_16
REMARK    8  A    between atoms: C_18  and  O_19
REMARK    9  A    between atoms: O_19  and  C_20
REMARK   10  A    between atoms: C_23  and  C_24
REMARK                            x       y       z     vdW  Elec       q    Type
REMARK                         _______ _______ _______ _____ _____    ______ ____
ROOT
ATOM      1  N   UNL     1       5.934   3.742  17.516  0.00  0.00    +0.000 N 
ATOM      2  C   UNL     1       4.579   3.837  17.268  0.00  0.00    +0.000 C 
ATOM      3  N   UNL     1       3.984   4.165  16.156  0.00  0.00    +0.000 NA
ATOM      4  H   UNL     1       6.244   2.873  17.939  0.00  0.00    +0.000 HD
ENDROOT
BRANCH   2   5
ATOM      5  C   UNL     1       3.631   3.576  18.410  0.00  0.00    +0.000 A 
ATOM      6  C   UNL     1       2.969   2.340  18.430  0.00  0.00    +0.000 A 
ATOM      7  C   UNL     1       2.149   1.992  19.501  0.00  0.00    +0.000 A 
ATOM      8  C   UNL     1       2.023   2.887  20.551  0.00  0.00    +0.000 A 
ATOM      9  C   UNL     1       1.227   2.548  21.772  0.00  0.00    +0.000 C 
ATOM     10  N   UNL     1       2.617   4.100  20.540  0.00  0.00    +0.000 NA
ATOM     11  C   UNL     1       3.377   4.448  19.465  0.00  0.00    +0.000 A 
BRANCH  11  12
ATOM     12  O   UNL     1       3.964   5.706  19.474  0.00  0.00    +0.000 OA
BRANCH  12  13
ATOM     13  C   UNL     1       3.159   6.808  19.250  0.00  0.00    +0.000 A 
ATOM     14  C   UNL     1       3.225   7.380  17.977  0.00  0.00    +0.000 A 
ATOM     15  C   UNL     1       2.387   8.449  17.637  0.00  0.00    +0.000 A 
ATOM     16  C   UNL     1       1.466   8.952  18.562  0.00  0.00    +0.000 A 
ATOM     17  C   UNL     1       0.516  10.055  18.195  0.00  0.00    +0.000 C 
ATOM     18  C   UNL     1       1.412   8.386  19.842  0.00  0.00    +0.000 A 
ATOM     19  C   UNL     1       2.240   7.309  20.176  0.00  0.00    +0.000 A 
ENDBRANCH  12  13
ENDBRANCH  11  12
ENDBRANCH   2   5
BRANCH   3  20
ATOM     20  O   UNL     1       4.846   4.327  15.070  0.00  0.00    +0.000 OA
ATOM     21  H   UNL     1       5.368   3.504  15.101  0.00  0.00    +0.000 HD
ENDBRANCH   3  20
BRANCH   1  22
ATOM     22  C   UNL     1       6.952   4.420  16.739  0.00  0.00    +0.000 C 
BRANCH  22  26
ATOM     23  C   UNL     1       8.269   8.149  18.511  0.00  0.00    +0.000 A 
ATOM     24  C   UNL     1       8.400   6.942  19.199  0.00  0.00    +0.000 A 
ATOM     25  C   UNL     1       7.962   5.747  18.625  0.00  0.00    +0.000 A 
ATOM     26  C   UNL     1       7.354   5.742  17.360  0.00  0.00    +0.000 A 
ATOM     27  C   UNL     1       7.231   6.960  16.675  0.00  0.00    +0.000 A 
ATOM     28  C   UNL     1       7.673   8.156  17.251  0.00  0.00    +0.000 A 
BRANCH  23  30
ATOM     29  C   UNL     1       9.050  10.376  18.366  0.00  0.00    +0.000 C 
ATOM     30  O   UNL     1       8.733   9.251  19.177  0.00  0.00    +0.000 OA
ENDBRANCH  23  30
ENDBRANCH  22  26
ENDBRANCH   1  22
TORSDOF 7
ENDMDL
MODEL 6
REMARK VINA RESULT:      -7.5      0.846      1.303
REMARK  Name = 
REMARK  10 active torsions:
REMARK  status: ('A' for Active; 'I' for Inactive)
REMARK    1  A    between atoms: C_1  and  O_2
REMARK    2  A    between atoms: O_2  and  C_3
REMARK    3  A    between atoms: C_6  and  C_7
REMARK    4  A    between atoms: C_7  and  N_8
REMARK    5  A    between atoms: C_9  and  C_12
REMARK    6  A    between atoms: N_10  and  O_11
REMARK    7  A    between atoms: C_15  and  C_16
REMARK    8  A    between atoms: C_18  and  O_19
REMARK    9  A    between atoms: O_19  and  C_20
REMARK   10  A    between atoms: C_23  and  C_24
REMARK                            x       y       z     vdW  Elec       q    Type
REMARK                         _______ _______ _______ _____ _____    ______ ____
ROOT
ATOM      1  N   UNL     1       5.714   5.630  16.941  0.00  0.00    +0.000 N 
ATOM      2  C   UNL     1       5.677   4.816  18.056  0.00  0.00    +0.000 C 
ATOM      3  N   UNL     1       6.680   4.318  18.723  0.00  0.00    +0.000 NA
ATOM      4  H   UNL     1       5.159   6.479  16.998  0.00  0.00    +0.000 HD
ENDROOT
BRANCH   2   5
ATOM      5  C   UNL     1       4.329   4.391  18.579  0.00  0.00    +0.000 A 
ATOM      6  C   UNL     1       4.227   3.106  19.130  0.00  0.00    +0.000 A 
ATOM      7  C   UNL     1       3.037   2.678  19.715  0.00  0.00    +0.000 A 
ATOM      8  C   UNL     1       1.970   3.561  19.757  0.00  0.00    +0.000 A 
ATOM      9  C   UNL     1       0.689   3.202  20.444  0.00  0.00    +0.000 C 
ATOM     10  N   UNL     1       2.028   4.790  19.200  0.00  0.00    +0.000 NA
ATOM     11  C   UNL     1       3.181   5.178  18.588  0.00  0.00    +0.000 A 
BRANCH  11  12
ATOM     12  O   UNL     1       3.208   6.441  18.012  0.00  0.00    +0.000 OA
BRANCH  12  13
ATOM     13  C   UNL     1       2.406   7.427  18.557  0.00  0.00    +0.000 A 
ATOM     14  C   UNL     1       2.179   7.357  19.934  0.00  0.00    +0.000 A 
ATOM     15  C   UNL     1       1.445   8.357  20.583  0.00  0.00    +0.000 A 
ATOM     16  C   UNL     1       0.938   9.446  19.864  0.00  0.00    +0.000 A 
ATOM     17  C   UNL     1       0.204  10.560  20.553  0.00  0.00    +0.000 C 
ATOM     18  C   UNL     1       1.155   9.507  18.482  0.00  0.00    +0.000 A 
ATOM     19  C   UNL     1       1.901   8.514  17.837  0.00  0.00    +0.000 A 
ENDBRANCH  12  13
ENDBRANCH  11  12
ENDBRANCH   2   5
BRANCH   3  20
ATOM     20  O   UNL     1       7.931   4.771  18.302  0.00  0.00    +0.000 OA
ATOM     21  H   UNL     1       8.474   4.640  19.101  0.00  0.00    +0.000 HD
ENDBRANCH   3  20
BRANCH   1  22
ATOM     22  C   UNL     1       6.839   5.716  16.034  0.00  0.00    +0.000 C 
BRANCH  22  26
ATOM     23  C   UNL     1       6.247   3.482  12.369  0.00  0.00    +0.000 A 
ATOM     24  C   UNL     1       7.386   4.267  12.554  0.00  0.00    +0.000 A 
ATOM     25  C   UNL     1       7.562   4.993  13.733  0.00  0.00    +0.000 A 
ATOM     26  C   UNL     1       6.584   4.971  14.740  0.00  0.00    +0.000 A 
ATOM     27  C   UNL     1       5.446   4.175  14.545  0.00  0.00    +0.000 A 
ATOM     28  C   UNL     1       5.272   3.446  13.363  0.00  0.00    +0.000 A 
BRANCH  23  30
ATOM     29  C   UNL     1       5.994   1.413  11.253  0.00  0.00    +0.000 C 
ATOM     30  O   UNL     1       6.187   2.819  11.172  0.00  0.00    +0.000 OA
ENDBRANCH  23  30
ENDBRANCH  22  26
ENDBRANCH   1  22
TORSDOF 7
ENDMDL
MODEL 7
REMARK VINA RESULT:      -7.5      4.038      6.744
REMARK  Name = 
REMARK  10 active torsions:
REMARK  status: ('A' for Active; 'I' for Inactive)
REMARK    1  A    between atoms: C_1  and  O_2
REMARK    2  A    between atoms: O_2  and  C_3
REMARK    3  A    between atoms: C_6  and  C_7
REMARK    4  A    between atoms: C_7  and  N_8
REMARK    5  A    between atoms: C_9  and  C_12
REMARK    6  A    between atoms: N_10  and  O_11
REMARK    7  A    between atoms: C_15  and  C_16
REMARK    8  A    between atoms: C_18  and  O_19
REMARK    9  A    between atoms: O_19  and  C_20
REMARK   10  A    between atoms: C_23  and  C_24
REMARK                            x       y       z     vdW  Elec       q    Type
REMARK                         _______ _______ _______ _____ _____    ______ ____
ROOT
ATOM      1  N   UNL     1       7.633   7.480  17.986  0.00  0.00    +0.000 N 
ATOM      2  C   UNL     1       7.282   6.147  17.908  0.00  0.00    +0.000 C 
ATOM      3  N   UNL     1       7.403   5.227  18.823  0.00  0.00    +0.000 NA
ATOM      4  H   UNL     1       6.911   8.141  17.717  0.00  0.00    +0.000 HD
ENDROOT
BRANCH   2   5
ATOM      5  C   UNL     1       6.725   5.637  16.604  0.00  0.00    +0.000 A 
ATOM      6  C   UNL     1       7.561   4.834  15.815  0.00  0.00    +0.000 A 
ATOM      7  C   UNL     1       7.084   4.251  14.643  0.00  0.00    +0.000 A 
ATOM      8  C   UNL     1       5.761   4.468  14.291  0.00  0.00    +0.000 A 
ATOM      9  C   UNL     1       5.156   3.808  13.092  0.00  0.00    +0.000 C 
ATOM     10  N   UNL     1       4.945   5.268  15.011  0.00  0.00    +0.000 NA
ATOM     11  C   UNL     1       5.438   5.871  16.129  0.00  0.00    +0.000 A 
BRANCH  11  12
ATOM     12  O   UNL     1       4.581   6.698  16.842  0.00  0.00    +0.000 OA
BRANCH  12  13
ATOM     13  C   UNL     1       3.684   6.115  17.718  0.00  0.00    +0.000 A 
ATOM     14  C   UNL     1       3.439   4.750  17.543  0.00  0.00    +0.000 A 
ATOM     15  C   UNL     1       2.607   4.060  18.433  0.00  0.00    +0.000 A 
ATOM     16  C   UNL     1       2.017   4.724  19.514  0.00  0.00    +0.000 A 
ATOM     17  C   UNL     1       1.173   3.988  20.514  0.00  0.00    +0.000 C 
ATOM     18  C   UNL     1       2.252   6.095  19.678  0.00  0.00    +0.000 A 
ATOM     19  C   UNL     1       3.095   6.780  18.797  0.00  0.00    +0.000 A 
ENDBRANCH  12  13
ENDBRANCH  11  12
ENDBRANCH   2   5
BRANCH   3  20
ATOM     20  O   UNL     1       7.838   5.702  20.061  0.00  0.00    +0.000 OA
ATOM     21  H   UNL     1       8.641   6.198  19.817  0.00  0.00    +0.000 HD
ENDBRANCH   3  20
BRANCH   1  22
ATOM     22  C   UNL     1       8.607   8.011  18.917  0.00  0.00    +0.000 C 
BRANCH  22  26
ATOM     23  C   UNL     1       9.234  12.278  18.488  0.00  0.00    +0.000 A 
ATOM     24  C   UNL     1       9.814  11.570  19.542  0.00  0.00    +0.000 A 
ATOM     25  C   UNL     1       9.596  10.198  19.679  0.00  0.00    +0.000 A 
ATOM     26  C   UNL     1       8.766   9.512  18.779  0.00  0.00    +0.000 A 
ATOM     27  C   UNL     1       8.193  10.232  17.720  0.00  0.00    +0.000 A 
ATOM     28  C   UNL     1       8.415  11.607  17.583  0.00  0.00    +0.000 A 
BRANCH  23  30
ATOM     29  C   UNL     1       8.421  14.487  18.698  0.00  0.00    +0.000 C 
ATOM     30  O   UNL     1       9.519  13.616  18.461  0.00  0.00    +0.000 OA
ENDBRANCH  23  30
ENDBRANCH  22  26
ENDBRANCH   1  22
TORSDOF 7
ENDMDL
MODEL 8
REMARK VINA RESULT:      -7.5      2.516      7.317
REMARK  Name = 
REMARK  10 active torsions:
REMARK  status: ('A' for Active; 'I' for Inactive)
REMARK    1  A    between atoms: C_1  and  O_2
REMARK    2  A    between atoms: O_2  and  C_3
REMARK    3  A    between atoms: C_6  and  C_7
REMARK    4  A    between atoms: C_7  and  N_8
REMARK    5  A    between atoms: C_9  and  C_12
REMARK    6  A    between atoms: N_10  and  O_11
REMARK    7  A    between atoms: C_15  and  C_16
REMARK    8  A    between atoms: C_18  and  O_19
REMARK    9  A    between atoms: O_19  and  C_20
REMARK   10  A    between atoms: C_23  and  C_24
REMARK                            x       y       z     vdW  Elec       q    Type
REMARK                         _______ _______ _______ _____ _____    ______ ____
ROOT
ATOM      1  N   UNL     1       3.713   5.695  17.650  0.00  0.00    +0.000 N 
ATOM      2  C   UNL     1       4.256   4.511  17.191  0.00  0.00    +0.000 C 
ATOM      3  N   UNL     1       3.989   3.297  17.583  0.00  0.00    +0.000 NA
ATOM      4  H   UNL     1       3.351   6.319  16.937  0.00  0.00    +0.000 HD
ENDROOT
BRANCH   2   5
ATOM      5  C   UNL     1       5.324   4.586  16.131  0.00  0.00    +0.000 A 
ATOM      6  C   UNL     1       4.970   4.203  14.829  0.00  0.00    +0.000 A 
ATOM      7  C   UNL     1       5.877   4.334  13.780  0.00  0.00    +0.000 A 
ATOM      8  C   UNL     1       7.126   4.868  14.053  0.00  0.00    +0.000 A 
ATOM      9  C   UNL     1       8.122   5.115  12.963  0.00  0.00    +0.000 C 
ATOM     10  N   UNL     1       7.507   5.209  15.303  0.00  0.00    +0.000 NA
ATOM     11  C   UNL     1       6.628   5.031  16.328  0.00  0.00    +0.000 A 
BRANCH  11  12
ATOM     12  O   UNL     1       7.052   5.377  17.604  0.00  0.00    +0.000 OA
BRANCH  12  13
ATOM     13  C   UNL     1       7.421   6.688  17.840  0.00  0.00    +0.000 A 
ATOM     14  C   UNL     1       8.354   6.901  18.858  0.00  0.00    +0.000 A 
ATOM     15  C   UNL     1       8.845   8.187  19.112  0.00  0.00    +0.000 A 
ATOM     16  C   UNL     1       8.414   9.276  18.346  0.00  0.00    +0.000 A 
ATOM     17  C   UNL     1       8.976  10.651  18.562  0.00  0.00    +0.000 C 
ATOM     18  C   UNL     1       7.468   9.063  17.336  0.00  0.00    +0.000 A 
ATOM     19  C   UNL     1       6.990   7.775  17.073  0.00  0.00    +0.000 A 
ENDBRANCH  12  13
ENDBRANCH  11  12
ENDBRANCH   2   5
BRANCH   3  20
ATOM     20  O   UNL     1       2.943   3.208  18.502  0.00  0.00    +0.000 OA
ATOM     21  H   UNL     1       2.403   2.488  18.127  0.00  0.00    +0.000 HD
ENDBRANCH   3  20
BRANCH   1  22
ATOM     22  C   UNL     1       3.093   5.855  18.949  0.00  0.00    +0.000 C 
BRANCH  22  26
ATOM     23  C   UNL     1       1.089   9.671  19.398  0.00  0.00    +0.000 A 
ATOM     24  C   UNL     1       1.168   8.773  20.463  0.00  0.00    +0.000 A 
ATOM     25  C   UNL     1       1.805   7.541  20.306  0.00  0.00    +0.000 A 
ATOM     26  C   UNL     1       2.350   7.170  19.066  0.00  0.00    +0.000 A 
ATOM     27  C   UNL     1       2.268   8.082  18.003  0.00  0.00    +0.000 A 
ATOM     28  C   UNL     1       1.632   9.318  18.164  0.00  0.00    +0.000 A 
BRANCH  23  30
ATOM     29  C   UNL     1      -0.976  10.815  19.535  0.00  0.00    +0.000 C 
ATOM     30  O   UNL     1       0.440  10.844  19.674  0.00  0.00    +0.000 OA
ENDBRANCH  23  30
ENDBRANCH  22  26
ENDBRANCH   1  22
TORSDOF 7
ENDMDL
MODEL 9
REMARK VINA RESULT:      -7.4      4.293      8.540
REMARK  Name = 
REMARK  10 active torsions:
REMARK  status: ('A' for Active; 'I' for Inactive)
REMARK    1  A    between atoms: C_1  and  O_2
REMARK    2  A    between atoms: O_2  and  C_3
REMARK    3  A    between atoms: C_6  and  C_7
REMARK    4  A    between atoms: C_7  and  N_8
REMARK    5  A    between atoms: C_9  and  C_12
REMARK    6  A    between atoms: N_10  and  O_11
REMARK    7  A    between atoms: C_15  and  C_16
REMARK    8  A    between atoms: C_18  and  O_19
REMARK    9  A    between atoms: O_19  and  C_20
REMARK   10  A    between atoms: C_23  and  C_24
REMARK                            x       y       z     vdW  Elec       q    Type
REMARK                         _______ _______ _______ _____ _____    ______ ____
ROOT
ATOM      1  N   UNL     1       0.932   9.965  20.851  0.00  0.00    +0.000 N 
ATOM      2  C   UNL     1       0.364  10.995  21.575  0.00  0.00    +0.000 C 
ATOM      3  N   UNL     1      -0.036  10.983  22.816  0.00  0.00    +0.000 NA
ATOM      4  H   UNL     1       1.800  10.189  20.375  0.00  0.00    +0.000 HD
ENDROOT
BRANCH   2   5
ATOM      5  C   UNL     1       0.120  12.305  20.871  0.00  0.00    +0.000 A 
ATOM      6  C   UNL     1       1.113  13.289  20.977  0.00  0.00    +0.000 A 
ATOM      7  C   UNL     1       0.999  14.489  20.277  0.00  0.00    +0.000 A 
ATOM      8  C   UNL     1      -0.106  14.673  19.463  0.00  0.00    +0.000 A 
ATOM      9  C   UNL     1      -0.256  15.900  18.618  0.00  0.00    +0.000 C 
ATOM     10  N   UNL     1      -1.097  13.759  19.372  0.00  0.00    +0.000 NA
ATOM     11  C   UNL     1      -0.997  12.611  20.099  0.00  0.00    +0.000 A 
BRANCH  11  12
ATOM     12  O   UNL     1      -2.036  11.695  19.997  0.00  0.00    +0.000 OA
BRANCH  12  13
ATOM     13  C   UNL     1      -2.350  11.196  18.747  0.00  0.00    +0.000 A 
ATOM     14  C   UNL     1      -3.527  11.673  18.163  0.00  0.00    +0.000 A 
ATOM     15  C   UNL     1      -3.882  11.283  16.866  0.00  0.00    +0.000 A 
ATOM     16  C   UNL     1      -3.060  10.419  16.133  0.00  0.00    +0.000 A 
ATOM     17  C   UNL     1      -3.393  10.040  14.719  0.00  0.00    +0.000 C 
ATOM     18  C   UNL     1      -1.890   9.932  16.726  0.00  0.00    +0.000 A 
ATOM     19  C   UNL     1      -1.528  10.334  18.017  0.00  0.00    +0.000 A 
ENDBRANCH  12  13
ENDBRANCH  11  12
ENDBRANCH   2   5
BRANCH   3  20
ATOM     20  O   UNL     1       0.261   9.805  23.502  0.00  0.00    +0.000 OA
ATOM     21  H   UNL     1       0.469   9.192  22.774  0.00  0.00    +0.000 HD
ENDBRANCH   3  20
BRANCH   1  22
ATOM     22  C   UNL     1       0.778   8.562  21.175  0.00  0.00    +0.000 C 
BRANCH  22  26
ATOM     23  C   UNL     1       3.067   6.107  18.434  0.00  0.00    +0.000 A 
ATOM     24  C   UNL     1       2.792   7.443  18.142  0.00  0.00    +0.000 A 
ATOM     25  C   UNL     1       2.043   8.223  19.025  0.00  0.00    +0.000 A 
ATOM     26  C   UNL     1       1.528   7.670  20.207  0.00  0.00    +0.000 A 
ATOM     27  C   UNL     1       1.814   6.326  20.494  0.00  0.00    +0.000 A 
ATOM     28  C   UNL     1       2.567   5.547  19.608  0.00  0.00    +0.000 A 
BRANCH  23  30
ATOM     29  C   UNL     1       4.921   4.712  17.983  0.00  0.00    +0.000 C 
ATOM     30  O   UNL     1       3.807   5.446  17.491  0.00  0.00    +0.000 OA
ENDBRANCH  23  30
ENDBRANCH  22  26
ENDBRANCH   1  22
TORSDOF 7
ENDMDL
