MODEL 1
REMARK VINA RESULT:      -6.5      0.000      0.000
REMARK  Name = 
REMARK  4 active torsions:
REMARK  status: ('A' for Active; 'I' for Inactive)
REMARK    1  A    between atoms: C_1  and  N_2
REMARK    2  A    between atoms: C_6  and  C_7
REMARK    3  A    between atoms: N_16  and  C_17
REMARK    4  A    between atoms: C_17  and  C_18
REMARK                            x       y       z     vdW  Elec       q    Type
REMARK                         _______ _______ _______ _____ _____    ______ ____
ROOT
ATOM      1  C   UNL     1       5.179   4.610  18.046  0.00  0.00    +0.000 C 
ATOM      2  O   UNL     1       5.436   3.731  18.867  0.00  0.00    +0.000 OA
ATOM      3  N   UNL     1       4.232   5.585  18.322  0.00  0.00    +0.000 N 
ATOM      4  C   UNL     1       3.873   6.718  17.472  0.00  0.00    +0.000 C 
ATOM      5  C   UNL     1       2.760   7.472  18.201  0.00  0.00    +0.000 C 
ATOM      6  C   UNL     1       2.228   6.399  19.121  0.00  0.00    +0.000 C 
ATOM      7  C   UNL     1       3.515   5.702  19.569  0.00  0.00    +0.000 C 
ATOM      8  C   UNL     1       2.901   4.568  20.350  0.00  0.00    +0.000 C 
ATOM      9  C   UNL     1       1.763   5.308  21.100  0.00  0.00    +0.000 C 
ATOM     10  N   UNL     1       1.418   6.545  20.323  0.00  0.00    +0.000 NA
ENDROOT
BRANCH   1  16
ATOM     11  C   UNL     1       7.490   6.418  17.166  0.00  0.00    +0.000 C 
ATOM     12  N   UNL     1       6.860   5.405  16.349  0.00  0.00    +0.000 N 
ATOM     13  C   UNL     1       7.300   5.058  15.091  0.00  0.00    +0.000 A 
ATOM     14  C   UNL     1       6.427   4.132  14.579  0.00  0.00    +0.000 A 
ATOM     15  C   UNL     1       5.426   3.937  15.553  0.00  0.00    +0.000 A 
ATOM     16  C   UNL     1       5.777   4.626  16.710  0.00  0.00    +0.000 A 
ENDBRANCH   1  16
BRANCH  10  17
ATOM     17  C   UNL     1       1.633   7.762  21.114  0.00  0.00    +0.000 C 
BRANCH  17  18
ATOM     18  C   UNL     1       0.383   8.585  21.288  0.00  0.00    +0.000 C 
ATOM     19  C   UNL     1       0.070   9.297  22.580  0.00  0.00    +0.000 C 
ATOM     20  C   UNL     1       0.430  10.091  21.359  0.00  0.00    +0.000 C 
ENDBRANCH  17  18
ENDBRANCH  10  17
TORSDOF 3
ENDMDL
MODEL 2
REMARK VINA RESULT:      -6.5      2.656      4.136
REMARK  Name = 
REMARK  4 active torsions:
REMARK  status: ('A' for Active; 'I' for Inactive)
REMARK    1  A    between atoms: C_1  and  N_2
REMARK    2  A    between atoms: C_6  and  C_7
REMARK    3  A    between atoms: N_16  and  C_17
REMARK    4  A    between atoms: C_17  and  C_18
REMARK                            x       y       z     vdW  Elec       q    Type
REMARK                         _______ _______ _______ _____ _____    ______ ____
ROOT
ATOM      1  C   UNL     1       2.221   6.141  19.754  0.00  0.00    +0.000 C 
ATOM      2  O   UNL     1       1.969   5.838  20.919  0.00  0.00    +0.000 OA
ATOM      3  N   UNL     1       2.043   7.440  19.304  0.00  0.00    +0.000 N 
ATOM      4  C   UNL     1       2.360   7.953  17.973  0.00  0.00    +0.000 C 
ATOM      5  C   UNL     1       1.948   9.426  17.966  0.00  0.00    +0.000 C 
ATOM      6  C   UNL     1       0.949   9.460  19.100  0.00  0.00    +0.000 C 
ATOM      7  C   UNL     1       1.612   8.543  20.130  0.00  0.00    +0.000 C 
ATOM      8  C   UNL     1       0.503   8.507  21.151  0.00  0.00    +0.000 C 
ATOM      9  C   UNL     1       0.065   9.994  21.162  0.00  0.00    +0.000 C 
ATOM     10  N   UNL     1       0.458  10.608  19.850  0.00  0.00    +0.000 NA
ENDROOT
BRANCH   1  16
ATOM     11  C   UNL     1       5.109   5.298  19.177  0.00  0.00    +0.000 C 
ATOM     12  N   UNL     1       3.931   4.732  18.558  0.00  0.00    +0.000 N 
ATOM     13  C   UNL     1       3.964   3.660  17.695  0.00  0.00    +0.000 A 
ATOM     14  C   UNL     1       2.688   3.446  17.239  0.00  0.00    +0.000 A 
ATOM     15  C   UNL     1       1.875   4.434  17.831  0.00  0.00    +0.000 A 
ATOM     16  C   UNL     1       2.628   5.145  18.761  0.00  0.00    +0.000 A 
ENDBRANCH   1  16
BRANCH  10  17
ATOM     17  C   UNL     1       1.394  11.723  20.030  0.00  0.00    +0.000 C 
BRANCH  17  18
ATOM     18  C   UNL     1       1.250  12.795  18.980  0.00  0.00    +0.000 C 
ATOM     19  C   UNL     1       1.853  14.166  19.152  0.00  0.00    +0.000 C 
ATOM     20  C   UNL     1       2.414  13.227  18.125  0.00  0.00    +0.000 C 
ENDBRANCH  17  18
ENDBRANCH  10  17
TORSDOF 3
ENDMDL
MODEL 3
REMARK VINA RESULT:      -6.5      2.156      7.219
REMARK  Name = 
REMARK  4 active torsions:
REMARK  status: ('A' for Active; 'I' for Inactive)
REMARK    1  A    between atoms: C_1  and  N_2
REMARK    2  A    between atoms: C_6  and  C_7
REMARK    3  A    between atoms: N_16  and  C_17
REMARK    4  A    between atoms: C_17  and  C_18
REMARK                            x       y       z     vdW  Elec       q    Type
REMARK                         _______ _______ _______ _____ _____    ______ ____
ROOT
ATOM      1  C   UNL     1       4.633   4.119  19.344  0.00  0.00    +0.000 C 
ATOM      2  O   UNL     1       5.685   4.427  19.901  0.00  0.00    +0.000 OA
ATOM      3  N   UNL     1       4.569   4.000  17.964  0.00  0.00    +0.000 N 
ATOM      4  C   UNL     1       3.410   3.583  17.177  0.00  0.00    +0.000 C 
ATOM      5  C   UNL     1       3.835   3.650  15.709  0.00  0.00    +0.000 C 
ATOM      6  C   UNL     1       5.001   4.608  15.782  0.00  0.00    +0.000 C 
ATOM      7  C   UNL     1       5.692   4.165  17.073  0.00  0.00    +0.000 C 
ATOM      8  C   UNL     1       6.739   5.247  17.155  0.00  0.00    +0.000 C 
ATOM      9  C   UNL     1       7.187   5.336  15.673  0.00  0.00    +0.000 C 
ATOM     10  N   UNL     1       6.069   4.822  14.814  0.00  0.00    +0.000 NA
ENDROOT
BRANCH   1  16
ATOM     11  C   UNL     1       2.500   6.288  19.709  0.00  0.00    +0.000 C 
ATOM     12  N   UNL     1       2.401   4.925  20.184  0.00  0.00    +0.000 N 
ATOM     13  C   UNL     1       1.273   4.406  20.780  0.00  0.00    +0.000 A 
ATOM     14  C   UNL     1       1.557   3.124  21.176  0.00  0.00    +0.000 A 
ATOM     15  C   UNL     1       2.902   2.881  20.827  0.00  0.00    +0.000 A 
ATOM     16  C   UNL     1       3.380   3.955  20.082  0.00  0.00    +0.000 A 
ENDBRANCH   1  16
BRANCH  10  17
ATOM     17  C   UNL     1       6.481   3.655  14.025  0.00  0.00    +0.000 C 
BRANCH  17  18
ATOM     18  C   UNL     1       6.123   3.770  12.565  0.00  0.00    +0.000 C 
ATOM     19  C   UNL     1       5.976   2.557  11.683  0.00  0.00    +0.000 C 
ATOM     20  C   UNL     1       4.766   3.364  12.050  0.00  0.00    +0.000 C 
ENDBRANCH  17  18
ENDBRANCH  10  17
TORSDOF 3
ENDMDL
MODEL 4
REMARK VINA RESULT:      -6.2      2.691      3.909
REMARK  Name = 
REMARK  4 active torsions:
REMARK  status: ('A' for Active; 'I' for Inactive)
REMARK    1  A    between atoms: C_1  and  N_2
REMARK    2  A    between atoms: C_6  and  C_7
REMARK    3  A    between atoms: N_16  and  C_17
REMARK    4  A    between atoms: C_17  and  C_18
REMARK                            x       y       z     vdW  Elec       q    Type
REMARK                         _______ _______ _______ _____ _____    ______ ____
ROOT
ATOM      1  C   UNL     1       6.059   4.783  18.263  0.00  0.00    +0.000 C 
ATOM      2  O   UNL     1       6.521   3.657  18.086  0.00  0.00    +0.000 OA
ATOM      3  N   UNL     1       4.711   4.963  18.533  0.00  0.00    +0.000 N 
ATOM      4  C   UNL     1       4.040   6.228  18.825  0.00  0.00    +0.000 C 
ATOM      5  C   UNL     1       2.558   5.901  19.013  0.00  0.00    +0.000 C 
ATOM      6  C   UNL     1       2.450   4.584  18.279  0.00  0.00    +0.000 C 
ATOM      7  C   UNL     1       3.754   3.892  18.682  0.00  0.00    +0.000 C 
ATOM      8  C   UNL     1       3.645   2.671  17.804  0.00  0.00    +0.000 C 
ATOM      9  C   UNL     1       2.144   2.318  17.976  0.00  0.00    +0.000 C 
ATOM     10  N   UNL     1       1.413   3.566  18.379  0.00  0.00    +0.000 NA
ENDROOT
BRANCH   1  16
ATOM     11  C   UNL     1       5.891   6.736  15.908  0.00  0.00    +0.000 C 
ATOM     12  N   UNL     1       6.737   6.894  17.070  0.00  0.00    +0.000 N 
ATOM     13  C   UNL     1       7.507   8.011  17.306  0.00  0.00    +0.000 A 
ATOM     14  C   UNL     1       8.238   7.787  18.445  0.00  0.00    +0.000 A 
ATOM     15  C   UNL     1       7.910   6.489  18.888  0.00  0.00    +0.000 A 
ATOM     16  C   UNL     1       6.870   5.991  18.109  0.00  0.00    +0.000 A 
ENDBRANCH   1  16
BRANCH  10  17
ATOM     17  C   UNL     1       0.765   3.416  19.687  0.00  0.00    +0.000 C 
BRANCH  17  18
ATOM     18  C   UNL     1       1.523   2.513  20.625  0.00  0.00    +0.000 C 
ATOM     19  C   UNL     1       2.475   3.056  21.659  0.00  0.00    +0.000 C 
ATOM     20  C   UNL     1       1.182   2.430  22.092  0.00  0.00    +0.000 C 
ENDBRANCH  17  18
ENDBRANCH  10  17
TORSDOF 3
ENDMDL
MODEL 5
REMARK VINA RESULT:      -6.2      2.851      3.942
REMARK  Name = 
REMARK  4 active torsions:
REMARK  status: ('A' for Active; 'I' for Inactive)
REMARK    1  A    between atoms: C_1  and  N_2
REMARK    2  A    between atoms: C_6  and  C_7
REMARK    3  A    between atoms: N_16  and  C_17
REMARK    4  A    between atoms: C_17  and  C_18
REMARK                            x       y       z     vdW  Elec       q    Type
REMARK                         _______ _______ _______ _____ _____    ______ ____
ROOT
ATOM      1  C   UNL     1       5.957   4.898  18.173  0.00  0.00    +0.000 C 
ATOM      2  O   UNL     1       6.490   3.807  17.977  0.00  0.00    +0.000 OA
ATOM      3  N   UNL     1       4.596   4.989  18.420  0.00  0.00    +0.000 N 
ATOM      4  C   UNL     1       3.845   6.203  18.731  0.00  0.00    +0.000 C 
ATOM      5  C   UNL     1       2.382   5.783  18.880  0.00  0.00    +0.000 C 
ATOM      6  C   UNL     1       2.368   4.482  18.111  0.00  0.00    +0.000 C 
ATOM      7  C   UNL     1       3.704   3.859  18.522  0.00  0.00    +0.000 C 
ATOM      8  C   UNL     1       3.685   2.657  17.612  0.00  0.00    +0.000 C 
ATOM      9  C   UNL     1       2.206   2.210  17.744  0.00  0.00    +0.000 C 
ATOM     10  N   UNL     1       1.393   3.400  18.164  0.00  0.00    +0.000 NA
ENDROOT
BRANCH   1  16
ATOM     11  C   UNL     1       8.243   5.767  20.018  0.00  0.00    +0.000 C 
ATOM     12  N   UNL     1       7.767   6.504  18.869  0.00  0.00    +0.000 N 
ATOM     13  C   UNL     1       8.361   7.655  18.401  0.00  0.00    +0.000 A 
ATOM     14  C   UNL     1       7.606   8.127  17.359  0.00  0.00    +0.000 A 
ATOM     15  C   UNL     1       6.516   7.243  17.215  0.00  0.00    +0.000 A 
ATOM     16  C   UNL     1       6.697   6.156  18.066  0.00  0.00    +0.000 A 
ENDBRANCH   1  16
BRANCH  10  17
ATOM     17  C   UNL     1       0.730   3.178  19.454  0.00  0.00    +0.000 C 
BRANCH  17  18
ATOM     18  C   UNL     1       1.635   2.555  20.486  0.00  0.00    +0.000 C 
ATOM     19  C   UNL     1       2.276   3.370  21.581  0.00  0.00    +0.000 C 
ATOM     20  C   UNL     1       1.199   2.381  21.919  0.00  0.00    +0.000 C 
ENDBRANCH  17  18
ENDBRANCH  10  17
TORSDOF 3
ENDMDL
MODEL 6
REMARK VINA RESULT:      -6.1      2.780      7.289
REMARK  Name = 
REMARK  4 active torsions:
REMARK  status: ('A' for Active; 'I' for Inactive)
REMARK    1  A    between atoms: C_1  and  N_2
REMARK    2  A    between atoms: C_6  and  C_7
REMARK    3  A    between atoms: N_16  and  C_17
REMARK    4  A    between atoms: C_17  and  C_18
REMARK                            x       y       z     vdW  Elec       q    Type
REMARK                         _______ _______ _______ _____ _____    ______ ____
ROOT
ATOM      1  C   UNL     1       4.965   4.501  19.295  0.00  0.00    +0.000 C 
ATOM      2  O   UNL     1       5.921   5.005  19.885  0.00  0.00    +0.000 OA
ATOM      3  N   UNL     1       4.975   4.363  17.916  0.00  0.00    +0.000 N 
ATOM      4  C   UNL     1       3.944   3.731  17.095  0.00  0.00    +0.000 C 
ATOM      5  C   UNL     1       4.402   3.867  15.642  0.00  0.00    +0.000 C 
ATOM      6  C   UNL     1       5.364   5.028  15.742  0.00  0.00    +0.000 C 
ATOM      7  C   UNL     1       6.079   4.731  17.062  0.00  0.00    +0.000 C 
ATOM      8  C   UNL     1       6.900   5.991  17.166  0.00  0.00    +0.000 C 
ATOM      9  C   UNL     1       7.377   6.154  15.699  0.00  0.00    +0.000 C 
ATOM     10  N   UNL     1       6.407   5.432  14.809  0.00  0.00    +0.000 NA
ENDROOT
BRANCH   1  16
ATOM     11  C   UNL     1       4.422   1.734  20.493  0.00  0.00    +0.000 C 
ATOM     12  N   UNL     1       3.537   2.874  20.581  0.00  0.00    +0.000 N 
ATOM     13  C   UNL     1       2.370   2.879  21.312  0.00  0.00    +0.000 A 
ATOM     14  C   UNL     1       1.747   4.083  21.105  0.00  0.00    +0.000 A 
ATOM     15  C   UNL     1       2.556   4.809  20.205  0.00  0.00    +0.000 A 
ATOM     16  C   UNL     1       3.740   4.109  19.992  0.00  0.00    +0.000 A 
ENDBRANCH   1  16
BRANCH  10  17
ATOM     17  C   UNL     1       7.060   4.360  14.050  0.00  0.00    +0.000 C 
BRANCH  17  18
ATOM     18  C   UNL     1       6.570   4.255  12.628  0.00  0.00    +0.000 C 
ATOM     19  C   UNL     1       7.025   3.153  11.707  0.00  0.00    +0.000 C 
ATOM     20  C   UNL     1       5.609   3.175  12.200  0.00  0.00    +0.000 C 
ENDBRANCH  17  18
ENDBRANCH  10  17
TORSDOF 3
ENDMDL
MODEL 7
REMARK VINA RESULT:      -6.0      3.200      6.176
REMARK  Name = 
REMARK  4 active torsions:
REMARK  status: ('A' for Active; 'I' for Inactive)
REMARK    1  A    between atoms: C_1  and  N_2
REMARK    2  A    between atoms: C_6  and  C_7
REMARK    3  A    between atoms: N_16  and  C_17
REMARK    4  A    between atoms: C_17  and  C_18
REMARK                            x       y       z     vdW  Elec       q    Type
REMARK                         _______ _______ _______ _____ _____    ______ ____
ROOT
ATOM      1  C   UNL     1       3.175   3.601  18.096  0.00  0.00    +0.000 C 
ATOM      2  O   UNL     1       2.850   3.134  17.005  0.00  0.00    +0.000 OA
ATOM      3  N   UNL     1       4.288   4.420  18.214  0.00  0.00    +0.000 N 
ATOM      4  C   UNL     1       4.753   5.091  19.426  0.00  0.00    +0.000 C 
ATOM      5  C   UNL     1       6.032   5.838  19.046  0.00  0.00    +0.000 C 
ATOM      6  C   UNL     1       6.459   5.083  17.809  0.00  0.00    +0.000 C 
ATOM      7  C   UNL     1       5.120   4.838  17.111  0.00  0.00    +0.000 C 
ATOM      8  C   UNL     1       5.605   3.964  15.984  0.00  0.00    +0.000 C 
ATOM      9  C   UNL     1       6.909   4.701  15.579  0.00  0.00    +0.000 C 
ATOM     10  N   UNL     1       7.383   5.496  16.761  0.00  0.00    +0.000 NA
ENDROOT
BRANCH   1  16
ATOM     11  C   UNL     1       4.339   1.904  20.365  0.00  0.00    +0.000 C 
ATOM     12  N   UNL     1       3.039   2.536  20.373  0.00  0.00    +0.000 N 
ATOM     13  C   UNL     1       2.196   2.533  21.462  0.00  0.00    +0.000 A 
ATOM     14  C   UNL     1       1.026   3.147  21.093  0.00  0.00    +0.000 A 
ATOM     15  C   UNL     1       1.168   3.507  19.736  0.00  0.00    +0.000 A 
ATOM     16  C   UNL     1       2.475   3.251  19.333  0.00  0.00    +0.000 A 
ENDBRANCH   1  16
BRANCH  10  17
ATOM     17  C   UNL     1       7.437   6.932  16.463  0.00  0.00    +0.000 C 
BRANCH  17  18
ATOM     18  C   UNL     1       7.375   7.796  17.697  0.00  0.00    +0.000 C 
ATOM     19  C   UNL     1       8.600   8.096  18.522  0.00  0.00    +0.000 C 
ATOM     20  C   UNL     1       7.955   9.187  17.718  0.00  0.00    +0.000 C 
ENDBRANCH  17  18
ENDBRANCH  10  17
TORSDOF 3
ENDMDL
MODEL 8
REMARK VINA RESULT:      -6.0      2.737      4.477
REMARK  Name = 
REMARK  4 active torsions:
REMARK  status: ('A' for Active; 'I' for Inactive)
REMARK    1  A    between atoms: C_1  and  N_2
REMARK    2  A    between atoms: C_6  and  C_7
REMARK    3  A    between atoms: N_16  and  C_17
REMARK    4  A    between atoms: C_17  and  C_18
REMARK                            x       y       z     vdW  Elec       q    Type
REMARK                         _______ _______ _______ _____ _____    ______ ____
ROOT
ATOM      1  C   UNL     1       3.044   6.995  18.120  0.00  0.00    +0.000 C 
ATOM      2  O   UNL     1       3.315   7.504  17.034  0.00  0.00    +0.000 OA
ATOM      3  N   UNL     1       2.207   7.641  19.017  0.00  0.00    +0.000 N 
ATOM      4  C   UNL     1       1.751   7.130  20.308  0.00  0.00    +0.000 C 
ATOM      5  C   UNL     1       0.883   8.227  20.927  0.00  0.00    +0.000 C 
ATOM      6  C   UNL     1       1.373   9.448  20.183  0.00  0.00    +0.000 C 
ATOM      7  C   UNL     1       1.550   8.901  18.764  0.00  0.00    +0.000 C 
ATOM      8  C   UNL     1       2.174  10.116  18.128  0.00  0.00    +0.000 C 
ATOM      9  C   UNL     1       1.311  11.248  18.743  0.00  0.00    +0.000 C 
ATOM     10  N   UNL     1       0.727  10.744  20.030  0.00  0.00    +0.000 NA
ENDROOT
BRANCH   1  16
ATOM     11  C   UNL     1       1.769   4.222  17.858  0.00  0.00    +0.000 C 
ATOM     12  N   UNL     1       3.089   4.492  18.383  0.00  0.00    +0.000 N 
ATOM     13  C   UNL     1       3.983   3.508  18.741  0.00  0.00    +0.000 A 
ATOM     14  C   UNL     1       5.092   4.116  19.271  0.00  0.00    +0.000 A 
ATOM     15  C   UNL     1       4.841   5.504  19.250  0.00  0.00    +0.000 A 
ATOM     16  C   UNL     1       3.652   5.741  18.566  0.00  0.00    +0.000 A 
ENDBRANCH   1  16
BRANCH  10  17
ATOM     17  C   UNL     1      -0.740  10.746  20.000  0.00  0.00    +0.000 C 
BRANCH  17  18
ATOM     18  C   UNL     1      -1.305  11.143  18.659  0.00  0.00    +0.000 C 
ATOM     19  C   UNL     1      -2.084  10.176  17.805  0.00  0.00    +0.000 C 
ATOM     20  C   UNL     1      -2.786  11.334  18.450  0.00  0.00    +0.000 C 
ENDBRANCH  17  18
ENDBRANCH  10  17
TORSDOF 3
ENDMDL
MODEL 9
REMARK VINA RESULT:      -5.9      2.567      4.163
REMARK  Name = 
REMARK  4 active torsions:
REMARK  status: ('A' for Active; 'I' for Inactive)
REMARK    1  A    between atoms: C_1  and  N_2
REMARK    2  A    between atoms: C_6  and  C_7
REMARK    3  A    between atoms: N_16  and  C_17
REMARK    4  A    between atoms: C_17  and  C_18
REMARK                            x       y       z     vdW  Elec       q    Type
REMARK                         _______ _______ _______ _____ _____    ______ ____
ROOT
ATOM      1  C   UNL     1       2.598   6.123  19.685  0.00  0.00    +0.000 C 
ATOM      2  O   UNL     1       2.331   5.767  20.832  0.00  0.00    +0.000 OA
ATOM      3  N   UNL     1       2.290   7.402  19.249  0.00  0.00    +0.000 N 
ATOM      4  C   UNL     1       2.603   7.978  17.942  0.00  0.00    +0.000 C 
ATOM      5  C   UNL     1       2.022   9.392  17.940  0.00  0.00    +0.000 C 
ATOM      6  C   UNL     1       0.976   9.285  19.026  0.00  0.00    +0.000 C 
ATOM      7  C   UNL     1       1.695   8.428  20.071  0.00  0.00    +0.000 C 
ATOM      8  C   UNL     1       0.553   8.241  21.038  0.00  0.00    +0.000 C 
ATOM      9  C   UNL     1      -0.057   9.667  21.053  0.00  0.00    +0.000 C 
ATOM     10  N   UNL     1       0.320  10.351  19.771  0.00  0.00    +0.000 NA
ENDROOT
BRANCH   1  16
ATOM     11  C   UNL     1       1.183   3.650  18.561  0.00  0.00    +0.000 C 
ATOM     12  N   UNL     1       2.486   4.128  18.154  0.00  0.00    +0.000 N 
ATOM     13  C   UNL     1       3.214   3.575  17.124  0.00  0.00    +0.000 A 
ATOM     14  C   UNL     1       4.425   4.216  17.071  0.00  0.00    +0.000 A 
ATOM     15  C   UNL     1       4.427   5.165  18.115  0.00  0.00    +0.000 A 
ATOM     16  C   UNL     1       3.164   5.203  18.697  0.00  0.00    +0.000 A 
ENDBRANCH   1  16
BRANCH  10  17
ATOM     17  C   UNL     1       1.110  11.563  20.014  0.00  0.00    +0.000 C 
BRANCH  17  18
ATOM     18  C   UNL     1       0.915  12.619  18.956  0.00  0.00    +0.000 C 
ATOM     19  C   UNL     1       1.306  14.057  19.183  0.00  0.00    +0.000 C 
ATOM     20  C   UNL     1       2.082  13.218  18.212  0.00  0.00    +0.000 C 
ENDBRANCH  17  18
ENDBRANCH  10  17
TORSDOF 3
ENDMDL
