MODEL 1
REMARK VINA RESULT:      -6.7      0.000      0.000
REMARK  Name = 
REMARK  7 active torsions:
REMARK  status: ('A' for Active; 'I' for Inactive)
REMARK    1  A    between atoms: C_1  and  C_2
REMARK    2  A    between atoms: C_2  and  N_3
REMARK    3  A    between atoms: C_9  and  C_10
REMARK    4  A    between atoms: C_10  and  C_11
REMARK    5  A    between atoms: N_16  and  C_17
REMARK    6  A    between atoms: N_18  and  C_19
REMARK    7  A    between atoms: C_19  and  C_20
REMARK                            x       y       z     vdW  Elec       q    Type
REMARK                         _______ _______ _______ _____ _____    ______ ____
ROOT
ATOM      1  N   UNL     1       2.793   3.731  20.230  0.00  0.00    +0.000 N 
ATOM      2  C   UNL     1       2.378   5.009  20.646  0.00  0.00    +0.000 A 
ATOM      3  O   UNL     1       1.994   5.271  21.780  0.00  0.00    +0.000 OA
ATOM      4  C   UNL     1       2.452   5.981  19.605  0.00  0.00    +0.000 A 
ATOM      5  C   UNL     1       2.838   5.670  18.342  0.00  0.00    +0.000 A 
ATOM      6  N   UNL     1       2.827   6.749  17.524  0.00  0.00    +0.000 NA
ATOM      7  C   UNL     1       2.458   7.763  18.288  0.00  0.00    +0.000 A 
ATOM      8  N   UNL     1       2.193   7.329  19.575  0.00  0.00    +0.000 N 
ATOM      9  C   UNL     1       1.741   8.119  20.695  0.00  0.00    +0.000 C 
ATOM     10  N   UNL     1       3.187   4.399  17.965  0.00  0.00    +0.000 N 
ATOM     11  C   UNL     1       3.183   3.383  18.917  0.00  0.00    +0.000 A 
ATOM     12  O   UNL     1       3.503   2.227  18.627  0.00  0.00    +0.000 OA
ENDROOT
BRANCH   1  14
ATOM     13  C   UNL     1       1.372   2.345  21.714  0.00  0.00    +0.000 C 
ATOM     14  C   UNL     1       2.779   2.661  21.224  0.00  0.00    +0.000 C 
ENDBRANCH   1  14
BRANCH   7  15
ATOM     15  C   UNL     1       2.374   9.176  17.800  0.00  0.00    +0.000 C 
BRANCH  15  16
ATOM     16  C   UNL     1       1.051   9.817  18.112  0.00  0.00    +0.000 A 
ATOM     17  C   UNL     1      -0.214   9.393  17.748  0.00  0.00    +0.000 A 
ATOM     18  C   UNL     1      -1.231  10.298  18.166  0.00  0.00    +0.000 A 
ATOM     19  C   UNL     1      -0.711  11.380  18.839  0.00  0.00    +0.000 A 
ATOM     20  S   UNL     1       0.991  11.295  18.977  0.00  0.00    +0.000 S 
ENDBRANCH  15  16
ENDBRANCH   7  15
BRANCH  10  21
ATOM     21  C   UNL     1       3.568   4.122  16.582  0.00  0.00    +0.000 C 
BRANCH  21  22
ATOM     22  C   UNL     1       5.039   4.363  16.380  0.00  0.00    +0.000 A 
ATOM     23  C   UNL     1       6.039   4.435  17.331  0.00  0.00    +0.000 A 
ATOM     24  C   UNL     1       7.314   4.712  16.760  0.00  0.00    +0.000 A 
ATOM     25  C   UNL     1       7.256   4.806  15.388  0.00  0.00    +0.000 A 
ATOM     26  S   UNL     1       5.672   4.560  14.797  0.00  0.00    +0.000 S 
ENDBRANCH  21  22
ENDBRANCH  10  21
TORSDOF 5
ENDMDL
MODEL 2
REMARK VINA RESULT:      -6.7      6.946      9.716
REMARK  Name = 
REMARK  7 active torsions:
REMARK  status: ('A' for Active; 'I' for Inactive)
REMARK    1  A    between atoms: C_1  and  C_2
REMARK    2  A    between atoms: C_2  and  N_3
REMARK    3  A    between atoms: C_9  and  C_10
REMARK    4  A    between atoms: C_10  and  C_11
REMARK    5  A    between atoms: N_16  and  C_17
REMARK    6  A    between atoms: N_18  and  C_19
REMARK    7  A    between atoms: C_19  and  C_20
REMARK                            x       y       z     vdW  Elec       q    Type
REMARK                         _______ _______ _______ _____ _____    ______ ____
ROOT
ATOM      1  N   UNL     1      -3.108  10.701  17.763  0.00  0.00    +0.000 N 
ATOM      2  C   UNL     1      -4.285  11.412  18.058  0.00  0.00    +0.000 A 
ATOM      3  O   UNL     1      -5.342  11.270  17.455  0.00  0.00    +0.000 OA
ATOM      4  C   UNL     1      -4.126  12.324  19.143  0.00  0.00    +0.000 A 
ATOM      5  C   UNL     1      -2.938  12.503  19.776  0.00  0.00    +0.000 A 
ATOM      6  N   UNL     1      -3.022  13.420  20.769  0.00  0.00    +0.000 NA
ATOM      7  C   UNL     1      -4.288  13.803  20.784  0.00  0.00    +0.000 A 
ATOM      8  N   UNL     1      -4.999  13.170  19.781  0.00  0.00    +0.000 N 
ATOM      9  C   UNL     1      -6.394  13.335  19.450  0.00  0.00    +0.000 C 
ATOM     10  N   UNL     1      -1.800  11.825  19.424  0.00  0.00    +0.000 N 
ATOM     11  C   UNL     1      -1.860  10.885  18.400  0.00  0.00    +0.000 A 
ATOM     12  O   UNL     1      -0.864  10.240  18.058  0.00  0.00    +0.000 OA
ENDROOT
BRANCH   1  14
ATOM     13  C   UNL     1      -2.850  10.340  15.326  0.00  0.00    +0.000 C 
ATOM     14  C   UNL     1      -3.164   9.721  16.682  0.00  0.00    +0.000 C 
ENDBRANCH   1  14
BRANCH   7  15
ATOM     15  C   UNL     1      -4.844  14.773  21.780  0.00  0.00    +0.000 C 
BRANCH  15  16
ATOM     16  C   UNL     1      -5.756  14.117  22.778  0.00  0.00    +0.000 A 
ATOM     17  C   UNL     1      -5.584  12.911  23.433  0.00  0.00    +0.000 A 
ATOM     18  C   UNL     1      -6.697  12.578  24.258  0.00  0.00    +0.000 A 
ATOM     19  C   UNL     1      -7.679  13.541  24.209  0.00  0.00    +0.000 A 
ATOM     20  S   UNL     1      -7.253  14.843  23.187  0.00  0.00    +0.000 S 
ENDBRANCH  15  16
ENDBRANCH   7  15
BRANCH  10  21
ATOM     21  C   UNL     1      -0.545  12.083  20.127  0.00  0.00    +0.000 C 
BRANCH  21  22
ATOM     22  C   UNL     1      -0.353  11.097  21.246  0.00  0.00    +0.000 A 
ATOM     23  C   UNL     1      -0.989  11.048  22.472  0.00  0.00    +0.000 A 
ATOM     24  C   UNL     1      -0.518   9.981  23.289  0.00  0.00    +0.000 A 
ATOM     25  C   UNL     1       0.437   9.225  22.649  0.00  0.00    +0.000 A 
ATOM     26  S   UNL     1       0.759   9.801  21.072  0.00  0.00    +0.000 S 
ENDBRANCH  21  22
ENDBRANCH  10  21
TORSDOF 5
ENDMDL
MODEL 3
REMARK VINA RESULT:      -6.5      6.955      9.616
REMARK  Name = 
REMARK  7 active torsions:
REMARK  status: ('A' for Active; 'I' for Inactive)
REMARK    1  A    between atoms: C_1  and  C_2
REMARK    2  A    between atoms: C_2  and  N_3
REMARK    3  A    between atoms: C_9  and  C_10
REMARK    4  A    between atoms: C_10  and  C_11
REMARK    5  A    between atoms: N_16  and  C_17
REMARK    6  A    between atoms: N_18  and  C_19
REMARK    7  A    between atoms: C_19  and  C_20
REMARK                            x       y       z     vdW  Elec       q    Type
REMARK                         _______ _______ _______ _____ _____    ______ ____
ROOT
ATOM      1  N   UNL     1      -3.106  10.715  17.631  0.00  0.00    +0.000 N 
ATOM      2  C   UNL     1      -4.337  11.309  17.963  0.00  0.00    +0.000 A 
ATOM      3  O   UNL     1      -5.376  11.132  17.337  0.00  0.00    +0.000 OA
ATOM      4  C   UNL     1      -4.256  12.145  19.116  0.00  0.00    +0.000 A 
ATOM      5  C   UNL     1      -3.091  12.367  19.775  0.00  0.00    +0.000 A 
ATOM      6  N   UNL     1      -3.252  13.196  20.833  0.00  0.00    +0.000 NA
ATOM      7  C   UNL     1      -4.544  13.479  20.861  0.00  0.00    +0.000 A 
ATOM      8  N   UNL     1      -5.197  12.870  19.804  0.00  0.00    +0.000 N 
ATOM      9  C   UNL     1      -6.598  12.952  19.469  0.00  0.00    +0.000 C 
ATOM     10  N   UNL     1      -1.901  11.807  19.387  0.00  0.00    +0.000 N 
ATOM     11  C   UNL     1      -1.880  10.945  18.295  0.00  0.00    +0.000 A 
ATOM     12  O   UNL     1      -0.835  10.407  17.918  0.00  0.00    +0.000 OA
ENDROOT
BRANCH   1  14
ATOM     13  C   UNL     1      -2.894  10.571  15.166  0.00  0.00    +0.000 C 
ATOM     14  C   UNL     1      -3.079   9.819  16.478  0.00  0.00    +0.000 C 
ENDBRANCH   1  14
BRANCH   7  15
ATOM     15  C   UNL     1      -5.181  14.324  21.920  0.00  0.00    +0.000 C 
BRANCH  15  16
ATOM     16  C   UNL     1      -4.234  14.661  23.037  0.00  0.00    +0.000 A 
ATOM     17  C   UNL     1      -3.952  13.925  24.173  0.00  0.00    +0.000 A 
ATOM     18  C   UNL     1      -3.051  14.598  25.046  0.00  0.00    +0.000 A 
ATOM     19  C   UNL     1      -2.671  15.823  24.548  0.00  0.00    +0.000 A 
ATOM     20  S   UNL     1      -3.386  16.150  23.030  0.00  0.00    +0.000 S 
ENDBRANCH  15  16
ENDBRANCH   7  15
BRANCH  10  21
ATOM     21  C   UNL     1      -0.674  12.107  20.124  0.00  0.00    +0.000 C 
BRANCH  21  22
ATOM     22  C   UNL     1      -0.414  11.056  21.168  0.00  0.00    +0.000 A 
ATOM     23  C   UNL     1       0.297   9.877  21.047  0.00  0.00    +0.000 A 
ATOM     24  C   UNL     1       0.299   9.116  22.251  0.00  0.00    +0.000 A 
ATOM     25  C   UNL     1      -0.378   9.753  23.266  0.00  0.00    +0.000 A 
ATOM     26  S   UNL     1      -1.010  11.260  22.765  0.00  0.00    +0.000 S 
ENDBRANCH  21  22
ENDBRANCH  10  21
TORSDOF 5
ENDMDL
MODEL 4
REMARK VINA RESULT:      -6.5      1.770      1.909
REMARK  Name = 
REMARK  7 active torsions:
REMARK  status: ('A' for Active; 'I' for Inactive)
REMARK    1  A    between atoms: C_1  and  C_2
REMARK    2  A    between atoms: C_2  and  N_3
REMARK    3  A    between atoms: C_9  and  C_10
REMARK    4  A    between atoms: C_10  and  C_11
REMARK    5  A    between atoms: N_16  and  C_17
REMARK    6  A    between atoms: N_18  and  C_19
REMARK    7  A    between atoms: C_19  and  C_20
REMARK                            x       y       z     vdW  Elec       q    Type
REMARK                         _______ _______ _______ _____ _____    ______ ____
ROOT
ATOM      1  N   UNL     1       2.929   4.176  19.640  0.00  0.00    +0.000 N 
ATOM      2  C   UNL     1       2.072   5.144  20.194  0.00  0.00    +0.000 A 
ATOM      3  O   UNL     1       1.285   4.921  21.107  0.00  0.00    +0.000 OA
ATOM      4  C   UNL     1       2.213   6.425  19.584  0.00  0.00    +0.000 A 
ATOM      5  C   UNL     1       3.058   6.649  18.545  0.00  0.00    +0.000 A 
ATOM      6  N   UNL     1       3.021   7.935  18.125  0.00  0.00    +0.000 NA
ATOM      7  C   UNL     1       2.163   8.541  18.929  0.00  0.00    +0.000 A 
ATOM      8  N   UNL     1       1.622   7.639  19.829  0.00  0.00    +0.000 N 
ATOM      9  C   UNL     1       0.635   7.898  20.849  0.00  0.00    +0.000 C 
ATOM     10  N   UNL     1       3.841   5.664  18.000  0.00  0.00    +0.000 N 
ATOM     11  C   UNL     1       3.804   4.385  18.550  0.00  0.00    +0.000 A 
ATOM     12  O   UNL     1       4.502   3.471  18.102  0.00  0.00    +0.000 OA
ENDROOT
BRANCH   1  14
ATOM     13  C   UNL     1       1.834   1.957  19.536  0.00  0.00    +0.000 C 
ATOM     14  C   UNL     1       2.885   2.831  20.207  0.00  0.00    +0.000 C 
ENDBRANCH   1  14
BRANCH   7  15
ATOM     15  C   UNL     1       1.862  10.005  18.861  0.00  0.00    +0.000 C 
BRANCH  15  16
ATOM     16  C   UNL     1       0.403  10.285  18.635  0.00  0.00    +0.000 A 
ATOM     17  C   UNL     1      -0.441   9.725  17.693  0.00  0.00    +0.000 A 
ATOM     18  C   UNL     1      -1.748  10.290  17.732  0.00  0.00    +0.000 A 
ATOM     19  C   UNL     1      -1.860  11.259  18.703  0.00  0.00    +0.000 A 
ATOM     20  S   UNL     1      -0.403  11.473  19.570  0.00  0.00    +0.000 S 
ENDBRANCH  15  16
ENDBRANCH   7  15
BRANCH  10  21
ATOM     21  C   UNL     1       4.711   5.962  16.864  0.00  0.00    +0.000 C 
BRANCH  21  22
ATOM     22  C   UNL     1       5.996   6.588  17.332  0.00  0.00    +0.000 A 
ATOM     23  C   UNL     1       6.523   7.824  17.007  0.00  0.00    +0.000 A 
ATOM     24  C   UNL     1       7.785   8.058  17.623  0.00  0.00    +0.000 A 
ATOM     25  C   UNL     1       8.167   7.011  18.431  0.00  0.00    +0.000 A 
ATOM     26  S   UNL     1       7.007   5.756  18.442  0.00  0.00    +0.000 S 
ENDBRANCH  21  22
ENDBRANCH  10  21
TORSDOF 5
ENDMDL
MODEL 5
REMARK VINA RESULT:      -6.5      7.123      9.845
REMARK  Name = 
REMARK  7 active torsions:
REMARK  status: ('A' for Active; 'I' for Inactive)
REMARK    1  A    between atoms: C_1  and  C_2
REMARK    2  A    between atoms: C_2  and  N_3
REMARK    3  A    between atoms: C_9  and  C_10
REMARK    4  A    between atoms: C_10  and  C_11
REMARK    5  A    between atoms: N_16  and  C_17
REMARK    6  A    between atoms: N_18  and  C_19
REMARK    7  A    between atoms: C_19  and  C_20
REMARK                            x       y       z     vdW  Elec       q    Type
REMARK                         _______ _______ _______ _____ _____    ______ ____
ROOT
ATOM      1  N   UNL     1      -3.151  11.505  17.283  0.00  0.00    +0.000 N 
ATOM      2  C   UNL     1      -4.462  11.758  17.725  0.00  0.00    +0.000 A 
ATOM      3  O   UNL     1      -5.457  11.655  17.018  0.00  0.00    +0.000 OA
ATOM      4  C   UNL     1      -4.518  12.150  19.095  0.00  0.00    +0.000 A 
ATOM      5  C   UNL     1      -3.405  12.302  19.857  0.00  0.00    +0.000 A 
ATOM      6  N   UNL     1      -3.700  12.684  21.122  0.00  0.00    +0.000 NA
ATOM      7  C   UNL     1      -5.021  12.744  21.170  0.00  0.00    +0.000 A 
ATOM      8  N   UNL     1      -5.565  12.446  19.933  0.00  0.00    +0.000 N 
ATOM      9  C   UNL     1      -6.960  12.429  19.566  0.00  0.00    +0.000 C 
ATOM     10  N   UNL     1      -2.140  12.093  19.372  0.00  0.00    +0.000 N 
ATOM     11  C   UNL     1      -1.979  11.672  18.055  0.00  0.00    +0.000 A 
ATOM     12  O   UNL     1      -0.860  11.458  17.579  0.00  0.00    +0.000 OA
ENDROOT
BRANCH   1  14
ATOM     13  C   UNL     1      -2.985   9.557  15.761  0.00  0.00    +0.000 C 
ATOM     14  C   UNL     1      -2.978  11.074  15.898  0.00  0.00    +0.000 C 
ENDBRANCH   1  14
BRANCH   7  15
ATOM     15  C   UNL     1      -5.787  13.070  22.413  0.00  0.00    +0.000 C 
BRANCH  15  16
ATOM     16  C   UNL     1      -4.979  13.866  23.399  0.00  0.00    +0.000 A 
ATOM     17  C   UNL     1      -4.876  15.241  23.510  0.00  0.00    +0.000 A 
ATOM     18  C   UNL     1      -3.956  15.635  24.523  0.00  0.00    +0.000 A 
ATOM     19  C   UNL     1      -3.390  14.551  25.154  0.00  0.00    +0.000 A 
ATOM     20  S   UNL     1      -3.977  13.069  24.538  0.00  0.00    +0.000 S 
ENDBRANCH  15  16
ENDBRANCH   7  15
BRANCH  10  21
ATOM     21  C   UNL     1      -0.979  12.300  20.236  0.00  0.00    +0.000 C 
BRANCH  21  22
ATOM     22  C   UNL     1      -0.709  11.072  21.061  0.00  0.00    +0.000 A 
ATOM     23  C   UNL     1      -0.271   9.830  20.641  0.00  0.00    +0.000 A 
ATOM     24  C   UNL     1      -0.161   8.900  21.714  0.00  0.00    +0.000 A 
ATOM     25  C   UNL     1      -0.481   9.470  22.926  0.00  0.00    +0.000 A 
ATOM     26  S   UNL     1      -0.911  11.116  22.765  0.00  0.00    +0.000 S 
ENDBRANCH  21  22
ENDBRANCH  10  21
TORSDOF 5
ENDMDL
MODEL 6
REMARK VINA RESULT:      -6.4      7.181      9.982
REMARK  Name = 
REMARK  7 active torsions:
REMARK  status: ('A' for Active; 'I' for Inactive)
REMARK    1  A    between atoms: C_1  and  C_2
REMARK    2  A    between atoms: C_2  and  N_3
REMARK    3  A    between atoms: C_9  and  C_10
REMARK    4  A    between atoms: C_10  and  C_11
REMARK    5  A    between atoms: N_16  and  C_17
REMARK    6  A    between atoms: N_18  and  C_19
REMARK    7  A    between atoms: C_19  and  C_20
REMARK                            x       y       z     vdW  Elec       q    Type
REMARK                         _______ _______ _______ _____ _____    ______ ____
ROOT
ATOM      1  N   UNL     1      -3.472  11.580  17.604  0.00  0.00    +0.000 N 
ATOM      2  C   UNL     1      -4.729  11.852  18.173  0.00  0.00    +0.000 A 
ATOM      3  O   UNL     1      -5.793  11.737  17.574  0.00  0.00    +0.000 OA
ATOM      4  C   UNL     1      -4.643  12.279  19.531  0.00  0.00    +0.000 A 
ATOM      5  C   UNL     1      -3.457  12.444  20.170  0.00  0.00    +0.000 A 
ATOM      6  N   UNL     1      -3.619  12.860  21.448  0.00  0.00    +0.000 NA
ATOM      7  C   UNL     1      -4.927  12.929  21.630  0.00  0.00    +0.000 A 
ATOM      8  N   UNL     1      -5.597  12.603  20.464  0.00  0.00    +0.000 N 
ATOM      9  C   UNL     1      -7.023  12.585  20.242  0.00  0.00    +0.000 C 
ATOM     10  N   UNL     1      -2.250  12.215  19.562  0.00  0.00    +0.000 N 
ATOM     11  C   UNL     1      -2.227  11.760  18.247  0.00  0.00    +0.000 A 
ATOM     12  O   UNL     1      -1.163  11.527  17.665  0.00  0.00    +0.000 OA
ENDROOT
BRANCH   1  14
ATOM     13  C   UNL     1      -3.142   9.624  16.121  0.00  0.00    +0.000 C 
ATOM     14  C   UNL     1      -3.444  11.113  16.221  0.00  0.00    +0.000 C 
ENDBRANCH   1  14
BRANCH   7  15
ATOM     15  C   UNL     1      -5.561  13.291  22.937  0.00  0.00    +0.000 C 
BRANCH  15  16
ATOM     16  C   UNL     1      -4.691  14.189  23.771  0.00  0.00    +0.000 A 
ATOM     17  C   UNL     1      -3.640  13.837  24.597  0.00  0.00    +0.000 A 
ATOM     18  C   UNL     1      -3.093  14.957  25.286  0.00  0.00    +0.000 A 
ATOM     19  C   UNL     1      -3.741  16.127  24.961  0.00  0.00    +0.000 A 
ATOM     20  S   UNL     1      -4.990  15.876  23.822  0.00  0.00    +0.000 S 
ENDBRANCH  15  16
ENDBRANCH   7  15
BRANCH  10  21
ATOM     21  C   UNL     1      -1.006  12.437  20.297  0.00  0.00    +0.000 C 
BRANCH  21  22
ATOM     22  C   UNL     1      -0.723  11.284  21.220  0.00  0.00    +0.000 A 
ATOM     23  C   UNL     1      -0.889  11.215  22.590  0.00  0.00    +0.000 A 
ATOM     24  C   UNL     1      -0.480   9.961  23.127  0.00  0.00    +0.000 A 
ATOM     25  C   UNL     1      -0.050   9.096  22.146  0.00  0.00    +0.000 A 
ATOM     26  S   UNL     1      -0.141   9.797  20.590  0.00  0.00    +0.000 S 
ENDBRANCH  21  22
ENDBRANCH  10  21
TORSDOF 5
ENDMDL
MODEL 7
REMARK VINA RESULT:      -6.4      7.455     10.355
REMARK  Name = 
REMARK  7 active torsions:
REMARK  status: ('A' for Active; 'I' for Inactive)
REMARK    1  A    between atoms: C_1  and  C_2
REMARK    2  A    between atoms: C_2  and  N_3
REMARK    3  A    between atoms: C_9  and  C_10
REMARK    4  A    between atoms: C_10  and  C_11
REMARK    5  A    between atoms: N_16  and  C_17
REMARK    6  A    between atoms: N_18  and  C_19
REMARK    7  A    between atoms: C_19  and  C_20
REMARK                            x       y       z     vdW  Elec       q    Type
REMARK                         _______ _______ _______ _____ _____    ______ ____
ROOT
ATOM      1  N   UNL     1      -3.570  11.597  17.627  0.00  0.00    +0.000 N 
ATOM      2  C   UNL     1      -4.892  11.722  18.090  0.00  0.00    +0.000 A 
ATOM      3  O   UNL     1      -5.883  11.509  17.402  0.00  0.00    +0.000 OA
ATOM      4  C   UNL     1      -4.965  12.126  19.456  0.00  0.00    +0.000 A 
ATOM      5  C   UNL     1      -3.861  12.401  20.196  0.00  0.00    +0.000 A 
ATOM      6  N   UNL     1      -4.173  12.769  21.461  0.00  0.00    +0.000 NA
ATOM      7  C   UNL     1      -5.491  12.695  21.531  0.00  0.00    +0.000 A 
ATOM      8  N   UNL     1      -6.023  12.326  20.308  0.00  0.00    +0.000 N 
ATOM      9  C   UNL     1      -7.415  12.163  19.966  0.00  0.00    +0.000 C 
ATOM     10  N   UNL     1      -2.590  12.314  19.690  0.00  0.00    +0.000 N 
ATOM     11  C   UNL     1      -2.409  11.893  18.376  0.00  0.00    +0.000 A 
ATOM     12  O   UNL     1      -1.282  11.787  17.883  0.00  0.00    +0.000 OA
ENDROOT
BRANCH   1  14
ATOM     13  C   UNL     1      -3.015   9.690  16.146  0.00  0.00    +0.000 C 
ATOM     14  C   UNL     1      -3.376  11.166  16.245  0.00  0.00    +0.000 C 
ENDBRANCH   1  14
BRANCH   7  15
ATOM     15  C   UNL     1      -6.266  12.959  22.784  0.00  0.00    +0.000 C 
BRANCH  15  16
ATOM     16  C   UNL     1      -6.642  14.406  22.937  0.00  0.00    +0.000 A 
ATOM     17  C   UNL     1      -7.796  15.041  22.518  0.00  0.00    +0.000 A 
ATOM     18  C   UNL     1      -7.770  16.442  22.776  0.00  0.00    +0.000 A 
ATOM     19  C   UNL     1      -6.600  16.829  23.388  0.00  0.00    +0.000 A 
ATOM     20  S   UNL     1      -5.548  15.510  23.660  0.00  0.00    +0.000 S 
ENDBRANCH  15  16
ENDBRANCH   7  15
BRANCH  10  21
ATOM     21  C   UNL     1      -1.442  12.650  20.531  0.00  0.00    +0.000 C 
BRANCH  21  22
ATOM     22  C   UNL     1      -0.980  11.444  21.301  0.00  0.00    +0.000 A 
ATOM     23  C   UNL     1      -0.307  10.330  20.837  0.00  0.00    +0.000 A 
ATOM     24  C   UNL     1      -0.066   9.372  21.864  0.00  0.00    +0.000 A 
ATOM     25  C   UNL     1      -0.528   9.800  23.088  0.00  0.00    +0.000 A 
ATOM     26  S   UNL     1      -1.247  11.348  22.994  0.00  0.00    +0.000 S 
ENDBRANCH  21  22
ENDBRANCH  10  21
TORSDOF 5
ENDMDL
MODEL 8
REMARK VINA RESULT:      -6.4      6.928      9.615
REMARK  Name = 
REMARK  7 active torsions:
REMARK  status: ('A' for Active; 'I' for Inactive)
REMARK    1  A    between atoms: C_1  and  C_2
REMARK    2  A    between atoms: C_2  and  N_3
REMARK    3  A    between atoms: C_9  and  C_10
REMARK    4  A    between atoms: C_10  and  C_11
REMARK    5  A    between atoms: N_16  and  C_17
REMARK    6  A    between atoms: N_18  and  C_19
REMARK    7  A    between atoms: C_19  and  C_20
REMARK                            x       y       z     vdW  Elec       q    Type
REMARK                         _______ _______ _______ _____ _____    ______ ____
ROOT
ATOM      1  N   UNL     1      -3.099  10.766  17.714  0.00  0.00    +0.000 N 
ATOM      2  C   UNL     1      -4.336  11.338  18.061  0.00  0.00    +0.000 A 
ATOM      3  O   UNL     1      -5.377  11.151  17.443  0.00  0.00    +0.000 OA
ATOM      4  C   UNL     1      -4.258  12.168  19.219  0.00  0.00    +0.000 A 
ATOM      5  C   UNL     1      -3.090  12.402  19.870  0.00  0.00    +0.000 A 
ATOM      6  N   UNL     1      -3.255  13.222  20.936  0.00  0.00    +0.000 NA
ATOM      7  C   UNL     1      -4.551  13.484  20.976  0.00  0.00    +0.000 A 
ATOM      8  N   UNL     1      -5.203  12.873  19.920  0.00  0.00    +0.000 N 
ATOM      9  C   UNL     1      -6.608  12.937  19.598  0.00  0.00    +0.000 C 
ATOM     10  N   UNL     1      -1.895  11.864  19.468  0.00  0.00    +0.000 N 
ATOM     11  C   UNL     1      -1.871  11.010  18.369  0.00  0.00    +0.000 A 
ATOM     12  O   UNL     1      -0.821  10.491  17.980  0.00  0.00    +0.000 OA
ENDROOT
BRANCH   1  14
ATOM     13  C   UNL     1      -2.885  10.641  15.249  0.00  0.00    +0.000 C 
ATOM     14  C   UNL     1      -3.068   9.879  16.554  0.00  0.00    +0.000 C 
ENDBRANCH   1  14
BRANCH   7  15
ATOM     15  C   UNL     1      -5.191  14.312  22.046  0.00  0.00    +0.000 C 
BRANCH  15  16
ATOM     16  C   UNL     1      -4.209  14.772  23.087  0.00  0.00    +0.000 A 
ATOM     17  C   UNL     1      -3.519  15.969  23.145  0.00  0.00    +0.000 A 
ATOM     18  C   UNL     1      -2.618  16.022  24.247  0.00  0.00    +0.000 A 
ATOM     19  C   UNL     1      -2.653  14.868  24.996  0.00  0.00    +0.000 A 
ATOM     20  S   UNL     1      -3.775  13.735  24.381  0.00  0.00    +0.000 S 
ENDBRANCH  15  16
ENDBRANCH   7  15
BRANCH  10  21
ATOM     21  C   UNL     1      -0.667  12.177  20.196  0.00  0.00    +0.000 C 
BRANCH  21  22
ATOM     22  C   UNL     1      -0.401  11.141  21.254  0.00  0.00    +0.000 A 
ATOM     23  C   UNL     1      -0.995  11.001  22.493  0.00  0.00    +0.000 A 
ATOM     24  C   UNL     1      -0.456   9.913  23.237  0.00  0.00    +0.000 A 
ATOM     25  C   UNL     1       0.508   9.231  22.529  0.00  0.00    +0.000 A 
ATOM     26  S   UNL     1       0.757   9.904  20.977  0.00  0.00    +0.000 S 
ENDBRANCH  21  22
ENDBRANCH  10  21
TORSDOF 5
ENDMDL
MODEL 9
REMARK VINA RESULT:      -6.4      7.062     10.001
REMARK  Name = 
REMARK  7 active torsions:
REMARK  status: ('A' for Active; 'I' for Inactive)
REMARK    1  A    between atoms: C_1  and  C_2
REMARK    2  A    between atoms: C_2  and  N_3
REMARK    3  A    between atoms: C_9  and  C_10
REMARK    4  A    between atoms: C_10  and  C_11
REMARK    5  A    between atoms: N_16  and  C_17
REMARK    6  A    between atoms: N_18  and  C_19
REMARK    7  A    between atoms: C_19  and  C_20
REMARK                            x       y       z     vdW  Elec       q    Type
REMARK                         _______ _______ _______ _____ _____    ______ ____
ROOT
ATOM      1  N   UNL     1      -3.132  11.693  18.006  0.00  0.00    +0.000 N 
ATOM      2  C   UNL     1      -4.427  11.901  18.515  0.00  0.00    +0.000 A 
ATOM      3  O   UNL     1      -5.453  11.761  17.860  0.00  0.00    +0.000 OA
ATOM      4  C   UNL     1      -4.426  12.295  19.886  0.00  0.00    +0.000 A 
ATOM      5  C   UNL     1      -3.282  12.488  20.589  0.00  0.00    +0.000 A 
ATOM      6  N   UNL     1      -3.525  12.863  21.867  0.00  0.00    +0.000 NA
ATOM      7  C   UNL     1      -4.842  12.877  21.982  0.00  0.00    +0.000 A 
ATOM      8  N   UNL     1      -5.438  12.557  20.776  0.00  0.00    +0.000 N 
ATOM      9  C   UNL     1      -6.849  12.490  20.481  0.00  0.00    +0.000 C 
ATOM     10  N   UNL     1      -2.037  12.322  20.039  0.00  0.00    +0.000 N 
ATOM     11  C   UNL     1      -1.929  11.903  18.716  0.00  0.00    +0.000 A 
ATOM     12  O   UNL     1      -0.829  11.727  18.184  0.00  0.00    +0.000 OA
ENDROOT
BRANCH   1  14
ATOM     13  C   UNL     1      -2.954   9.748  16.481  0.00  0.00    +0.000 C 
ATOM     14  C   UNL     1      -3.015  11.264  16.614  0.00  0.00    +0.000 C 
ENDBRANCH   1  14
BRANCH   7  15
ATOM     15  C   UNL     1      -5.555  13.180  23.263  0.00  0.00    +0.000 C 
BRANCH  15  16
ATOM     16  C   UNL     1      -5.181  14.520  23.830  0.00  0.00    +0.000 A 
ATOM     17  C   UNL     1      -5.893  15.705  23.772  0.00  0.00    +0.000 A 
ATOM     18  C   UNL     1      -5.187  16.791  24.363  0.00  0.00    +0.000 A 
ATOM     19  C   UNL     1      -3.963  16.401  24.857  0.00  0.00    +0.000 A 
ATOM     20  S   UNL     1      -3.676  14.733  24.622  0.00  0.00    +0.000 S 
ENDBRANCH  15  16
ENDBRANCH   7  15
BRANCH  10  21
ATOM     21  C   UNL     1      -0.841  12.572  20.842  0.00  0.00    +0.000 C 
BRANCH  21  22
ATOM     22  C   UNL     1      -0.439  11.333  21.593  0.00  0.00    +0.000 A 
ATOM     23  C   UNL     1      -0.906  10.871  22.809  0.00  0.00    +0.000 A 
ATOM     24  C   UNL     1      -0.261   9.670  23.220  0.00  0.00    +0.000 A 
ATOM     25  C   UNL     1       0.652   9.230  22.289  0.00  0.00    +0.000 A 
ATOM     26  S   UNL     1       0.726  10.262  20.928  0.00  0.00    +0.000 S 
ENDBRANCH  21  22
ENDBRANCH  10  21
TORSDOF 5
ENDMDL
