MODEL 1
REMARK VINA RESULT:      -7.5      0.000      0.000
REMARK  Name = 
REMARK  16 active torsions:
REMARK  status: ('A' for Active; 'I' for Inactive)
REMARK    1  A    between atoms: C_1  and  C_2
REMARK    2  A    between atoms: C_2  and  C_3
REMARK    3  A    between atoms: C_3  and  C_4
REMARK    4  A    between atoms: C_4  and  C_5
REMARK    5  A    between atoms: C_5  and  O_6
REMARK    6  A    between atoms: C_5  and  C_7
REMARK    7  A    between atoms: C_8  and  C_9
REMARK    8  A    between atoms: C_9  and  O_11
REMARK    9  A    between atoms: O_11  and  C_12
REMARK   10  A    between atoms: C_13  and  C_14
REMARK   11  A    between atoms: C_16  and  C_17
REMARK   12  A    between atoms: C_18  and  O_19
REMARK   13  A    between atoms: O_19  and  C_20
REMARK   14  A    between atoms: C_20  and  C_21
REMARK   15  A    between atoms: C_23  and  C_24
REMARK   16  A    between atoms: C_29  and  C_30
REMARK                            x       y       z     vdW  Elec       q    Type
REMARK                         _______ _______ _______ _____ _____    ______ ____
ROOT
ATOM      1  C   UNL     1       4.885   5.989  16.396  0.00  0.00    +0.000 C 
ATOM      2  C   UNL     1       5.426   4.541  16.555  0.00  0.00    +0.000 C 
ATOM      3  C   UNL     1       5.750   3.881  15.214  0.00  0.00    +0.000 C 
ATOM      4  O   UNL     1       4.561   3.672  17.321  0.00  0.00    +0.000 OA
ATOM      5  C   UNL     1       4.192   4.216  18.617  0.00  0.00    +0.000 C 
ATOM      6  C   UNL     1       5.476   4.605  19.409  0.00  0.00    +0.000 C 
ATOM      7  C   UNL     1       3.403   3.148  19.461  0.00  0.00    +0.000 C 
ATOM      8  C   UNL     1       2.028   3.598  20.020  0.00  0.00    +0.000 C 
ATOM      9  C   UNL     1       1.775   3.049  21.443  0.00  0.00    +0.000 C 
ATOM     10  C   UNL     1       1.769   5.092  20.072  0.00  0.00    +0.000 C 
ATOM     11  O   UNL     1       0.800   5.562  20.661  0.00  0.00    +0.000 OA
ATOM     12  O   UNL     1       2.653   5.913  19.466  0.00  0.00    +0.000 OA
ATOM     13  C   UNL     1       3.294   5.423  18.288  0.00  0.00    +0.000 C 
ATOM     14  C   UNL     1       4.196   6.523  17.684  0.00  0.00    +0.000 C 
ATOM     15  C   UNL     1       3.585   7.919  17.528  0.00  0.00    +0.000 C 
ENDROOT
BRANCH   1  16
ATOM     16  O   UNL     1       6.005   6.882  16.182  0.00  0.00    +0.000 OA
BRANCH  16  17
ATOM     17  C   UNL     1       7.093   6.742  16.973  0.00  0.00    +0.000 C 
ATOM     18  O   UNL     1       7.814   5.755  17.028  0.00  0.00    +0.000 OA
BRANCH  17  20
ATOM     19  C   UNL     1       8.290   8.847  17.596  0.00  0.00    +0.000 C 
ATOM     20  C   UNL     1       7.302   7.953  17.785  0.00  0.00    +0.000 C 
BRANCH  19  21
ATOM     21  C   UNL     1       8.536  10.010  18.512  0.00  0.00    +0.000 C 
BRANCH  21  22
ATOM     22  O   UNL     1       9.224   9.512  19.655  0.00  0.00    +0.000 OA
ATOM     23  H   UNL     1       9.692  10.252  20.075  0.00  0.00    +0.000 HD
ENDBRANCH  21  22
BRANCH  21  24
ATOM     24  C   UNL     1       9.366  11.138  17.882  0.00  0.00    +0.000 C 
BRANCH  24  25
ATOM     25  C   UNL     1      10.691  11.394  18.604  0.00  0.00    +0.000 C 
BRANCH  25  27
ATOM     26  C   UNL     1       9.584  13.662  18.666  0.00  0.00    +0.000 C 
ATOM     27  C   UNL     1      10.851  12.873  18.956  0.00  0.00    +0.000 C 
ENDBRANCH  25  27
ENDBRANCH  24  25
ENDBRANCH  21  24
ENDBRANCH  19  21
ENDBRANCH  17  20
ENDBRANCH  16  17
ENDBRANCH   1  16
BRANCH   7  28
ATOM     28  O   UNL     1       4.204   2.732  20.612  0.00  0.00    +0.000 OA
BRANCH  28  29
ATOM     29  C   UNL     1       4.875   1.549  20.565  0.00  0.00    +0.000 C 
ATOM     30  C   UNL     1       4.490   0.786  19.326  0.00  0.00    +0.000 C 
ATOM     31  O   UNL     1       5.621   1.125  21.429  0.00  0.00    +0.000 OA
ENDBRANCH  28  29
ENDBRANCH   7  28
TORSDOF 10
ENDMDL
MODEL 2
REMARK VINA RESULT:      -6.9      1.602      3.177
REMARK  Name = 
REMARK  16 active torsions:
REMARK  status: ('A' for Active; 'I' for Inactive)
REMARK    1  A    between atoms: C_1  and  C_2
REMARK    2  A    between atoms: C_2  and  C_3
REMARK    3  A    between atoms: C_3  and  C_4
REMARK    4  A    between atoms: C_4  and  C_5
REMARK    5  A    between atoms: C_5  and  O_6
REMARK    6  A    between atoms: C_5  and  C_7
REMARK    7  A    between atoms: C_8  and  C_9
REMARK    8  A    between atoms: C_9  and  O_11
REMARK    9  A    between atoms: O_11  and  C_12
REMARK   10  A    between atoms: C_13  and  C_14
REMARK   11  A    between atoms: C_16  and  C_17
REMARK   12  A    between atoms: C_18  and  O_19
REMARK   13  A    between atoms: O_19  and  C_20
REMARK   14  A    between atoms: C_20  and  C_21
REMARK   15  A    between atoms: C_23  and  C_24
REMARK   16  A    between atoms: C_29  and  C_30
REMARK                            x       y       z     vdW  Elec       q    Type
REMARK                         _______ _______ _______ _____ _____    ______ ____
ROOT
ATOM      1  C   UNL     1       7.276   5.094  17.584  0.00  0.00    +0.000 C 
ATOM      2  C   UNL     1       6.856   5.502  19.024  0.00  0.00    +0.000 C 
ATOM      3  C   UNL     1       8.020   5.450  20.015  0.00  0.00    +0.000 C 
ATOM      4  O   UNL     1       5.744   4.742  19.549  0.00  0.00    +0.000 OA
ATOM      5  C   UNL     1       4.586   4.728  18.673  0.00  0.00    +0.000 C 
ATOM      6  C   UNL     1       4.177   6.188  18.318  0.00  0.00    +0.000 C 
ATOM      7  C   UNL     1       3.363   4.038  19.383  0.00  0.00    +0.000 C 
ATOM      8  C   UNL     1       2.689   2.875  18.609  0.00  0.00    +0.000 C 
ATOM      9  C   UNL     1       1.151   2.887  18.772  0.00  0.00    +0.000 C 
ATOM     10  C   UNL     1       2.974   2.792  17.120  0.00  0.00    +0.000 C 
ATOM     11  O   UNL     1       2.352   2.032  16.383  0.00  0.00    +0.000 OA
ATOM     12  O   UNL     1       3.925   3.601  16.608  0.00  0.00    +0.000 OA
ATOM     13  C   UNL     1       5.037   3.911  17.448  0.00  0.00    +0.000 C 
ATOM     14  C   UNL     1       6.061   4.766  16.670  0.00  0.00    +0.000 C 
ATOM     15  C   UNL     1       6.452   4.285  15.269  0.00  0.00    +0.000 C 
ENDROOT
BRANCH   1  16
ATOM     16  O   UNL     1       7.919   6.226  16.950  0.00  0.00    +0.000 OA
BRANCH  16  17
ATOM     17  C   UNL     1       7.328   7.437  17.056  0.00  0.00    +0.000 C 
ATOM     18  O   UNL     1       6.273   7.765  16.529  0.00  0.00    +0.000 OA
BRANCH  17  20
ATOM     19  C   UNL     1       8.072   9.678  17.876  0.00  0.00    +0.000 C 
ATOM     20  C   UNL     1       8.135   8.335  17.900  0.00  0.00    +0.000 C 
BRANCH  19  21
ATOM     21  C   UNL     1       8.989  10.561  18.672  0.00  0.00    +0.000 C 
BRANCH  21  22
ATOM     22  O   UNL     1       9.494   9.782  19.753  0.00  0.00    +0.000 OA
ATOM     23  H   UNL     1      10.306   9.339  19.456  0.00  0.00    +0.000 HD
ENDBRANCH  21  22
BRANCH  21  24
ATOM     24  C   UNL     1      10.170  11.123  17.868  0.00  0.00    +0.000 C 
BRANCH  24  25
ATOM     25  C   UNL     1      10.090  12.635  17.647  0.00  0.00    +0.000 C 
BRANCH  25  27
ATOM     26  C   UNL     1      11.172  14.862  18.139  0.00  0.00    +0.000 C 
ATOM     27  C   UNL     1      11.218  13.361  18.380  0.00  0.00    +0.000 C 
ENDBRANCH  25  27
ENDBRANCH  24  25
ENDBRANCH  21  24
ENDBRANCH  19  21
ENDBRANCH  17  20
ENDBRANCH  16  17
ENDBRANCH   1  16
BRANCH   7  28
ATOM     28  O   UNL     1       2.317   5.025  19.645  0.00  0.00    +0.000 OA
BRANCH  28  29
ATOM     29  C   UNL     1       1.972   5.307  20.930  0.00  0.00    +0.000 C 
ATOM     30  C   UNL     1       1.392   6.693  21.018  0.00  0.00    +0.000 C 
ATOM     31  O   UNL     1       2.169   4.583  21.890  0.00  0.00    +0.000 OA
ENDBRANCH  28  29
ENDBRANCH   7  28
TORSDOF 10
ENDMDL
MODEL 3
REMARK VINA RESULT:      -6.7      3.014      7.004
REMARK  Name = 
REMARK  16 active torsions:
REMARK  status: ('A' for Active; 'I' for Inactive)
REMARK    1  A    between atoms: C_1  and  C_2
REMARK    2  A    between atoms: C_2  and  C_3
REMARK    3  A    between atoms: C_3  and  C_4
REMARK    4  A    between atoms: C_4  and  C_5
REMARK    5  A    between atoms: C_5  and  O_6
REMARK    6  A    between atoms: C_5  and  C_7
REMARK    7  A    between atoms: C_8  and  C_9
REMARK    8  A    between atoms: C_9  and  O_11
REMARK    9  A    between atoms: O_11  and  C_12
REMARK   10  A    between atoms: C_13  and  C_14
REMARK   11  A    between atoms: C_16  and  C_17
REMARK   12  A    between atoms: C_18  and  O_19
REMARK   13  A    between atoms: O_19  and  C_20
REMARK   14  A    between atoms: C_20  and  C_21
REMARK   15  A    between atoms: C_23  and  C_24
REMARK   16  A    between atoms: C_29  and  C_30
REMARK                            x       y       z     vdW  Elec       q    Type
REMARK                         _______ _______ _______ _____ _____    ______ ____
ROOT
ATOM      1  C   UNL     1       5.844   5.403  16.451  0.00  0.00    +0.000 C 
ATOM      2  C   UNL     1       5.594   6.668  17.319  0.00  0.00    +0.000 C 
ATOM      3  C   UNL     1       6.855   7.515  17.505  0.00  0.00    +0.000 C 
ATOM      4  O   UNL     1       5.009   6.388  18.611  0.00  0.00    +0.000 OA
ATOM      5  C   UNL     1       3.803   5.581  18.539  0.00  0.00    +0.000 C 
ATOM      6  C   UNL     1       2.782   6.248  17.571  0.00  0.00    +0.000 C 
ATOM      7  C   UNL     1       3.129   5.467  19.956  0.00  0.00    +0.000 C 
ATOM      8  C   UNL     1       2.835   4.030  20.461  0.00  0.00    +0.000 C 
ATOM      9  C   UNL     1       1.488   3.946  21.216  0.00  0.00    +0.000 C 
ATOM     10  C   UNL     1       2.825   2.929  19.416  0.00  0.00    +0.000 C 
ATOM     11  O   UNL     1       2.425   1.797  19.672  0.00  0.00    +0.000 OA
ATOM     12  O   UNL     1       3.248   3.230  18.171  0.00  0.00    +0.000 OA
ATOM     13  C   UNL     1       4.288   4.202  18.054  0.00  0.00    +0.000 C 
ATOM     14  C   UNL     1       4.705   4.351  16.574  0.00  0.00    +0.000 C 
ATOM     15  C   UNL     1       4.966   3.062  15.789  0.00  0.00    +0.000 C 
ENDROOT
BRANCH   1  16
ATOM     16  O   UNL     1       5.838   5.790  15.056  0.00  0.00    +0.000 OA
BRANCH  16  17
ATOM     17  C   UNL     1       6.668   5.140  14.210  0.00  0.00    +0.000 C 
ATOM     18  O   UNL     1       7.890   5.187  14.231  0.00  0.00    +0.000 OA
BRANCH  17  20
ATOM     19  C   UNL     1       6.409   3.399  12.434  0.00  0.00    +0.000 C 
ATOM     20  C   UNL     1       5.897   4.354  13.231  0.00  0.00    +0.000 C 
BRANCH  19  21
ATOM     21  C   UNL     1       5.614   2.697  11.373  0.00  0.00    +0.000 C 
BRANCH  21  22
ATOM     22  O   UNL     1       5.965   1.317  11.422  0.00  0.00    +0.000 OA
ATOM     23  H   UNL     1       6.483   1.106  10.628  0.00  0.00    +0.000 HD
ENDBRANCH  21  22
BRANCH  21  24
ATOM     24  C   UNL     1       4.093   2.829  11.539  0.00  0.00    +0.000 C 
BRANCH  24  25
ATOM     25  C   UNL     1       3.352   3.039  10.217  0.00  0.00    +0.000 C 
BRANCH  25  27
ATOM     26  C   UNL     1       2.449   4.778   8.626  0.00  0.00    +0.000 C 
ATOM     27  C   UNL     1       2.951   4.503  10.035  0.00  0.00    +0.000 C 
ENDBRANCH  25  27
ENDBRANCH  24  25
ENDBRANCH  21  24
ENDBRANCH  19  21
ENDBRANCH  17  20
ENDBRANCH  16  17
ENDBRANCH   1  16
BRANCH   7  28
ATOM     28  O   UNL     1       1.850   6.177  19.959  0.00  0.00    +0.000 OA
BRANCH  28  29
ATOM     29  C   UNL     1       1.818   7.492  20.307  0.00  0.00    +0.000 C 
ATOM     30  C   UNL     1       0.867   7.699  21.456  0.00  0.00    +0.000 C 
ATOM     31  O   UNL     1       2.407   8.390  19.733  0.00  0.00    +0.000 OA
ENDBRANCH  28  29
ENDBRANCH   7  28
TORSDOF 10
ENDMDL
MODEL 4
REMARK VINA RESULT:      -6.7      6.875     10.364
REMARK  Name = 
REMARK  16 active torsions:
REMARK  status: ('A' for Active; 'I' for Inactive)
REMARK    1  A    between atoms: C_1  and  C_2
REMARK    2  A    between atoms: C_2  and  C_3
REMARK    3  A    between atoms: C_3  and  C_4
REMARK    4  A    between atoms: C_4  and  C_5
REMARK    5  A    between atoms: C_5  and  O_6
REMARK    6  A    between atoms: C_5  and  C_7
REMARK    7  A    between atoms: C_8  and  C_9
REMARK    8  A    between atoms: C_9  and  O_11
REMARK    9  A    between atoms: O_11  and  C_12
REMARK   10  A    between atoms: C_13  and  C_14
REMARK   11  A    between atoms: C_16  and  C_17
REMARK   12  A    between atoms: C_18  and  O_19
REMARK   13  A    between atoms: O_19  and  C_20
REMARK   14  A    between atoms: C_20  and  C_21
REMARK   15  A    between atoms: C_23  and  C_24
REMARK   16  A    between atoms: C_29  and  C_30
REMARK                            x       y       z     vdW  Elec       q    Type
REMARK                         _______ _______ _______ _____ _____    ______ ____
ROOT
ATOM      1  C   UNL     1       0.333  11.297  19.463  0.00  0.00    +0.000 C 
ATOM      2  C   UNL     1      -1.156  10.884  19.634  0.00  0.00    +0.000 C 
ATOM      3  C   UNL     1      -1.810  10.476  18.313  0.00  0.00    +0.000 C 
ATOM      4  O   UNL     1      -1.972  11.884  20.285  0.00  0.00    +0.000 OA
ATOM      5  C   UNL     1      -1.429  12.340  21.553  0.00  0.00    +0.000 C 
ATOM      6  C   UNL     1      -1.156  11.118  22.479  0.00  0.00    +0.000 C 
ATOM      7  C   UNL     1      -2.451  13.288  22.283  0.00  0.00    +0.000 C 
ATOM      8  C   UNL     1      -1.909  14.675  22.716  0.00  0.00    +0.000 C 
ATOM      9  C   UNL     1      -2.468  15.111  24.091  0.00  0.00    +0.000 C 
ATOM     10  C   UNL     1      -0.401  14.827  22.785  0.00  0.00    +0.000 C 
ATOM     11  O   UNL     1       0.129  15.813  23.289  0.00  0.00    +0.000 OA
ATOM     12  O   UNL     1       0.362  13.828  22.294  0.00  0.00    +0.000 OA
ATOM     13  C   UNL     1      -0.150  13.109  21.172  0.00  0.00    +0.000 C 
ATOM     14  C   UNL     1       0.889  12.072  20.692  0.00  0.00    +0.000 C 
ATOM     15  C   UNL     1       2.331  12.559  20.516  0.00  0.00    +0.000 C 
ENDROOT
BRANCH   1  16
ATOM     16  O   UNL     1       1.141  10.098  19.388  0.00  0.00    +0.000 OA
BRANCH  16  17
ATOM     17  C   UNL     1       1.769   9.824  18.222  0.00  0.00    +0.000 C 
ATOM     18  O   UNL     1       2.213  10.652  17.439  0.00  0.00    +0.000 OA
BRANCH  17  20
ATOM     19  C   UNL     1       2.954   7.623  18.168  0.00  0.00    +0.000 C 
ATOM     20  C   UNL     1       1.846   8.369  18.006  0.00  0.00    +0.000 C 
BRANCH  19  21
ATOM     21  C   UNL     1       3.020   6.162  17.831  0.00  0.00    +0.000 C 
BRANCH  21  22
ATOM     22  O   UNL     1       4.230   5.654  18.385  0.00  0.00    +0.000 OA
ATOM     23  H   UNL     1       4.955   5.858  17.772  0.00  0.00    +0.000 HD
ENDBRANCH  21  22
BRANCH  21  24
ATOM     24  C   UNL     1       1.841   5.341  18.373  0.00  0.00    +0.000 C 
BRANCH  24  25
ATOM     25  C   UNL     1       2.109   4.726  19.748  0.00  0.00    +0.000 C 
BRANCH  25  27
ATOM     26  C   UNL     1       1.473   2.884  21.353  0.00  0.00    +0.000 C 
ATOM     27  C   UNL     1       1.169   3.552  20.021  0.00  0.00    +0.000 C 
ENDBRANCH  25  27
ENDBRANCH  24  25
ENDBRANCH  21  24
ENDBRANCH  19  21
ENDBRANCH  17  20
ENDBRANCH  16  17
ENDBRANCH   1  16
BRANCH   7  28
ATOM     28  O   UNL     1      -2.952  12.640  23.495  0.00  0.00    +0.000 OA
BRANCH  28  29
ATOM     29  C   UNL     1      -4.289  12.437  23.639  0.00  0.00    +0.000 C 
ATOM     30  C   UNL     1      -5.013  12.854  22.387  0.00  0.00    +0.000 C 
ATOM     31  O   UNL     1      -4.840  12.048  24.653  0.00  0.00    +0.000 OA
ENDBRANCH  28  29
ENDBRANCH   7  28
TORSDOF 10
ENDMDL
MODEL 5
REMARK VINA RESULT:      -6.6      3.258      7.022
REMARK  Name = 
REMARK  16 active torsions:
REMARK  status: ('A' for Active; 'I' for Inactive)
REMARK    1  A    between atoms: C_1  and  C_2
REMARK    2  A    between atoms: C_2  and  C_3
REMARK    3  A    between atoms: C_3  and  C_4
REMARK    4  A    between atoms: C_4  and  C_5
REMARK    5  A    between atoms: C_5  and  O_6
REMARK    6  A    between atoms: C_5  and  C_7
REMARK    7  A    between atoms: C_8  and  C_9
REMARK    8  A    between atoms: C_9  and  O_11
REMARK    9  A    between atoms: O_11  and  C_12
REMARK   10  A    between atoms: C_13  and  C_14
REMARK   11  A    between atoms: C_16  and  C_17
REMARK   12  A    between atoms: C_18  and  O_19
REMARK   13  A    between atoms: O_19  and  C_20
REMARK   14  A    between atoms: C_20  and  C_21
REMARK   15  A    between atoms: C_23  and  C_24
REMARK   16  A    between atoms: C_29  and  C_30
REMARK                            x       y       z     vdW  Elec       q    Type
REMARK                         _______ _______ _______ _____ _____    ______ ____
ROOT
ATOM      1  C   UNL     1       6.230   4.219  17.182  0.00  0.00    +0.000 C 
ATOM      2  C   UNL     1       6.145   5.715  17.593  0.00  0.00    +0.000 C 
ATOM      3  C   UNL     1       7.511   6.310  17.941  0.00  0.00    +0.000 C 
ATOM      4  O   UNL     1       5.219   5.977  18.671  0.00  0.00    +0.000 OA
ATOM      5  C   UNL     1       3.888   5.444  18.434  0.00  0.00    +0.000 C 
ATOM      6  C   UNL     1       3.350   5.962  17.067  0.00  0.00    +0.000 C 
ATOM      7  C   UNL     1       2.895   5.917  19.559  0.00  0.00    +0.000 C 
ATOM      8  C   UNL     1       2.102   4.800  20.287  0.00  0.00    +0.000 C 
ATOM      9  C   UNL     1       0.647   5.226  20.590  0.00  0.00    +0.000 C 
ATOM     10  C   UNL     1       2.032   3.452  19.593  0.00  0.00    +0.000 C 
ATOM     11  O   UNL     1       1.284   2.560  19.984  0.00  0.00    +0.000 OA
ATOM     12  O   UNL     1       2.803   3.256  18.503  0.00  0.00    +0.000 OA
ATOM     13  C   UNL     1       4.069   3.916  18.475  0.00  0.00    +0.000 C 
ATOM     14  C   UNL     1       4.848   3.506  17.205  0.00  0.00    +0.000 C 
ATOM     15  C   UNL     1       4.916   2.011  16.880  0.00  0.00    +0.000 C 
ENDROOT
BRANCH   1  16
ATOM     16  O   UNL     1       6.660   4.140  15.801  0.00  0.00    +0.000 OA
BRANCH  16  17
ATOM     17  C   UNL     1       5.969   4.843  14.876  0.00  0.00    +0.000 C 
ATOM     18  O   UNL     1       5.759   6.048  14.904  0.00  0.00    +0.000 OA
BRANCH  17  20
ATOM     19  C   UNL     1       6.127   3.709  12.653  0.00  0.00    +0.000 C 
ATOM     20  C   UNL     1       5.482   3.953  13.808  0.00  0.00    +0.000 C 
BRANCH  19  21
ATOM     21  C   UNL     1       5.548   2.883  11.543  0.00  0.00    +0.000 C 
BRANCH  21  22
ATOM     22  O   UNL     1       5.868   1.522  11.815  0.00  0.00    +0.000 OA
ATOM     23  H   UNL     1       5.399   0.964  11.172  0.00  0.00    +0.000 HD
ENDBRANCH  21  22
BRANCH  21  24
ATOM     24  C   UNL     1       4.025   3.016  11.393  0.00  0.00    +0.000 C 
BRANCH  24  25
ATOM     25  C   UNL     1       3.594   4.298  10.677  0.00  0.00    +0.000 C 
BRANCH  25  27
ATOM     26  C   UNL     1       2.026   5.042   8.844  0.00  0.00    +0.000 C 
ATOM     27  C   UNL     1       3.033   3.993   9.288  0.00  0.00    +0.000 C 
ENDBRANCH  25  27
ENDBRANCH  24  25
ENDBRANCH  21  24
ENDBRANCH  19  21
ENDBRANCH  17  20
ENDBRANCH  16  17
ENDBRANCH   1  16
BRANCH   7  28
ATOM     28  O   UNL     1       1.901   6.831  18.995  0.00  0.00    +0.000 OA
BRANCH  28  29
ATOM     29  C   UNL     1       1.917   8.141  19.361  0.00  0.00    +0.000 C 
ATOM     30  C   UNL     1       2.299   9.001  18.186  0.00  0.00    +0.000 C 
ATOM     31  O   UNL     1       1.727   8.563  20.487  0.00  0.00    +0.000 OA
ENDBRANCH  28  29
ENDBRANCH   7  28
TORSDOF 10
ENDMDL
MODEL 6
REMARK VINA RESULT:      -6.6      3.702      7.346
REMARK  Name = 
REMARK  16 active torsions:
REMARK  status: ('A' for Active; 'I' for Inactive)
REMARK    1  A    between atoms: C_1  and  C_2
REMARK    2  A    between atoms: C_2  and  C_3
REMARK    3  A    between atoms: C_3  and  C_4
REMARK    4  A    between atoms: C_4  and  C_5
REMARK    5  A    between atoms: C_5  and  O_6
REMARK    6  A    between atoms: C_5  and  C_7
REMARK    7  A    between atoms: C_8  and  C_9
REMARK    8  A    between atoms: C_9  and  O_11
REMARK    9  A    between atoms: O_11  and  C_12
REMARK   10  A    between atoms: C_13  and  C_14
REMARK   11  A    between atoms: C_16  and  C_17
REMARK   12  A    between atoms: C_18  and  O_19
REMARK   13  A    between atoms: O_19  and  C_20
REMARK   14  A    between atoms: C_20  and  C_21
REMARK   15  A    between atoms: C_23  and  C_24
REMARK   16  A    between atoms: C_29  and  C_30
REMARK                            x       y       z     vdW  Elec       q    Type
REMARK                         _______ _______ _______ _____ _____    ______ ____
ROOT
ATOM      1  C   UNL     1       1.938   7.290  19.342  0.00  0.00    +0.000 C 
ATOM      2  C   UNL     1       2.914   7.906  18.300  0.00  0.00    +0.000 C 
ATOM      3  C   UNL     1       2.333   9.138  17.604  0.00  0.00    +0.000 C 
ATOM      4  O   UNL     1       3.379   6.966  17.304  0.00  0.00    +0.000 OA
ATOM      5  C   UNL     1       3.946   5.755  17.870  0.00  0.00    +0.000 C 
ATOM      6  C   UNL     1       5.065   6.124  18.889  0.00  0.00    +0.000 C 
ATOM      7  C   UNL     1       4.588   4.866  16.742  0.00  0.00    +0.000 C 
ATOM      8  C   UNL     1       4.109   3.392  16.677  0.00  0.00    +0.000 C 
ATOM      9  C   UNL     1       5.265   2.423  16.337  0.00  0.00    +0.000 C 
ATOM     10  C   UNL     1       3.423   2.842  17.913  0.00  0.00    +0.000 C 
ATOM     11  O   UNL     1       3.172   1.647  18.038  0.00  0.00    +0.000 OA
ATOM     12  O   UNL     1       3.108   3.705  18.902  0.00  0.00    +0.000 OA
ATOM     13  C   UNL     1       2.751   5.033  18.519  0.00  0.00    +0.000 C 
ATOM     14  C   UNL     1       2.336   5.847  19.764  0.00  0.00    +0.000 C 
ATOM     15  C   UNL     1       1.346   5.189  20.731  0.00  0.00    +0.000 C 
ENDROOT
BRANCH   1  16
ATOM     16  O   UNL     1       2.014   8.065  20.563  0.00  0.00    +0.000 OA
BRANCH  16  17
ATOM     17  C   UNL     1       0.891   8.675  21.003  0.00  0.00    +0.000 C 
ATOM     18  O   UNL     1       0.284   8.400  22.029  0.00  0.00    +0.000 OA
BRANCH  17  20
ATOM     19  C   UNL     1      -0.702  10.381  20.106  0.00  0.00    +0.000 C 
ATOM     20  C   UNL     1       0.477   9.734  20.066  0.00  0.00    +0.000 C 
BRANCH  19  21
ATOM     21  C   UNL     1      -1.132  11.376  19.068  0.00  0.00    +0.000 C 
BRANCH  21  22
ATOM     22  O   UNL     1      -0.002  11.644  18.243  0.00  0.00    +0.000 OA
ATOM     23  H   UNL     1       0.801  11.517  18.775  0.00  0.00    +0.000 HD
ENDBRANCH  21  22
BRANCH  21  24
ATOM     24  C   UNL     1      -2.291  10.896  18.184  0.00  0.00    +0.000 C 
BRANCH  24  25
ATOM     25  C   UNL     1      -1.864   9.888  17.114  0.00  0.00    +0.000 C 
BRANCH  25  27
ATOM     26  C   UNL     1      -3.846  11.025  16.042  0.00  0.00    +0.000 C 
ATOM     27  C   UNL     1      -2.715  10.028  15.852  0.00  0.00    +0.000 C 
ENDBRANCH  25  27
ENDBRANCH  24  25
ENDBRANCH  21  24
ENDBRANCH  19  21
ENDBRANCH  17  20
ENDBRANCH  16  17
ENDBRANCH   1  16
BRANCH   7  28
ATOM     28  O   UNL     1       6.041   4.824  16.907  0.00  0.00    +0.000 OA
BRANCH  28  29
ATOM     29  C   UNL     1       6.829   5.549  16.069  0.00  0.00    +0.000 C 
ATOM     30  C   UNL     1       6.763   4.981  14.676  0.00  0.00    +0.000 C 
ATOM     31  O   UNL     1       7.547   6.476  16.398  0.00  0.00    +0.000 OA
ENDBRANCH  28  29
ENDBRANCH   7  28
TORSDOF 10
ENDMDL
MODEL 7
REMARK VINA RESULT:      -6.6      6.653     10.264
REMARK  Name = 
REMARK  16 active torsions:
REMARK  status: ('A' for Active; 'I' for Inactive)
REMARK    1  A    between atoms: C_1  and  C_2
REMARK    2  A    between atoms: C_2  and  C_3
REMARK    3  A    between atoms: C_3  and  C_4
REMARK    4  A    between atoms: C_4  and  C_5
REMARK    5  A    between atoms: C_5  and  O_6
REMARK    6  A    between atoms: C_5  and  C_7
REMARK    7  A    between atoms: C_8  and  C_9
REMARK    8  A    between atoms: C_9  and  O_11
REMARK    9  A    between atoms: O_11  and  C_12
REMARK   10  A    between atoms: C_13  and  C_14
REMARK   11  A    between atoms: C_16  and  C_17
REMARK   12  A    between atoms: C_18  and  O_19
REMARK   13  A    between atoms: O_19  and  C_20
REMARK   14  A    between atoms: C_20  and  C_21
REMARK   15  A    between atoms: C_23  and  C_24
REMARK   16  A    between atoms: C_29  and  C_30
REMARK                            x       y       z     vdW  Elec       q    Type
REMARK                         _______ _______ _______ _____ _____    ______ ____
ROOT
ATOM      1  C   UNL     1       0.234  10.065  19.719  0.00  0.00    +0.000 C 
ATOM      2  C   UNL     1       0.469  10.671  21.131  0.00  0.00    +0.000 C 
ATOM      3  C   UNL     1       1.155   9.693  22.086  0.00  0.00    +0.000 C 
ATOM      4  O   UNL     1      -0.728  11.190  21.754  0.00  0.00    +0.000 OA
ATOM      5  C   UNL     1      -1.455  12.130  20.918  0.00  0.00    +0.000 C 
ATOM      6  C   UNL     1      -0.500  13.269  20.453  0.00  0.00    +0.000 C 
ATOM      7  C   UNL     1      -2.639  12.784  21.723  0.00  0.00    +0.000 C 
ATOM      8  C   UNL     1      -4.044  12.690  21.073  0.00  0.00    +0.000 C 
ATOM      9  C   UNL     1      -4.866  13.982  21.282  0.00  0.00    +0.000 C 
ATOM     10  C   UNL     1      -4.088  12.374  19.589  0.00  0.00    +0.000 C 
ATOM     11  O   UNL     1      -5.127  12.458  18.940  0.00  0.00    +0.000 OA
ATOM     12  O   UNL     1      -2.938  12.017  18.980  0.00  0.00    +0.000 OA
ATOM     13  C   UNL     1      -1.994  11.278  19.755  0.00  0.00    +0.000 C 
ATOM     14  C   UNL     1      -0.788  10.878  18.875  0.00  0.00    +0.000 C 
ATOM     15  C   UNL     1      -1.097  10.258  17.508  0.00  0.00    +0.000 C 
ENDROOT
BRANCH   1  16
ATOM     16  O   UNL     1       1.471  10.140  18.970  0.00  0.00    +0.000 OA
BRANCH  16  17
ATOM     17  C   UNL     1       1.891   9.033  18.319  0.00  0.00    +0.000 C 
ATOM     18  O   UNL     1       2.144   8.960  17.124  0.00  0.00    +0.000 OA
BRANCH  17  20
ATOM     19  C   UNL     1       2.542   6.702  18.946  0.00  0.00    +0.000 C 
ATOM     20  C   UNL     1       2.003   7.897  19.249  0.00  0.00    +0.000 C 
BRANCH  19  21
ATOM     21  C   UNL     1       2.537   5.533  19.887  0.00  0.00    +0.000 C 
BRANCH  21  22
ATOM     22  O   UNL     1       1.928   5.966  21.100  0.00  0.00    +0.000 OA
ATOM     23  H   UNL     1       1.540   6.844  20.949  0.00  0.00    +0.000 HD
ENDBRANCH  21  22
BRANCH  21  24
ATOM     24  C   UNL     1       1.778   4.307  19.359  0.00  0.00    +0.000 C 
BRANCH  24  25
ATOM     25  C   UNL     1       1.619   4.299  17.837  0.00  0.00    +0.000 C 
BRANCH  25  27
ATOM     26  C   UNL     1       2.756   2.047  17.922  0.00  0.00    +0.000 C 
ATOM     27  C   UNL     1       2.639   3.369  17.180  0.00  0.00    +0.000 C 
ENDBRANCH  25  27
ENDBRANCH  24  25
ENDBRANCH  21  24
ENDBRANCH  19  21
ENDBRANCH  17  20
ENDBRANCH  16  17
ENDBRANCH   1  16
BRANCH   7  28
ATOM     28  O   UNL     1      -2.373  14.207  21.932  0.00  0.00    +0.000 OA
BRANCH  28  29
ATOM     29  C   UNL     1      -1.974  14.638  23.159  0.00  0.00    +0.000 C 
ATOM     30  C   UNL     1      -2.421  16.059  23.379  0.00  0.00    +0.000 C 
ATOM     31  O   UNL     1      -1.289  14.006  23.943  0.00  0.00    +0.000 OA
ENDBRANCH  28  29
ENDBRANCH   7  28
TORSDOF 10
ENDMDL
MODEL 8
REMARK VINA RESULT:      -6.5      3.589      7.235
REMARK  Name = 
REMARK  16 active torsions:
REMARK  status: ('A' for Active; 'I' for Inactive)
REMARK    1  A    between atoms: C_1  and  C_2
REMARK    2  A    between atoms: C_2  and  C_3
REMARK    3  A    between atoms: C_3  and  C_4
REMARK    4  A    between atoms: C_4  and  C_5
REMARK    5  A    between atoms: C_5  and  O_6
REMARK    6  A    between atoms: C_5  and  C_7
REMARK    7  A    between atoms: C_8  and  C_9
REMARK    8  A    between atoms: C_9  and  O_11
REMARK    9  A    between atoms: O_11  and  C_12
REMARK   10  A    between atoms: C_13  and  C_14
REMARK   11  A    between atoms: C_16  and  C_17
REMARK   12  A    between atoms: C_18  and  O_19
REMARK   13  A    between atoms: O_19  and  C_20
REMARK   14  A    between atoms: C_20  and  C_21
REMARK   15  A    between atoms: C_23  and  C_24
REMARK   16  A    between atoms: C_29  and  C_30
REMARK                            x       y       z     vdW  Elec       q    Type
REMARK                         _______ _______ _______ _____ _____    ______ ____
ROOT
ATOM      1  C   UNL     1       1.666   7.120  19.574  0.00  0.00    +0.000 C 
ATOM      2  C   UNL     1       2.666   7.905  18.679  0.00  0.00    +0.000 C 
ATOM      3  C   UNL     1       2.054   9.176  18.087  0.00  0.00    +0.000 C 
ATOM      4  O   UNL     1       3.251   7.115  17.620  0.00  0.00    +0.000 OA
ATOM      5  C   UNL     1       3.857   5.879  18.085  0.00  0.00    +0.000 C 
ATOM      6  C   UNL     1       4.883   6.189  19.215  0.00  0.00    +0.000 C 
ATOM      7  C   UNL     1       4.624   5.164  16.912  0.00  0.00    +0.000 C 
ATOM      8  C   UNL     1       4.244   3.683  16.648  0.00  0.00    +0.000 C 
ATOM      9  C   UNL     1       5.478   2.825  16.284  0.00  0.00    +0.000 C 
ATOM     10  C   UNL     1       3.516   2.957  17.764  0.00  0.00    +0.000 C 
ATOM     11  O   UNL     1       3.334   1.743  17.736  0.00  0.00    +0.000 OA
ATOM     12  O   UNL     1       3.085   3.680  18.819  0.00  0.00    +0.000 OA
ATOM     13  C   UNL     1       2.670   5.022  18.562  0.00  0.00    +0.000 C 
ATOM     14  C   UNL     1       2.127   5.662  19.859  0.00  0.00    +0.000 C 
ATOM     15  C   UNL     1       1.121   4.842  20.674  0.00  0.00    +0.000 C 
ENDROOT
BRANCH   1  16
ATOM     16  O   UNL     1       1.616   7.750  20.877  0.00  0.00    +0.000 OA
BRANCH  16  17
ATOM     17  C   UNL     1       0.471   8.368  21.243  0.00  0.00    +0.000 C 
ATOM     18  O   UNL     1      -0.499   7.829  21.759  0.00  0.00    +0.000 OA
BRANCH  17  20
ATOM     19  C   UNL     1      -0.506  10.557  20.532  0.00  0.00    +0.000 C 
ATOM     20  C   UNL     1       0.537   9.806  20.930  0.00  0.00    +0.000 C 
BRANCH  19  21
ATOM     21  C   UNL     1      -0.377  11.993  20.116  0.00  0.00    +0.000 C 
BRANCH  21  22
ATOM     22  O   UNL     1       0.924  12.430  20.497  0.00  0.00    +0.000 OA
ATOM     23  H   UNL     1       0.853  13.336  20.840  0.00  0.00    +0.000 HD
ENDBRANCH  21  22
BRANCH  21  24
ATOM     24  C   UNL     1      -0.559  12.227  18.609  0.00  0.00    +0.000 C 
BRANCH  24  25
ATOM     25  C   UNL     1      -1.953  11.853  18.100  0.00  0.00    +0.000 C 
BRANCH  25  27
ATOM     26  C   UNL     1      -3.145   9.690  17.580  0.00  0.00    +0.000 C 
ATOM     27  C   UNL     1      -1.919  10.546  17.308  0.00  0.00    +0.000 C 
ENDBRANCH  25  27
ENDBRANCH  24  25
ENDBRANCH  21  24
ENDBRANCH  19  21
ENDBRANCH  17  20
ENDBRANCH  16  17
ENDBRANCH   1  16
BRANCH   7  28
ATOM     28  O   UNL     1       6.063   5.183  17.173  0.00  0.00    +0.000 OA
BRANCH  28  29
ATOM     29  C   UNL     1       6.873   5.945  16.389  0.00  0.00    +0.000 C 
ATOM     30  C   UNL     1       7.538   7.012  17.216  0.00  0.00    +0.000 C 
ATOM     31  O   UNL     1       6.992   5.839  15.181  0.00  0.00    +0.000 OA
ENDBRANCH  28  29
ENDBRANCH   7  28
TORSDOF 10
ENDMDL
MODEL 9
REMARK VINA RESULT:      -6.5      6.891     10.409
REMARK  Name = 
REMARK  16 active torsions:
REMARK  status: ('A' for Active; 'I' for Inactive)
REMARK    1  A    between atoms: C_1  and  C_2
REMARK    2  A    between atoms: C_2  and  C_3
REMARK    3  A    between atoms: C_3  and  C_4
REMARK    4  A    between atoms: C_4  and  C_5
REMARK    5  A    between atoms: C_5  and  O_6
REMARK    6  A    between atoms: C_5  and  C_7
REMARK    7  A    between atoms: C_8  and  C_9
REMARK    8  A    between atoms: C_9  and  O_11
REMARK    9  A    between atoms: O_11  and  C_12
REMARK   10  A    between atoms: C_13  and  C_14
REMARK   11  A    between atoms: C_16  and  C_17
REMARK   12  A    between atoms: C_18  and  O_19
REMARK   13  A    between atoms: O_19  and  C_20
REMARK   14  A    between atoms: C_20  and  C_21
REMARK   15  A    between atoms: C_23  and  C_24
REMARK   16  A    between atoms: C_29  and  C_30
REMARK                            x       y       z     vdW  Elec       q    Type
REMARK                         _______ _______ _______ _____ _____    ______ ____
ROOT
ATOM      1  C   UNL     1       0.304  11.289  19.410  0.00  0.00    +0.000 C 
ATOM      2  C   UNL     1      -1.209  10.980  19.595  0.00  0.00    +0.000 C 
ATOM      3  C   UNL     1      -1.898  10.603  18.282  0.00  0.00    +0.000 C 
ATOM      4  O   UNL     1      -1.950  12.040  20.240  0.00  0.00    +0.000 OA
ATOM      5  C   UNL     1      -1.368  12.472  21.499  0.00  0.00    +0.000 C 
ATOM      6  C   UNL     1      -1.173  11.244  22.437  0.00  0.00    +0.000 C 
ATOM      7  C   UNL     1      -2.318  13.494  22.225  0.00  0.00    +0.000 C 
ATOM      8  C   UNL     1      -1.681  14.846  22.639  0.00  0.00    +0.000 C 
ATOM      9  C   UNL     1      -2.199  15.333  24.012  0.00  0.00    +0.000 C 
ATOM     10  C   UNL     1      -0.165  14.896  22.697  0.00  0.00    +0.000 C 
ATOM     11  O   UNL     1       0.434  15.849  23.186  0.00  0.00    +0.000 OA
ATOM     12  O   UNL     1       0.525  13.842  22.212  0.00  0.00    +0.000 OA
ATOM     13  C   UNL     1      -0.043  13.147  21.101  0.00  0.00    +0.000 C 
ATOM     14  C   UNL     1       0.920  12.037  20.626  0.00  0.00    +0.000 C 
ATOM     15  C   UNL     1       2.391  12.423  20.436  0.00  0.00    +0.000 C 
ENDROOT
BRANCH   1  16
ATOM     16  O   UNL     1       1.028  10.037  19.343  0.00  0.00    +0.000 OA
BRANCH  16  17
ATOM     17  C   UNL     1       1.738   9.770  18.224  0.00  0.00    +0.000 C 
ATOM     18  O   UNL     1       2.111  10.595  17.401  0.00  0.00    +0.000 OA
BRANCH  17  20
ATOM     19  C   UNL     1       2.548   7.566  19.085  0.00  0.00    +0.000 C 
ATOM     20  C   UNL     1       2.007   8.326  18.115  0.00  0.00    +0.000 C 
BRANCH  19  21
ATOM     21  C   UNL     1       2.908   6.122  18.896  0.00  0.00    +0.000 C 
BRANCH  21  22
ATOM     22  O   UNL     1       3.083   5.556  20.192  0.00  0.00    +0.000 OA
ATOM     23  H   UNL     1       3.225   4.600  20.090  0.00  0.00    +0.000 HD
ENDBRANCH  21  22
BRANCH  21  24
ATOM     24  C   UNL     1       1.853   5.307  18.135  0.00  0.00    +0.000 C 
BRANCH  24  25
ATOM     25  C   UNL     1       2.430   4.089  17.411  0.00  0.00    +0.000 C 
BRANCH  25  27
ATOM     26  C   UNL     1       3.251   1.852  18.243  0.00  0.00    +0.000 C 
ATOM     27  C   UNL     1       2.061   2.792  18.131  0.00  0.00    +0.000 C 
ENDBRANCH  25  27
ENDBRANCH  24  25
ENDBRANCH  21  24
ENDBRANCH  19  21
ENDBRANCH  17  20
ENDBRANCH  16  17
ENDBRANCH   1  16
BRANCH   7  28
ATOM     28  O   UNL     1      -2.854  12.895  23.448  0.00  0.00    +0.000 OA
BRANCH  28  29
ATOM     29  C   UNL     1      -4.170  12.557  23.504  0.00  0.00    +0.000 C 
ATOM     30  C   UNL     1      -4.601  12.396  24.937  0.00  0.00    +0.000 C 
ATOM     31  O   UNL     1      -4.886  12.339  22.543  0.00  0.00    +0.000 OA
ENDBRANCH  28  29
ENDBRANCH   7  28
TORSDOF 10
ENDMDL
