MODEL 1
REMARK VINA RESULT:      -7.5      0.000      0.000
REMARK  Name = 
REMARK  13 active torsions:
REMARK  status: ('A' for Active; 'I' for Inactive)
REMARK    1  A    between atoms: O_1  and  C_2
REMARK    2  A    between atoms: C_2  and  C_3
REMARK    3  A    between atoms: C_5  and  O_6
REMARK    4  A    between atoms: O_6  and  C_7
REMARK    5  A    between atoms: C_10  and  C_11
REMARK    6  A    between atoms: C_11  and  O_12
REMARK    7  A    between atoms: C_13  and  O_14
REMARK    8  A    between atoms: C_15  and  O_16
REMARK    9  A    between atoms: C_17  and  O_18
REMARK   10  A    between atoms: C_19  and  O_20
REMARK   11  A    between atoms: O_20  and  C_21
REMARK   12  A    between atoms: C_21  and  C_22
REMARK   13  A    between atoms: C_28  and  O_29
REMARK                            x       y       z     vdW  Elec       q    Type
REMARK                         _______ _______ _______ _____ _____    ______ ____
ROOT
ATOM      1  C   UNL     1       6.848   6.106  18.110  0.00  0.00    +0.000 C 
ATOM      2  O   UNL     1       5.798   7.040  17.816  0.00  0.00    +0.000 OA
ATOM      3  C   UNL     1       4.553   6.431  17.484  0.00  0.00    +0.000 C 
ATOM      4  C   UNL     1       4.704   5.607  16.185  0.00  0.00    +0.000 C 
ATOM      5  C   UNL     1       5.724   4.471  16.392  0.00  0.00    +0.000 C 
ATOM      6  C   UNL     1       7.025   5.072  16.975  0.00  0.00    +0.000 C 
ENDROOT
BRANCH   4   7
ATOM      7  O   UNL     1       5.155   6.408  15.076  0.00  0.00    +0.000 OA
ATOM      8  H   UNL     1       4.375   6.590  14.521  0.00  0.00    +0.000 HD
ENDBRANCH   4   7
BRANCH   6   9
ATOM      9  O   UNL     1       8.050   4.118  17.232  0.00  0.00    +0.000 OA
ATOM     10  H   UNL     1       8.197   4.041  18.189  0.00  0.00    +0.000 HD
ENDBRANCH   6   9
BRANCH   1  11
ATOM     11  C   UNL     1       6.780   5.589  19.559  0.00  0.00    +0.000 C 
BRANCH  11  12
ATOM     12  O   UNL     1       8.043   5.501  20.200  0.00  0.00    +0.000 OA
ATOM     13  H   UNL     1       7.934   5.714  21.143  0.00  0.00    +0.000 HD
ENDBRANCH  11  12
ENDBRANCH   1  11
BRANCH   3  14
ATOM     14  O   UNL     1       3.563   7.444  17.267  0.00  0.00    +0.000 OA
BRANCH  14  15
ATOM     15  C   UNL     1       3.051   8.032  18.474  0.00  0.00    +0.000 C 
ATOM     16  C   UNL     1       2.593   6.977  19.490  0.00  0.00    +0.000 C 
ATOM     17  O   UNL     1       2.019   7.578  20.650  0.00  0.00    +0.000 OA
ATOM     18  C   UNL     1       0.833   8.330  20.348  0.00  0.00    +0.000 C 
ATOM     19  C   UNL     1       1.141   9.468  19.370  0.00  0.00    +0.000 C 
ATOM     20  C   UNL     1       1.843   8.921  18.110  0.00  0.00    +0.000 C 
BRANCH  19  21
ATOM     21  O   UNL     1      -0.064  10.165  19.038  0.00  0.00    +0.000 OA
ATOM     22  H   UNL     1      -0.194  10.885  19.681  0.00  0.00    +0.000 HD
ENDBRANCH  19  21
BRANCH  20  23
ATOM     23  O   UNL     1       2.234  10.018  17.269  0.00  0.00    +0.000 OA
ATOM     24  H   UNL     1       2.132   9.746  16.342  0.00  0.00    +0.000 HD
ENDBRANCH  20  23
BRANCH  18  25
ATOM     25  C   UNL     1       0.291   8.862  21.681  0.00  0.00    +0.000 C 
BRANCH  25  26
ATOM     26  O   UNL     1       0.914  10.114  21.976  0.00  0.00    +0.000 OA
ATOM     27  H   UNL     1       0.423  10.474  22.741  0.00  0.00    +0.000 HD
ENDBRANCH  25  26
ENDBRANCH  18  25
ENDBRANCH  14  15
ENDBRANCH   3  14
BRANCH   5  28
ATOM     28  O   UNL     1       5.172   3.353  17.143  0.00  0.00    +0.000 OA
BRANCH  28  29
ATOM     29  C   UNL     1       3.722   3.473  17.145  0.00  0.00    +0.000 C 
BRANCH  29  30
ATOM     30  C   UNL     1       2.971   3.279  18.437  0.00  0.00    +0.000 A 
ATOM     31  C   UNL     1       3.577   3.012  19.661  0.00  0.00    +0.000 A 
ATOM     32  C   UNL     1       2.788   2.862  20.810  0.00  0.00    +0.000 A 
ATOM     33  C   UNL     1       1.394   2.957  20.742  0.00  0.00    +0.000 A 
ATOM     34  C   UNL     1       0.784   3.240  19.528  0.00  0.00    +0.000 A 
ATOM     35  C   UNL     1       1.565   3.391  18.388  0.00  0.00    +0.000 A 
ENDBRANCH  29  30
ENDBRANCH  28  29
ENDBRANCH   5  28
TORSDOF 13
ENDMDL
MODEL 2
REMARK VINA RESULT:      -7.5      2.167      4.926
REMARK  Name = 
REMARK  13 active torsions:
REMARK  status: ('A' for Active; 'I' for Inactive)
REMARK    1  A    between atoms: O_1  and  C_2
REMARK    2  A    between atoms: C_2  and  C_3
REMARK    3  A    between atoms: C_5  and  O_6
REMARK    4  A    between atoms: O_6  and  C_7
REMARK    5  A    between atoms: C_10  and  C_11
REMARK    6  A    between atoms: C_11  and  O_12
REMARK    7  A    between atoms: C_13  and  O_14
REMARK    8  A    between atoms: C_15  and  O_16
REMARK    9  A    between atoms: C_17  and  O_18
REMARK   10  A    between atoms: C_19  and  O_20
REMARK   11  A    between atoms: O_20  and  C_21
REMARK   12  A    between atoms: C_21  and  C_22
REMARK   13  A    between atoms: C_28  and  O_29
REMARK                            x       y       z     vdW  Elec       q    Type
REMARK                         _______ _______ _______ _____ _____    ______ ____
ROOT
ATOM      1  C   UNL     1       2.913   3.590  19.492  0.00  0.00    +0.000 C 
ATOM      2  O   UNL     1       2.971   5.006  19.719  0.00  0.00    +0.000 OA
ATOM      3  C   UNL     1       3.534   5.747  18.639  0.00  0.00    +0.000 C 
ATOM      4  C   UNL     1       5.009   5.335  18.436  0.00  0.00    +0.000 C 
ATOM      5  C   UNL     1       5.096   3.844  18.057  0.00  0.00    +0.000 C 
ATOM      6  C   UNL     1       4.293   3.020  19.092  0.00  0.00    +0.000 C 
ENDROOT
BRANCH   4   7
ATOM      7  O   UNL     1       5.804   5.536  19.620  0.00  0.00    +0.000 OA
ATOM      8  H   UNL     1       5.575   6.416  19.971  0.00  0.00    +0.000 HD
ENDBRANCH   4   7
BRANCH   6   9
ATOM      9  O   UNL     1       4.279   1.619  18.845  0.00  0.00    +0.000 OA
ATOM     10  H   UNL     1       3.381   1.335  18.605  0.00  0.00    +0.000 HD
ENDBRANCH   6   9
BRANCH   1  11
ATOM     11  C   UNL     1       1.690   3.185  18.649  0.00  0.00    +0.000 C 
BRANCH  11  12
ATOM     12  O   UNL     1       2.003   2.830  17.311  0.00  0.00    +0.000 OA
ATOM     13  H   UNL     1       2.848   2.346  17.302  0.00  0.00    +0.000 HD
ENDBRANCH  11  12
ENDBRANCH   1  11
BRANCH   3  14
ATOM     14  O   UNL     1       3.492   7.147  18.942  0.00  0.00    +0.000 OA
BRANCH  14  15
ATOM     15  C   UNL     1       2.179   7.727  18.855  0.00  0.00    +0.000 C 
ATOM     16  C   UNL     1       2.106   8.857  17.821  0.00  0.00    +0.000 C 
ATOM     17  O   UNL     1       0.818   9.471  17.801  0.00  0.00    +0.000 OA
ATOM     18  C   UNL     1       0.492  10.100  19.051  0.00  0.00    +0.000 C 
ATOM     19  C   UNL     1       0.475   9.076  20.191  0.00  0.00    +0.000 C 
ATOM     20  C   UNL     1       1.807   8.301  20.239  0.00  0.00    +0.000 C 
BRANCH  19  21
ATOM     21  O   UNL     1       0.206   9.735  21.433  0.00  0.00    +0.000 OA
ATOM     22  H   UNL     1       0.104   9.060  22.128  0.00  0.00    +0.000 HD
ENDBRANCH  19  21
BRANCH  20  23
ATOM     23  O   UNL     1       1.718   7.264  21.229  0.00  0.00    +0.000 OA
ATOM     24  H   UNL     1       2.449   6.639  21.085  0.00  0.00    +0.000 HD
ENDBRANCH  20  23
BRANCH  18  25
ATOM     25  C   UNL     1      -0.879  10.766  18.869  0.00  0.00    +0.000 C 
BRANCH  25  26
ATOM     26  O   UNL     1      -0.826  11.657  17.754  0.00  0.00    +0.000 OA
ATOM     27  H   UNL     1      -1.739  11.697  17.409  0.00  0.00    +0.000 HD
ENDBRANCH  25  26
ENDBRANCH  18  25
ENDBRANCH  14  15
ENDBRANCH   3  14
BRANCH   5  28
ATOM     28  O   UNL     1       4.743   3.597  16.667  0.00  0.00    +0.000 OA
BRANCH  28  29
ATOM     29  C   UNL     1       5.213   4.720  15.869  0.00  0.00    +0.000 C 
BRANCH  29  30
ATOM     30  C   UNL     1       5.831   4.454  14.520  0.00  0.00    +0.000 A 
ATOM     31  C   UNL     1       5.259   3.646  13.544  0.00  0.00    +0.000 A 
ATOM     32  C   UNL     1       5.910   3.473  12.315  0.00  0.00    +0.000 A 
ATOM     33  C   UNL     1       7.139   4.089  12.060  0.00  0.00    +0.000 A 
ATOM     34  C   UNL     1       7.708   4.910  13.022  0.00  0.00    +0.000 A 
ATOM     35  C   UNL     1       7.063   5.084  14.242  0.00  0.00    +0.000 A 
ENDBRANCH  29  30
ENDBRANCH  28  29
ENDBRANCH   5  28
TORSDOF 13
ENDMDL
MODEL 3
REMARK VINA RESULT:      -7.5      2.214      4.912
REMARK  Name = 
REMARK  13 active torsions:
REMARK  status: ('A' for Active; 'I' for Inactive)
REMARK    1  A    between atoms: O_1  and  C_2
REMARK    2  A    between atoms: C_2  and  C_3
REMARK    3  A    between atoms: C_5  and  O_6
REMARK    4  A    between atoms: O_6  and  C_7
REMARK    5  A    between atoms: C_10  and  C_11
REMARK    6  A    between atoms: C_11  and  O_12
REMARK    7  A    between atoms: C_13  and  O_14
REMARK    8  A    between atoms: C_15  and  O_16
REMARK    9  A    between atoms: C_17  and  O_18
REMARK   10  A    between atoms: C_19  and  O_20
REMARK   11  A    between atoms: O_20  and  C_21
REMARK   12  A    between atoms: C_21  and  C_22
REMARK   13  A    between atoms: C_28  and  O_29
REMARK                            x       y       z     vdW  Elec       q    Type
REMARK                         _______ _______ _______ _____ _____    ______ ____
ROOT
ATOM      1  C   UNL     1       2.740   3.653  19.059  0.00  0.00    +0.000 C 
ATOM      2  O   UNL     1       2.789   5.045  19.406  0.00  0.00    +0.000 OA
ATOM      3  C   UNL     1       3.490   5.856  18.466  0.00  0.00    +0.000 C 
ATOM      4  C   UNL     1       4.973   5.426  18.408  0.00  0.00    +0.000 C 
ATOM      5  C   UNL     1       5.084   3.968  17.922  0.00  0.00    +0.000 C 
ATOM      6  C   UNL     1       4.150   3.084  18.782  0.00  0.00    +0.000 C 
ENDROOT
BRANCH   4   7
ATOM      7  O   UNL     1       5.621   5.513  19.691  0.00  0.00    +0.000 OA
ATOM      8  H   UNL     1       6.515   5.139  19.584  0.00  0.00    +0.000 HD
ENDBRANCH   4   7
BRANCH   6   9
ATOM      9  O   UNL     1       4.146   1.708  18.422  0.00  0.00    +0.000 OA
ATOM     10  H   UNL     1       4.066   1.159  19.220  0.00  0.00    +0.000 HD
ENDBRANCH   6   9
BRANCH   1  11
ATOM     11  C   UNL     1       1.622   3.345  18.046  0.00  0.00    +0.000 C 
BRANCH  11  12
ATOM     12  O   UNL     1       2.095   2.965  16.763  0.00  0.00    +0.000 OA
ATOM     13  H   UNL     1       1.710   3.559  16.095  0.00  0.00    +0.000 HD
ENDBRANCH  11  12
ENDBRANCH   1  11
BRANCH   3  14
ATOM     14  O   UNL     1       3.431   7.228  18.874  0.00  0.00    +0.000 OA
BRANCH  14  15
ATOM     15  C   UNL     1       2.109   7.793  18.845  0.00  0.00    +0.000 C 
ATOM     16  C   UNL     1       1.991   8.953  17.848  0.00  0.00    +0.000 C 
ATOM     17  O   UNL     1       0.696   9.549  17.886  0.00  0.00    +0.000 OA
ATOM     18  C   UNL     1       0.399  10.136  19.163  0.00  0.00    +0.000 C 
ATOM     19  C   UNL     1       0.430   9.079  20.271  0.00  0.00    +0.000 C 
ATOM     20  C   UNL     1       1.772   8.320  20.256  0.00  0.00    +0.000 C 
BRANCH  19  21
ATOM     21  O   UNL     1       0.191   9.696  21.541  0.00  0.00    +0.000 OA
ATOM     22  H   UNL     1       0.771   9.279  22.203  0.00  0.00    +0.000 HD
ENDBRANCH  19  21
BRANCH  20  23
ATOM     23  O   UNL     1       1.726   7.253  21.216  0.00  0.00    +0.000 OA
ATOM     24  H   UNL     1       1.551   7.637  22.092  0.00  0.00    +0.000 HD
ENDBRANCH  20  23
BRANCH  18  25
ATOM     25  C   UNL     1      -0.984  10.790  19.043  0.00  0.00    +0.000 C 
BRANCH  25  26
ATOM     26  O   UNL     1      -1.116  11.800  20.045  0.00  0.00    +0.000 OA
ATOM     27  H   UNL     1      -0.207  11.980  20.355  0.00  0.00    +0.000 HD
ENDBRANCH  25  26
ENDBRANCH  18  25
ENDBRANCH  14  15
ENDBRANCH   3  14
BRANCH   5  28
ATOM     28  O   UNL     1       4.898   3.841  16.483  0.00  0.00    +0.000 OA
BRANCH  28  29
ATOM     29  C   UNL     1       5.703   4.859  15.826  0.00  0.00    +0.000 C 
BRANCH  29  30
ATOM     30  C   UNL     1       6.212   4.605  14.431  0.00  0.00    +0.000 A 
ATOM     31  C   UNL     1       7.330   5.224  13.882  0.00  0.00    +0.000 A 
ATOM     32  C   UNL     1       7.731   4.908  12.576  0.00  0.00    +0.000 A 
ATOM     33  C   UNL     1       7.009   3.989  11.806  0.00  0.00    +0.000 A 
ATOM     34  C   UNL     1       5.903   3.355  12.353  0.00  0.00    +0.000 A 
ATOM     35  C   UNL     1       5.505   3.666  13.648  0.00  0.00    +0.000 A 
ENDBRANCH  29  30
ENDBRANCH  28  29
ENDBRANCH   5  28
TORSDOF 13
ENDMDL
MODEL 4
REMARK VINA RESULT:      -7.3      0.968      1.334
REMARK  Name = 
REMARK  13 active torsions:
REMARK  status: ('A' for Active; 'I' for Inactive)
REMARK    1  A    between atoms: O_1  and  C_2
REMARK    2  A    between atoms: C_2  and  C_3
REMARK    3  A    between atoms: C_5  and  O_6
REMARK    4  A    between atoms: O_6  and  C_7
REMARK    5  A    between atoms: C_10  and  C_11
REMARK    6  A    between atoms: C_11  and  O_12
REMARK    7  A    between atoms: C_13  and  O_14
REMARK    8  A    between atoms: C_15  and  O_16
REMARK    9  A    between atoms: C_17  and  O_18
REMARK   10  A    between atoms: C_19  and  O_20
REMARK   11  A    between atoms: O_20  and  C_21
REMARK   12  A    between atoms: C_21  and  C_22
REMARK   13  A    between atoms: C_28  and  O_29
REMARK                            x       y       z     vdW  Elec       q    Type
REMARK                         _______ _______ _______ _____ _____    ______ ____
ROOT
ATOM      1  C   UNL     1       7.009   6.260  17.370  0.00  0.00    +0.000 C 
ATOM      2  O   UNL     1       5.776   6.929  17.068  0.00  0.00    +0.000 OA
ATOM      3  C   UNL     1       4.664   6.474  17.835  0.00  0.00    +0.000 C 
ATOM      4  C   UNL     1       4.380   4.989  17.514  0.00  0.00    +0.000 C 
ATOM      5  C   UNL     1       5.589   4.120  17.909  0.00  0.00    +0.000 C 
ATOM      6  C   UNL     1       6.864   4.724  17.274  0.00  0.00    +0.000 C 
ENDROOT
BRANCH   4   7
ATOM      7  O   UNL     1       4.117   4.770  16.115  0.00  0.00    +0.000 OA
ATOM      8  H   UNL     1       3.450   5.428  15.844  0.00  0.00    +0.000 HD
ENDBRANCH   4   7
BRANCH   6   9
ATOM      9  O   UNL     1       8.063   4.020  17.577  0.00  0.00    +0.000 OA
ATOM     10  H   UNL     1       7.963   3.083  17.344  0.00  0.00    +0.000 HD
ENDBRANCH   6   9
BRANCH   1  11
ATOM     11  C   UNL     1       7.701   6.846  18.615  0.00  0.00    +0.000 C 
BRANCH  11  12
ATOM     12  O   UNL     1       8.077   5.873  19.577  0.00  0.00    +0.000 OA
ATOM     13  H   UNL     1       8.217   5.022  19.127  0.00  0.00    +0.000 HD
ENDBRANCH  11  12
ENDBRANCH   1  11
BRANCH   3  14
ATOM     14  O   UNL     1       3.501   7.241  17.500  0.00  0.00    +0.000 OA
BRANCH  14  15
ATOM     15  C   UNL     1       2.949   7.981  18.602  0.00  0.00    +0.000 C 
ATOM     16  C   UNL     1       2.364   7.067  19.686  0.00  0.00    +0.000 C 
ATOM     17  O   UNL     1       1.755   7.817  20.735  0.00  0.00    +0.000 OA
ATOM     18  C   UNL     1       0.638   8.596  20.276  0.00  0.00    +0.000 C 
ATOM     19  C   UNL     1       1.077   9.605  19.210  0.00  0.00    +0.000 C 
ATOM     20  C   UNL     1       1.823   8.890  18.065  0.00  0.00    +0.000 C 
BRANCH  19  21
ATOM     21  O   UNL     1      -0.060  10.327  18.724  0.00  0.00    +0.000 OA
ATOM     22  H   UNL     1      -0.826  10.116  19.288  0.00  0.00    +0.000 HD
ENDBRANCH  19  21
BRANCH  20  23
ATOM     23  O   UNL     1       2.334   9.869  17.146  0.00  0.00    +0.000 OA
ATOM     24  H   UNL     1       2.952   9.427  16.539  0.00  0.00    +0.000 HD
ENDBRANCH  20  23
BRANCH  18  25
ATOM     25  C   UNL     1       0.046   9.295  21.506  0.00  0.00    +0.000 C 
BRANCH  25  26
ATOM     26  O   UNL     1       1.040  10.136  22.095  0.00  0.00    +0.000 OA
ATOM     27  H   UNL     1       0.724  10.317  23.001  0.00  0.00    +0.000 HD
ENDBRANCH  25  26
ENDBRANCH  18  25
ENDBRANCH  14  15
ENDBRANCH   3  14
BRANCH   5  28
ATOM     28  O   UNL     1       5.668   3.887  19.344  0.00  0.00    +0.000 OA
BRANCH  28  29
ATOM     29  C   UNL     1       4.900   2.691  19.657  0.00  0.00    +0.000 C 
BRANCH  29  30
ATOM     30  C   UNL     1       3.396   2.771  19.685  0.00  0.00    +0.000 A 
ATOM     31  C   UNL     1       2.562   2.134  18.772  0.00  0.00    +0.000 A 
ATOM     32  C   UNL     1       1.171   2.260  18.894  0.00  0.00    +0.000 A 
ATOM     33  C   UNL     1       0.607   3.035  19.912  0.00  0.00    +0.000 A 
ATOM     34  C   UNL     1       1.431   3.659  20.837  0.00  0.00    +0.000 A 
ATOM     35  C   UNL     1       2.811   3.534  20.719  0.00  0.00    +0.000 A 
ENDBRANCH  29  30
ENDBRANCH  28  29
ENDBRANCH   5  28
TORSDOF 13
ENDMDL
MODEL 5
REMARK VINA RESULT:      -7.0      2.094      6.026
REMARK  Name = 
REMARK  13 active torsions:
REMARK  status: ('A' for Active; 'I' for Inactive)
REMARK    1  A    between atoms: O_1  and  C_2
REMARK    2  A    between atoms: C_2  and  C_3
REMARK    3  A    between atoms: C_5  and  O_6
REMARK    4  A    between atoms: O_6  and  C_7
REMARK    5  A    between atoms: C_10  and  C_11
REMARK    6  A    between atoms: C_11  and  O_12
REMARK    7  A    between atoms: C_13  and  O_14
REMARK    8  A    between atoms: C_15  and  O_16
REMARK    9  A    between atoms: C_17  and  O_18
REMARK   10  A    between atoms: C_19  and  O_20
REMARK   11  A    between atoms: O_20  and  C_21
REMARK   12  A    between atoms: C_21  and  C_22
REMARK   13  A    between atoms: C_28  and  O_29
REMARK                            x       y       z     vdW  Elec       q    Type
REMARK                         _______ _______ _______ _____ _____    ______ ____
ROOT
ATOM      1  C   UNL     1       2.461   2.090  19.744  0.00  0.00    +0.000 C 
ATOM      2  O   UNL     1       3.239   2.250  18.548  0.00  0.00    +0.000 OA
ATOM      3  C   UNL     1       3.575   3.602  18.248  0.00  0.00    +0.000 C 
ATOM      4  C   UNL     1       2.288   4.412  17.975  0.00  0.00    +0.000 C 
ATOM      5  C   UNL     1       1.397   4.434  19.232  0.00  0.00    +0.000 C 
ATOM      6  C   UNL     1       1.198   2.981  19.726  0.00  0.00    +0.000 C 
ENDROOT
BRANCH   4   7
ATOM      7  O   UNL     1       1.511   3.861  16.894  0.00  0.00    +0.000 OA
ATOM      8  H   UNL     1       2.114   3.757  16.135  0.00  0.00    +0.000 HD
ENDBRANCH   4   7
BRANCH   6   9
ATOM      9  O   UNL     1       0.403   2.862  20.899  0.00  0.00    +0.000 OA
ATOM     10  H   UNL     1       0.433   1.948  21.227  0.00  0.00    +0.000 HD
ENDBRANCH   6   9
BRANCH   1  11
ATOM     11  C   UNL     1       3.334   2.095  21.012  0.00  0.00    +0.000 C 
BRANCH  11  12
ATOM     12  O   UNL     1       2.810   2.885  22.069  0.00  0.00    +0.000 OA
ATOM     13  H   UNL     1       2.386   3.675  21.693  0.00  0.00    +0.000 HD
ENDBRANCH  11  12
ENDBRANCH   1  11
BRANCH   3  14
ATOM     14  O   UNL     1       4.397   3.646  17.075  0.00  0.00    +0.000 OA
BRANCH  14  15
ATOM     15  C   UNL     1       5.671   4.279  17.275  0.00  0.00    +0.000 C 
ATOM     16  C   UNL     1       6.078   4.321  18.754  0.00  0.00    +0.000 C 
ATOM     17  O   UNL     1       7.308   5.019  18.942  0.00  0.00    +0.000 OA
ATOM     18  C   UNL     1       7.222   6.398  18.550  0.00  0.00    +0.000 C 
ATOM     19  C   UNL     1       6.868   6.523  17.065  0.00  0.00    +0.000 C 
ATOM     20  C   UNL     1       5.586   5.727  16.747  0.00  0.00    +0.000 C 
BRANCH  19  21
ATOM     21  O   UNL     1       6.729   7.904  16.711  0.00  0.00    +0.000 OA
ATOM     22  H   UNL     1       6.927   8.447  17.495  0.00  0.00    +0.000 HD
ENDBRANCH  19  21
BRANCH  20  23
ATOM     23  O   UNL     1       5.347   5.755  15.331  0.00  0.00    +0.000 OA
ATOM     24  H   UNL     1       4.627   5.134  15.129  0.00  0.00    +0.000 HD
ENDBRANCH  20  23
BRANCH  18  25
ATOM     25  C   UNL     1       8.582   7.036  18.862  0.00  0.00    +0.000 C 
BRANCH  25  26
ATOM     26  O   UNL     1       8.489   8.452  18.693  0.00  0.00    +0.000 OA
ATOM     27  H   UNL     1       8.768   8.623  17.772  0.00  0.00    +0.000 HD
ENDBRANCH  25  26
ENDBRANCH  18  25
ENDBRANCH  14  15
ENDBRANCH   3  14
BRANCH   5  28
ATOM     28  O   UNL     1       1.876   5.367  20.242  0.00  0.00    +0.000 OA
BRANCH  28  29
ATOM     29  C   UNL     1       2.643   6.409  19.576  0.00  0.00    +0.000 C 
BRANCH  29  30
ATOM     30  C   UNL     1       2.029   7.775  19.403  0.00  0.00    +0.000 A 
ATOM     31  C   UNL     1       1.328   8.449  20.398  0.00  0.00    +0.000 A 
ATOM     32  C   UNL     1       0.807   9.723  20.139  0.00  0.00    +0.000 A 
ATOM     33  C   UNL     1       0.964  10.324  18.886  0.00  0.00    +0.000 A 
ATOM     34  C   UNL     1       1.676   9.665  17.894  0.00  0.00    +0.000 A 
ATOM     35  C   UNL     1       2.196   8.401  18.149  0.00  0.00    +0.000 A 
ENDBRANCH  29  30
ENDBRANCH  28  29
ENDBRANCH   5  28
TORSDOF 13
ENDMDL
MODEL 6
REMARK VINA RESULT:      -6.9      2.268      6.258
REMARK  Name = 
REMARK  13 active torsions:
REMARK  status: ('A' for Active; 'I' for Inactive)
REMARK    1  A    between atoms: O_1  and  C_2
REMARK    2  A    between atoms: C_2  and  C_3
REMARK    3  A    between atoms: C_5  and  O_6
REMARK    4  A    between atoms: O_6  and  C_7
REMARK    5  A    between atoms: C_10  and  C_11
REMARK    6  A    between atoms: C_11  and  O_12
REMARK    7  A    between atoms: C_13  and  O_14
REMARK    8  A    between atoms: C_15  and  O_16
REMARK    9  A    between atoms: C_17  and  O_18
REMARK   10  A    between atoms: C_19  and  O_20
REMARK   11  A    between atoms: O_20  and  C_21
REMARK   12  A    between atoms: C_21  and  C_22
REMARK   13  A    between atoms: C_28  and  O_29
REMARK                            x       y       z     vdW  Elec       q    Type
REMARK                         _______ _______ _______ _____ _____    ______ ____
ROOT
ATOM      1  C   UNL     1       2.334   2.055  19.972  0.00  0.00    +0.000 C 
ATOM      2  O   UNL     1       3.370   2.025  18.978  0.00  0.00    +0.000 OA
ATOM      3  C   UNL     1       3.834   3.313  18.582  0.00  0.00    +0.000 C 
ATOM      4  C   UNL     1       2.684   4.097  17.909  0.00  0.00    +0.000 C 
ATOM      5  C   UNL     1       1.534   4.317  18.911  0.00  0.00    +0.000 C 
ATOM      6  C   UNL     1       1.156   2.956  19.540  0.00  0.00    +0.000 C 
ENDROOT
BRANCH   4   7
ATOM      7  O   UNL     1       2.145   3.409  16.764  0.00  0.00    +0.000 OA
ATOM      8  H   UNL     1       1.823   4.092  16.148  0.00  0.00    +0.000 HD
ENDBRANCH   4   7
BRANCH   6   9
ATOM      9  O   UNL     1       0.110   3.023  20.502  0.00  0.00    +0.000 OA
ATOM     10  H   UNL     1      -0.613   3.578  20.167  0.00  0.00    +0.000 HD
ENDBRANCH   6   9
BRANCH   1  11
ATOM     11  C   UNL     1       2.896   2.229  21.395  0.00  0.00    +0.000 C 
BRANCH  11  12
ATOM     12  O   UNL     1       2.260   3.252  22.145  0.00  0.00    +0.000 OA
ATOM     13  H   UNL     1       1.564   3.658  21.599  0.00  0.00    +0.000 HD
ENDBRANCH  11  12
ENDBRANCH   1  11
BRANCH   3  14
ATOM     14  O   UNL     1       4.901   3.172  17.636  0.00  0.00    +0.000 OA
BRANCH  14  15
ATOM     15  C   UNL     1       6.044   3.996  17.914  0.00  0.00    +0.000 C 
ATOM     16  C   UNL     1       5.810   4.940  19.101  0.00  0.00    +0.000 C 
ATOM     17  O   UNL     1       6.925   5.803  19.316  0.00  0.00    +0.000 OA
ATOM     18  C   UNL     1       7.168   6.675  18.200  0.00  0.00    +0.000 C 
ATOM     19  C   UNL     1       7.472   5.870  16.933  0.00  0.00    +0.000 C 
ATOM     20  C   UNL     1       6.351   4.845  16.662  0.00  0.00    +0.000 C 
BRANCH  19  21
ATOM     21  O   UNL     1       7.651   6.757  15.823  0.00  0.00    +0.000 OA
ATOM     22  H   UNL     1       8.090   7.566  16.140  0.00  0.00    +0.000 HD
ENDBRANCH  19  21
BRANCH  20  23
ATOM     23  O   UNL     1       6.719   4.020  15.547  0.00  0.00    +0.000 OA
ATOM     24  H   UNL     1       7.328   3.331  15.863  0.00  0.00    +0.000 HD
ENDBRANCH  20  23
BRANCH  18  25
ATOM     25  C   UNL     1       8.344   7.581  18.589  0.00  0.00    +0.000 C 
BRANCH  25  26
ATOM     26  O   UNL     1       8.258   8.805  17.858  0.00  0.00    +0.000 OA
ATOM     27  H   UNL     1       9.031   8.805  17.260  0.00  0.00    +0.000 HD
ENDBRANCH  25  26
ENDBRANCH  18  25
ENDBRANCH  14  15
ENDBRANCH   3  14
BRANCH   5  28
ATOM     28  O   UNL     1       1.819   5.379  19.866  0.00  0.00    +0.000 OA
BRANCH  28  29
ATOM     29  C   UNL     1       2.602   6.404  19.192  0.00  0.00    +0.000 C 
BRANCH  29  30
ATOM     30  C   UNL     1       2.044   7.799  19.082  0.00  0.00    +0.000 A 
ATOM     31  C   UNL     1       2.054   8.554  17.914  0.00  0.00    +0.000 A 
ATOM     32  C   UNL     1       1.497   9.840  17.912  0.00  0.00    +0.000 A 
ATOM     33  C   UNL     1       0.946  10.386  19.076  0.00  0.00    +0.000 A 
ATOM     34  C   UNL     1       0.918   9.633  20.240  0.00  0.00    +0.000 A 
ATOM     35  C   UNL     1       1.468   8.356  20.244  0.00  0.00    +0.000 A 
ENDBRANCH  29  30
ENDBRANCH  28  29
ENDBRANCH   5  28
TORSDOF 13
ENDMDL
MODEL 7
REMARK VINA RESULT:      -6.5      2.133      4.994
REMARK  Name = 
REMARK  13 active torsions:
REMARK  status: ('A' for Active; 'I' for Inactive)
REMARK    1  A    between atoms: O_1  and  C_2
REMARK    2  A    between atoms: C_2  and  C_3
REMARK    3  A    between atoms: C_5  and  O_6
REMARK    4  A    between atoms: O_6  and  C_7
REMARK    5  A    between atoms: C_10  and  C_11
REMARK    6  A    between atoms: C_11  and  O_12
REMARK    7  A    between atoms: C_13  and  O_14
REMARK    8  A    between atoms: C_15  and  O_16
REMARK    9  A    between atoms: C_17  and  O_18
REMARK   10  A    between atoms: C_19  and  O_20
REMARK   11  A    between atoms: O_20  and  C_21
REMARK   12  A    between atoms: C_21  and  C_22
REMARK   13  A    between atoms: C_28  and  O_29
REMARK                            x       y       z     vdW  Elec       q    Type
REMARK                         _______ _______ _______ _____ _____    ______ ____
ROOT
ATOM      1  C   UNL     1       1.036   3.417  18.859  0.00  0.00    +0.000 C 
ATOM      2  O   UNL     1       0.835   4.493  19.788  0.00  0.00    +0.000 OA
ATOM      3  C   UNL     1       2.037   5.139  20.200  0.00  0.00    +0.000 C 
ATOM      4  C   UNL     1       2.932   4.138  20.965  0.00  0.00    +0.000 C 
ATOM      5  C   UNL     1       3.336   2.973  20.040  0.00  0.00    +0.000 C 
ATOM      6  C   UNL     1       2.060   2.389  19.389  0.00  0.00    +0.000 C 
ENDROOT
BRANCH   4   7
ATOM      7  O   UNL     1       2.271   3.577  22.116  0.00  0.00    +0.000 OA
ATOM      8  H   UNL     1       2.618   2.673  22.231  0.00  0.00    +0.000 HD
ENDBRANCH   4   7
BRANCH   6   9
ATOM      9  O   UNL     1       2.298   1.310  18.492  0.00  0.00    +0.000 OA
ATOM     10  H   UNL     1       2.075   0.468  18.923  0.00  0.00    +0.000 HD
ENDBRANCH   6   9
BRANCH   1  11
ATOM     11  C   UNL     1       1.196   3.920  17.412  0.00  0.00    +0.000 C 
BRANCH  11  12
ATOM     12  O   UNL     1       2.341   3.408  16.747  0.00  0.00    +0.000 OA
ATOM     13  H   UNL     1       2.434   2.463  16.961  0.00  0.00    +0.000 HD
ENDBRANCH  11  12
ENDBRANCH   1  11
BRANCH   3  14
ATOM     14  O   UNL     1       1.724   6.228  21.076  0.00  0.00    +0.000 OA
BRANCH  14  15
ATOM     15  C   UNL     1       1.194   7.385  20.407  0.00  0.00    +0.000 C 
ATOM     16  C   UNL     1       2.039   7.798  19.196  0.00  0.00    +0.000 C 
ATOM     17  O   UNL     1       1.543   8.990  18.590  0.00  0.00    +0.000 OA
ATOM     18  C   UNL     1       1.600  10.120  19.474  0.00  0.00    +0.000 C 
ATOM     19  C   UNL     1       0.752   9.877  20.727  0.00  0.00    +0.000 C 
ATOM     20  C   UNL     1       1.164   8.558  21.410  0.00  0.00    +0.000 C 
BRANCH  19  21
ATOM     21  O   UNL     1       0.871  10.990  21.620  0.00  0.00    +0.000 OA
ATOM     22  H   UNL     1      -0.013  11.208  21.965  0.00  0.00    +0.000 HD
ENDBRANCH  19  21
BRANCH  20  23
ATOM     23  O   UNL     1       0.273   8.290  22.504  0.00  0.00    +0.000 OA
ATOM     24  H   UNL     1       0.634   7.548  23.019  0.00  0.00    +0.000 HD
ENDBRANCH  20  23
BRANCH  18  25
ATOM     25  C   UNL     1       1.100  11.334  18.680  0.00  0.00    +0.000 C 
BRANCH  25  26
ATOM     26  O   UNL     1      -0.296  11.517  18.927  0.00  0.00    +0.000 OA
ATOM     27  H   UNL     1      -0.357  11.835  19.849  0.00  0.00    +0.000 HD
ENDBRANCH  25  26
ENDBRANCH  18  25
ENDBRANCH  14  15
ENDBRANCH   3  14
BRANCH   5  28
ATOM     28  O   UNL     1       4.391   3.339  19.106  0.00  0.00    +0.000 OA
BRANCH  28  29
ATOM     29  C   UNL     1       5.286   4.276  19.770  0.00  0.00    +0.000 C 
BRANCH  29  30
ATOM     30  C   UNL     1       5.986   5.328  18.950  0.00  0.00    +0.000 A 
ATOM     31  C   UNL     1       7.306   5.722  19.145  0.00  0.00    +0.000 A 
ATOM     32  C   UNL     1       7.870   6.702  18.318  0.00  0.00    +0.000 A 
ATOM     33  C   UNL     1       7.118   7.308  17.306  0.00  0.00    +0.000 A 
ATOM     34  C   UNL     1       5.806   6.908  17.093  0.00  0.00    +0.000 A 
ATOM     35  C   UNL     1       5.245   5.935  17.912  0.00  0.00    +0.000 A 
ENDBRANCH  29  30
ENDBRANCH  28  29
ENDBRANCH   5  28
TORSDOF 13
ENDMDL
MODEL 8
REMARK VINA RESULT:      -6.5      2.189      6.225
REMARK  Name = 
REMARK  13 active torsions:
REMARK  status: ('A' for Active; 'I' for Inactive)
REMARK    1  A    between atoms: O_1  and  C_2
REMARK    2  A    between atoms: C_2  and  C_3
REMARK    3  A    between atoms: C_5  and  O_6
REMARK    4  A    between atoms: O_6  and  C_7
REMARK    5  A    between atoms: C_10  and  C_11
REMARK    6  A    between atoms: C_11  and  O_12
REMARK    7  A    between atoms: C_13  and  O_14
REMARK    8  A    between atoms: C_15  and  O_16
REMARK    9  A    between atoms: C_17  and  O_18
REMARK   10  A    between atoms: C_19  and  O_20
REMARK   11  A    between atoms: O_20  and  C_21
REMARK   12  A    between atoms: C_21  and  C_22
REMARK   13  A    between atoms: C_28  and  O_29
REMARK                            x       y       z     vdW  Elec       q    Type
REMARK                         _______ _______ _______ _____ _____    ______ ____
ROOT
ATOM      1  C   UNL     1       2.585   2.235  19.793  0.00  0.00    +0.000 C 
ATOM      2  O   UNL     1       3.466   2.659  18.742  0.00  0.00    +0.000 OA
ATOM      3  C   UNL     1       3.615   4.074  18.642  0.00  0.00    +0.000 C 
ATOM      4  C   UNL     1       2.257   4.718  18.285  0.00  0.00    +0.000 C 
ATOM      5  C   UNL     1       1.230   4.447  19.402  0.00  0.00    +0.000 C 
ATOM      6  C   UNL     1       1.208   2.930  19.700  0.00  0.00    +0.000 C 
ENDROOT
BRANCH   4   7
ATOM      7  O   UNL     1       1.713   4.207  17.053  0.00  0.00    +0.000 OA
ATOM      8  H   UNL     1       0.954   3.642  17.290  0.00  0.00    +0.000 HD
ENDBRANCH   4   7
BRANCH   6   9
ATOM      9  O   UNL     1       0.307   2.546  20.731  0.00  0.00    +0.000 OA
ATOM     10  H   UNL     1       0.778   2.495  21.579  0.00  0.00    +0.000 HD
ENDBRANCH   6   9
BRANCH   1  11
ATOM     11  C   UNL     1       3.288   2.200  21.163  0.00  0.00    +0.000 C 
BRANCH  11  12
ATOM     12  O   UNL     1       2.568   2.853  22.197  0.00  0.00    +0.000 OA
ATOM     13  H   UNL     1       2.550   3.809  22.016  0.00  0.00    +0.000 HD
ENDBRANCH  11  12
ENDBRANCH   1  11
BRANCH   3  14
ATOM     14  O   UNL     1       4.554   4.388  17.606  0.00  0.00    +0.000 OA
BRANCH  14  15
ATOM     15  C   UNL     1       5.244   5.634  17.798  0.00  0.00    +0.000 C 
ATOM     16  C   UNL     1       5.653   6.286  16.471  0.00  0.00    +0.000 C 
ATOM     17  O   UNL     1       6.402   7.481  16.680  0.00  0.00    +0.000 OA
ATOM     18  C   UNL     1       7.642   7.240  17.364  0.00  0.00    +0.000 C 
ATOM     19  C   UNL     1       7.394   6.627  18.746  0.00  0.00    +0.000 C 
ATOM     20  C   UNL     1       6.517   5.364  18.627  0.00  0.00    +0.000 C 
BRANCH  19  21
ATOM     21  O   UNL     1       8.644   6.340  19.383  0.00  0.00    +0.000 OA
ATOM     22  H   UNL     1       9.215   5.870  18.749  0.00  0.00    +0.000 HD
ENDBRANCH  19  21
BRANCH  20  23
ATOM     23  O   UNL     1       6.194   4.883  19.941  0.00  0.00    +0.000 OA
ATOM     24  H   UNL     1       5.253   5.061  20.110  0.00  0.00    +0.000 HD
ENDBRANCH  20  23
BRANCH  18  25
ATOM     25  C   UNL     1       8.365   8.589  17.465  0.00  0.00    +0.000 C 
BRANCH  25  26
ATOM     26  O   UNL     1       8.663   8.862  18.836  0.00  0.00    +0.000 OA
ATOM     27  H   UNL     1       8.285   8.114  19.338  0.00  0.00    +0.000 HD
ENDBRANCH  25  26
ENDBRANCH  18  25
ENDBRANCH  14  15
ENDBRANCH   3  14
BRANCH   5  28
ATOM     28  O   UNL     1       1.430   5.300  20.565  0.00  0.00    +0.000 OA
BRANCH  28  29
ATOM     29  C   UNL     1       2.244   6.438  20.165  0.00  0.00    +0.000 C 
BRANCH  29  30
ATOM     30  C   UNL     1       1.629   7.814  20.154  0.00  0.00    +0.000 A 
ATOM     31  C   UNL     1       1.685   8.687  19.073  0.00  0.00    +0.000 A 
ATOM     32  C   UNL     1       1.067   9.942  19.159  0.00  0.00    +0.000 A 
ATOM     33  C   UNL     1       0.408  10.340  20.327  0.00  0.00    +0.000 A 
ATOM     34  C   UNL     1       0.333   9.468  21.403  0.00  0.00    +0.000 A 
ATOM     35  C   UNL     1       0.944   8.222  21.319  0.00  0.00    +0.000 A 
ENDBRANCH  29  30
ENDBRANCH  28  29
ENDBRANCH   5  28
TORSDOF 13
ENDMDL
MODEL 9
REMARK VINA RESULT:      -6.4      3.880      6.873
REMARK  Name = 
REMARK  13 active torsions:
REMARK  status: ('A' for Active; 'I' for Inactive)
REMARK    1  A    between atoms: O_1  and  C_2
REMARK    2  A    between atoms: C_2  and  C_3
REMARK    3  A    between atoms: C_5  and  O_6
REMARK    4  A    between atoms: O_6  and  C_7
REMARK    5  A    between atoms: C_10  and  C_11
REMARK    6  A    between atoms: C_11  and  O_12
REMARK    7  A    between atoms: C_13  and  O_14
REMARK    8  A    between atoms: C_15  and  O_16
REMARK    9  A    between atoms: C_17  and  O_18
REMARK   10  A    between atoms: C_19  and  O_20
REMARK   11  A    between atoms: O_20  and  C_21
REMARK   12  A    between atoms: C_21  and  C_22
REMARK   13  A    between atoms: C_28  and  O_29
REMARK                            x       y       z     vdW  Elec       q    Type
REMARK                         _______ _______ _______ _____ _____    ______ ____
ROOT
ATOM      1  C   UNL     1       0.196  10.654  21.989  0.00  0.00    +0.000 C 
ATOM      2  O   UNL     1      -0.392  11.199  20.798  0.00  0.00    +0.000 OA
ATOM      3  C   UNL     1      -0.662  10.230  19.786  0.00  0.00    +0.000 C 
ATOM      4  C   UNL     1       0.661   9.598  19.302  0.00  0.00    +0.000 C 
ATOM      5  C   UNL     1       1.354   8.860  20.464  0.00  0.00    +0.000 C 
ATOM      6  C   UNL     1       1.458   9.820  21.672  0.00  0.00    +0.000 C 
ENDROOT
BRANCH   4   7
ATOM      7  O   UNL     1       1.585  10.579  18.791  0.00  0.00    +0.000 OA
ATOM      8  H   UNL     1       1.717  10.379  17.846  0.00  0.00    +0.000 HD
ENDBRANCH   4   7
BRANCH   6   9
ATOM      9  O   UNL     1       2.067   9.252  22.826  0.00  0.00    +0.000 OA
ATOM     10  H   UNL     1       2.300   8.325  22.653  0.00  0.00    +0.000 HD
ENDBRANCH   6   9
BRANCH   1  11
ATOM     11  C   UNL     1      -0.858  10.045  22.932  0.00  0.00    +0.000 C 
BRANCH  11  12
ATOM     12  O   UNL     1      -0.834   8.627  22.984  0.00  0.00    +0.000 OA
ATOM     13  H   UNL     1      -1.514   8.277  22.382  0.00  0.00    +0.000 HD
ENDBRANCH  11  12
ENDBRANCH   1  11
BRANCH   3  14
ATOM     14  O   UNL     1      -1.298  10.864  18.670  0.00  0.00    +0.000 OA
BRANCH  14  15
ATOM     15  C   UNL     1      -2.734  10.846  18.724  0.00  0.00    +0.000 C 
ATOM     16  C   UNL     1      -3.368  10.591  17.350  0.00  0.00    +0.000 C 
ATOM     17  O   UNL     1      -4.792  10.650  17.407  0.00  0.00    +0.000 OA
ATOM     18  C   UNL     1      -5.271  11.948  17.794  0.00  0.00    +0.000 C 
ATOM     19  C   UNL     1      -4.758  12.329  19.186  0.00  0.00    +0.000 C 
ATOM     20  C   UNL     1      -3.221  12.214  19.244  0.00  0.00    +0.000 C 
BRANCH  19  21
ATOM     21  O   UNL     1      -5.199  13.648  19.525  0.00  0.00    +0.000 OA
ATOM     22  H   UNL     1      -5.016  14.240  18.773  0.00  0.00    +0.000 HD
ENDBRANCH  19  21
BRANCH  20  23
ATOM     23  O   UNL     1      -2.777  12.452  20.589  0.00  0.00    +0.000 OA
ATOM     24  H   UNL     1      -3.472  12.942  21.060  0.00  0.00    +0.000 HD
ENDBRANCH  20  23
BRANCH  18  25
ATOM     25  C   UNL     1      -6.804  11.887  17.754  0.00  0.00    +0.000 C 
BRANCH  25  26
ATOM     26  O   UNL     1      -7.296  11.554  19.054  0.00  0.00    +0.000 OA
ATOM     27  H   UNL     1      -6.914  12.221  19.656  0.00  0.00    +0.000 HD
ENDBRANCH  25  26
ENDBRANCH  18  25
ENDBRANCH  14  15
ENDBRANCH   3  14
BRANCH   5  28
ATOM     28  O   UNL     1       0.740   7.571  20.754  0.00  0.00    +0.000 OA
BRANCH  28  29
ATOM     29  C   UNL     1       1.787   6.561  20.782  0.00  0.00    +0.000 C 
BRANCH  29  30
ATOM     30  C   UNL     1       1.604   5.292  19.991  0.00  0.00    +0.000 A 
ATOM     31  C   UNL     1       1.052   4.123  20.505  0.00  0.00    +0.000 A 
ATOM     32  C   UNL     1       0.913   2.998  19.681  0.00  0.00    +0.000 A 
ATOM     33  C   UNL     1       1.340   3.026  18.349  0.00  0.00    +0.000 A 
ATOM     34  C   UNL     1       1.877   4.192  17.825  0.00  0.00    +0.000 A 
ATOM     35  C   UNL     1       2.014   5.310  18.640  0.00  0.00    +0.000 A 
ENDBRANCH  29  30
ENDBRANCH  28  29
ENDBRANCH   5  28
TORSDOF 13
ENDMDL
