MODEL 1
REMARK VINA RESULT:      -7.9      0.000      0.000
REMARK  Name = 
REMARK  5 active torsions:
REMARK  status: ('A' for Active; 'I' for Inactive)
REMARK    1  A    between atoms: C_1  and  C_2
REMARK    2  A    between atoms: C_2  and  C_3
REMARK    3  A    between atoms: N_13  and  C_14
REMARK    4  A    between atoms: C_14  and  C_15
REMARK    5  A    between atoms: N_17  and  C_18
REMARK                            x       y       z     vdW  Elec       q    Type
REMARK                         _______ _______ _______ _____ _____    ______ ____
ROOT
ATOM      1  C   UNL     1       3.981   4.255  17.213  0.00  0.00    +0.000 C 
ATOM      2  C   UNL     1       4.631   5.416  17.961  0.00  0.00    +0.000 C 
ATOM      3  N   UNL     1       5.432   4.978  19.085  0.00  0.00    +0.000 N 
ATOM      4  C   UNL     1       6.642   5.621  19.148  0.00  0.00    +0.000 C 
ATOM      5  O   UNL     1       7.384   5.606  20.115  0.00  0.00    +0.000 OA
ATOM      6  N   UNL     1       6.874   6.232  17.964  0.00  0.00    +0.000 N 
ATOM      7  C   UNL     1       5.807   6.035  17.136  0.00  0.00    +0.000 C 
ATOM      8  O   UNL     1       5.750   6.375  15.960  0.00  0.00    +0.000 OA
ATOM      9  H   UNL     1       5.039   4.581  19.928  0.00  0.00    +0.000 HD
ENDROOT
BRANCH   2  10
ATOM     10  C   UNL     1       3.588   6.473  18.369  0.00  0.00    +0.000 A 
ATOM     11  C   UNL     1       3.430   7.622  17.560  0.00  0.00    +0.000 A 
ATOM     12  C   UNL     1       2.542   8.650  17.892  0.00  0.00    +0.000 A 
ATOM     13  C   UNL     1       1.768   8.555  19.036  0.00  0.00    +0.000 A 
ATOM     14  C   UNL     1       1.856   7.415  19.828  0.00  0.00    +0.000 A 
ATOM     15  C   UNL     1       2.736   6.372  19.491  0.00  0.00    +0.000 A 
ATOM     16 BR   UNL     1       2.629   4.841  20.621  0.00  0.00    +0.000 Br
ENDBRANCH   2  10
BRANCH   6  17
ATOM     17  C   UNL     1       8.071   6.998  17.651  0.00  0.00    +0.000 C 
BRANCH  17  18
ATOM     18  C   UNL     1       7.823   8.496  17.874  0.00  0.00    +0.000 C 
ATOM     19  O   UNL     1       7.013   9.140  17.220  0.00  0.00    +0.000 OA
ATOM     20  N   UNL     1       8.650   9.043  18.838  0.00  0.00    +0.000 N 
ATOM     21  H   UNL     1       9.389   8.421  19.171  0.00  0.00    +0.000 HD
BRANCH  20  22
ATOM     22  C   UNL     1       9.025  10.444  18.892  0.00  0.00    +0.000 C 
ATOM     23  C   UNL     1      10.016  10.969  17.848  0.00  0.00    +0.000 C 
ATOM     24  C   UNL     1      10.015  12.508  17.915  0.00  0.00    +0.000 C 
ATOM     25  C   UNL     1      10.302  13.046  19.322  0.00  0.00    +0.000 C 
ATOM     26  C   UNL     1       9.491  12.359  20.422  0.00  0.00    +0.000 C 
ATOM     27  C   UNL     1       9.515  10.843  20.286  0.00  0.00    +0.000 C 
ENDBRANCH  20  22
ENDBRANCH  17  18
ENDBRANCH   6  17
TORSDOF 4
ENDMDL
MODEL 2
REMARK VINA RESULT:      -7.7      0.455      1.092
REMARK  Name = 
REMARK  5 active torsions:
REMARK  status: ('A' for Active; 'I' for Inactive)
REMARK    1  A    between atoms: C_1  and  C_2
REMARK    2  A    between atoms: C_2  and  C_3
REMARK    3  A    between atoms: N_13  and  C_14
REMARK    4  A    between atoms: C_14  and  C_15
REMARK    5  A    between atoms: N_17  and  C_18
REMARK                            x       y       z     vdW  Elec       q    Type
REMARK                         _______ _______ _______ _____ _____    ______ ____
ROOT
ATOM      1  C   UNL     1       3.584   4.186  17.368  0.00  0.00    +0.000 C 
ATOM      2  C   UNL     1       4.337   5.335  18.034  0.00  0.00    +0.000 C 
ATOM      3  N   UNL     1       5.179   4.892  19.125  0.00  0.00    +0.000 N 
ATOM      4  C   UNL     1       6.423   5.469  19.095  0.00  0.00    +0.000 C 
ATOM      5  O   UNL     1       7.219   5.447  20.018  0.00  0.00    +0.000 OA
ATOM      6  N   UNL     1       6.616   6.027  17.877  0.00  0.00    +0.000 N 
ATOM      7  C   UNL     1       5.492   5.860  17.120  0.00  0.00    +0.000 C 
ATOM      8  O   UNL     1       5.383   6.163  15.938  0.00  0.00    +0.000 OA
ATOM      9  H   UNL     1       4.816   4.545  20.004  0.00  0.00    +0.000 HD
ENDROOT
BRANCH   2  10
ATOM     10  C   UNL     1       3.377   6.460  18.462  0.00  0.00    +0.000 A 
ATOM     11  C   UNL     1       3.288   7.622  17.660  0.00  0.00    +0.000 A 
ATOM     12  C   UNL     1       2.479   8.707  18.010  0.00  0.00    +0.000 A 
ATOM     13  C   UNL     1       1.718   8.661  19.165  0.00  0.00    +0.000 A 
ATOM     14  C   UNL     1       1.737   7.513  19.951  0.00  0.00    +0.000 A 
ATOM     15  C   UNL     1       2.536   6.413  19.596  0.00  0.00    +0.000 A 
ATOM     16 BR   UNL     1       2.339   4.888  20.721  0.00  0.00    +0.000 Br
ENDBRANCH   2  10
BRANCH   6  17
ATOM     17  C   UNL     1       7.830   6.715  17.469  0.00  0.00    +0.000 C 
BRANCH  17  18
ATOM     18  C   UNL     1       7.791   8.184  17.914  0.00  0.00    +0.000 C 
ATOM     19  O   UNL     1       7.008   9.000  17.444  0.00  0.00    +0.000 OA
ATOM     20  N   UNL     1       8.766   8.492  18.844  0.00  0.00    +0.000 N 
ATOM     21  H   UNL     1       9.450   7.752  19.008  0.00  0.00    +0.000 HD
BRANCH  20  22
ATOM     22  C   UNL     1       9.314   9.822  19.041  0.00  0.00    +0.000 C 
ATOM     23  C   UNL     1       9.104  10.498  20.400  0.00  0.00    +0.000 C 
ATOM     24  C   UNL     1      10.020  11.734  20.469  0.00  0.00    +0.000 C 
ATOM     25  C   UNL     1       9.814  12.698  19.295  0.00  0.00    +0.000 C 
ATOM     26  C   UNL     1       9.776  12.007  17.930  0.00  0.00    +0.000 C 
ATOM     27  C   UNL     1       8.871  10.783  17.936  0.00  0.00    +0.000 C 
ENDBRANCH  20  22
ENDBRANCH  17  18
ENDBRANCH   6  17
TORSDOF 4
ENDMDL
MODEL 3
REMARK VINA RESULT:      -7.1      4.198      7.628
REMARK  Name = 
REMARK  5 active torsions:
REMARK  status: ('A' for Active; 'I' for Inactive)
REMARK    1  A    between atoms: C_1  and  C_2
REMARK    2  A    between atoms: C_2  and  C_3
REMARK    3  A    between atoms: N_13  and  C_14
REMARK    4  A    between atoms: C_14  and  C_15
REMARK    5  A    between atoms: N_17  and  C_18
REMARK                            x       y       z     vdW  Elec       q    Type
REMARK                         _______ _______ _______ _____ _____    ______ ____
ROOT
ATOM      1  C   UNL     1       2.008   4.616  17.810  0.00  0.00    +0.000 C 
ATOM      2  C   UNL     1       2.730   5.905  18.196  0.00  0.00    +0.000 C 
ATOM      3  N   UNL     1       2.269   7.050  17.439  0.00  0.00    +0.000 N 
ATOM      4  C   UNL     1       2.066   8.153  18.229  0.00  0.00    +0.000 C 
ATOM      5  O   UNL     1       1.913   9.287  17.809  0.00  0.00    +0.000 OA
ATOM      6  N   UNL     1       2.037   7.763  19.525  0.00  0.00    +0.000 N 
ATOM      7  C   UNL     1       2.263   6.418  19.597  0.00  0.00    +0.000 C 
ATOM      8  O   UNL     1       2.200   5.744  20.618  0.00  0.00    +0.000 OA
ATOM      9  H   UNL     1       2.451   7.176  16.452  0.00  0.00    +0.000 HD
ENDROOT
BRANCH   2  10
ATOM     10  C   UNL     1       4.258   5.736  18.118  0.00  0.00    +0.000 A 
ATOM     11  C   UNL     1       5.030   6.772  17.542  0.00  0.00    +0.000 A 
ATOM     12  C   UNL     1       6.416   6.670  17.388  0.00  0.00    +0.000 A 
ATOM     13  C   UNL     1       7.081   5.536  17.821  0.00  0.00    +0.000 A 
ATOM     14  C   UNL     1       6.363   4.518  18.442  0.00  0.00    +0.000 A 
ATOM     15  C   UNL     1       4.972   4.622  18.614  0.00  0.00    +0.000 A 
ATOM     16 BR   UNL     1       4.180   3.192  19.594  0.00  0.00    +0.000 Br
ENDBRANCH   2  10
BRANCH   6  17
ATOM     17  C   UNL     1       1.823   8.658  20.651  0.00  0.00    +0.000 C 
BRANCH  17  18
ATOM     18  C   UNL     1       0.358   9.112  20.706  0.00  0.00    +0.000 C 
ATOM     19  O   UNL     1      -0.482   8.562  21.407  0.00  0.00    +0.000 OA
ATOM     20  N   UNL     1       0.083  10.155  19.841  0.00  0.00    +0.000 N 
ATOM     21  H   UNL     1       0.842  10.390  19.199  0.00  0.00    +0.000 HD
BRANCH  20  22
ATOM     22  C   UNL     1      -1.230  10.430  19.287  0.00  0.00    +0.000 C 
ATOM     23  C   UNL     1      -1.484  10.082  17.817  0.00  0.00    +0.000 C 
ATOM     24  C   UNL     1      -2.999  10.173  17.555  0.00  0.00    +0.000 C 
ATOM     25  C   UNL     1      -3.594  11.530  17.950  0.00  0.00    +0.000 C 
ATOM     26  C   UNL     1      -3.155  12.018  19.332  0.00  0.00    +0.000 C 
ATOM     27  C   UNL     1      -1.652  11.881  19.533  0.00  0.00    +0.000 C 
ENDBRANCH  20  22
ENDBRANCH  17  18
ENDBRANCH   6  17
TORSDOF 4
ENDMDL
MODEL 4
REMARK VINA RESULT:      -7.1      4.303      6.020
REMARK  Name = 
REMARK  5 active torsions:
REMARK  status: ('A' for Active; 'I' for Inactive)
REMARK    1  A    between atoms: C_1  and  C_2
REMARK    2  A    between atoms: C_2  and  C_3
REMARK    3  A    between atoms: N_13  and  C_14
REMARK    4  A    between atoms: C_14  and  C_15
REMARK    5  A    between atoms: N_17  and  C_18
REMARK                            x       y       z     vdW  Elec       q    Type
REMARK                         _______ _______ _______ _____ _____    ______ ____
ROOT
ATOM      1  C   UNL     1       4.334   1.699  17.805  0.00  0.00    +0.000 C 
ATOM      2  C   UNL     1       4.300   3.024  18.563  0.00  0.00    +0.000 C 
ATOM      3  N   UNL     1       5.585   3.377  19.127  0.00  0.00    +0.000 N 
ATOM      4  C   UNL     1       5.903   4.696  18.922  0.00  0.00    +0.000 C 
ATOM      5  O   UNL     1       6.801   5.289  19.494  0.00  0.00    +0.000 OA
ATOM      6  N   UNL     1       5.082   5.200  17.972  0.00  0.00    +0.000 N 
ATOM      7  C   UNL     1       4.197   4.236  17.582  0.00  0.00    +0.000 C 
ATOM      8  O   UNL     1       3.389   4.346  16.667  0.00  0.00    +0.000 OA
ATOM      9  H   UNL     1       6.011   2.881  19.899  0.00  0.00    +0.000 HD
ENDROOT
BRANCH   2  10
ATOM     10  C   UNL     1       3.180   3.035  19.620  0.00  0.00    +0.000 A 
ATOM     11  C   UNL     1       1.966   3.694  19.320  0.00  0.00    +0.000 A 
ATOM     12  C   UNL     1       0.924   3.792  20.246  0.00  0.00    +0.000 A 
ATOM     13  C   UNL     1       1.053   3.219  21.500  0.00  0.00    +0.000 A 
ATOM     14  C   UNL     1       2.211   2.515  21.813  0.00  0.00    +0.000 A 
ATOM     15  C   UNL     1       3.256   2.400  20.880  0.00  0.00    +0.000 A 
ATOM     16 BR   UNL     1       4.706   1.297  21.439  0.00  0.00    +0.000 Br
ENDBRANCH   2  10
BRANCH   6  17
ATOM     17  C   UNL     1       5.134   6.567  17.478  0.00  0.00    +0.000 C 
BRANCH  17  18
ATOM     18  C   UNL     1       5.350   6.581  15.958  0.00  0.00    +0.000 C 
ATOM     19  O   UNL     1       4.706   7.298  15.202  0.00  0.00    +0.000 OA
ATOM     20  N   UNL     1       6.293   5.662  15.538  0.00  0.00    +0.000 N 
ATOM     21  H   UNL     1       6.616   5.019  16.262  0.00  0.00    +0.000 HD
BRANCH  20  22
ATOM     22  C   UNL     1       6.329   5.079  14.209  0.00  0.00    +0.000 C 
ATOM     23  C   UNL     1       5.844   3.635  14.038  0.00  0.00    +0.000 C 
ATOM     24  C   UNL     1       5.687   3.355  12.532  0.00  0.00    +0.000 C 
ATOM     25  C   UNL     1       6.964   3.646  11.733  0.00  0.00    +0.000 C 
ATOM     26  C   UNL     1       7.607   4.994  12.068  0.00  0.00    +0.000 C 
ATOM     27  C   UNL     1       7.713   5.217  13.570  0.00  0.00    +0.000 C 
ENDBRANCH  20  22
ENDBRANCH  17  18
ENDBRANCH   6  17
TORSDOF 4
ENDMDL
MODEL 5
REMARK VINA RESULT:      -7.1      4.154      5.509
REMARK  Name = 
REMARK  5 active torsions:
REMARK  status: ('A' for Active; 'I' for Inactive)
REMARK    1  A    between atoms: C_1  and  C_2
REMARK    2  A    between atoms: C_2  and  C_3
REMARK    3  A    between atoms: N_13  and  C_14
REMARK    4  A    between atoms: C_14  and  C_15
REMARK    5  A    between atoms: N_17  and  C_18
REMARK                            x       y       z     vdW  Elec       q    Type
REMARK                         _______ _______ _______ _____ _____    ______ ____
ROOT
ATOM      1  C   UNL     1       1.793   4.743  17.127  0.00  0.00    +0.000 C 
ATOM      2  C   UNL     1       2.791   5.045  18.242  0.00  0.00    +0.000 C 
ATOM      3  N   UNL     1       3.286   3.847  18.887  0.00  0.00    +0.000 N 
ATOM      4  C   UNL     1       4.644   3.878  19.080  0.00  0.00    +0.000 C 
ATOM      5  O   UNL     1       5.258   3.113  19.804  0.00  0.00    +0.000 OA
ATOM      6  N   UNL     1       5.170   4.866  18.320  0.00  0.00    +0.000 N 
ATOM      7  C   UNL     1       4.165   5.514  17.661  0.00  0.00    +0.000 C 
ATOM      8  O   UNL     1       4.321   6.389  16.818  0.00  0.00    +0.000 OA
ATOM      9  H   UNL     1       2.716   3.257  19.479  0.00  0.00    +0.000 HD
ENDROOT
BRANCH   2  10
ATOM     10  C   UNL     1       2.214   6.052  19.253  0.00  0.00    +0.000 A 
ATOM     11  C   UNL     1       2.228   7.429  18.928  0.00  0.00    +0.000 A 
ATOM     12  C   UNL     1       1.770   8.407  19.816  0.00  0.00    +0.000 A 
ATOM     13  C   UNL     1       1.265   8.042  21.052  0.00  0.00    +0.000 A 
ATOM     14  C   UNL     1       1.184   6.693  21.385  0.00  0.00    +0.000 A 
ATOM     15  C   UNL     1       1.629   5.704  20.491  0.00  0.00    +0.000 A 
ATOM     16 BR   UNL     1       1.325   3.913  21.067  0.00  0.00    +0.000 Br
ENDBRANCH   2  10
BRANCH   6  17
ATOM     17  C   UNL     1       6.587   5.187  18.250  0.00  0.00    +0.000 C 
BRANCH  17  18
ATOM     18  C   UNL     1       7.233   4.506  17.035  0.00  0.00    +0.000 C 
ATOM     19  O   UNL     1       8.405   4.151  17.019  0.00  0.00    +0.000 OA
ATOM     20  N   UNL     1       6.375   4.398  15.957  0.00  0.00    +0.000 N 
ATOM     21  H   UNL     1       5.489   4.894  16.064  0.00  0.00    +0.000 HD
BRANCH  20  22
ATOM     22  C   UNL     1       6.810   4.312  14.575  0.00  0.00    +0.000 C 
ATOM     23  C   UNL     1       7.466   5.544  13.943  0.00  0.00    +0.000 C 
ATOM     24  C   UNL     1       8.106   5.117  12.609  0.00  0.00    +0.000 C 
ATOM     25  C   UNL     1       7.115   4.427  11.663  0.00  0.00    +0.000 C 
ATOM     26  C   UNL     1       6.268   3.347  12.338  0.00  0.00    +0.000 C 
ATOM     27  C   UNL     1       5.683   3.825  13.660  0.00  0.00    +0.000 C 
ENDBRANCH  20  22
ENDBRANCH  17  18
ENDBRANCH   6  17
TORSDOF 4
ENDMDL
MODEL 6
REMARK VINA RESULT:      -7.0      4.246      6.019
REMARK  Name = 
REMARK  5 active torsions:
REMARK  status: ('A' for Active; 'I' for Inactive)
REMARK    1  A    between atoms: C_1  and  C_2
REMARK    2  A    between atoms: C_2  and  C_3
REMARK    3  A    between atoms: N_13  and  C_14
REMARK    4  A    between atoms: C_14  and  C_15
REMARK    5  A    between atoms: N_17  and  C_18
REMARK                            x       y       z     vdW  Elec       q    Type
REMARK                         _______ _______ _______ _____ _____    ______ ____
ROOT
ATOM      1  C   UNL     1       4.242   1.668  17.797  0.00  0.00    +0.000 C 
ATOM      2  C   UNL     1       4.247   2.973  18.590  0.00  0.00    +0.000 C 
ATOM      3  N   UNL     1       5.520   3.231  19.230  0.00  0.00    +0.000 N 
ATOM      4  C   UNL     1       5.928   4.532  19.080  0.00  0.00    +0.000 C 
ATOM      5  O   UNL     1       6.828   5.053  19.715  0.00  0.00    +0.000 OA
ATOM      6  N   UNL     1       5.191   5.110  18.103  0.00  0.00    +0.000 N 
ATOM      7  C   UNL     1       4.272   4.214  17.640  0.00  0.00    +0.000 C 
ATOM      8  O   UNL     1       3.522   4.396  16.688  0.00  0.00    +0.000 OA
ATOM      9  H   UNL     1       5.873   2.689  20.009  0.00  0.00    +0.000 HD
ENDROOT
BRANCH   2  10
ATOM     10  C   UNL     1       3.076   3.027  19.588  0.00  0.00    +0.000 A 
ATOM     11  C   UNL     1       3.323   2.722  20.947  0.00  0.00    +0.000 A 
ATOM     12  C   UNL     1       2.302   2.698  21.901  0.00  0.00    +0.000 A 
ATOM     13  C   UNL     1       1.001   2.996  21.534  0.00  0.00    +0.000 A 
ATOM     14  C   UNL     1       0.728   3.354  20.217  0.00  0.00    +0.000 A 
ATOM     15  C   UNL     1       1.753   3.394  19.257  0.00  0.00    +0.000 A 
ATOM     16 BR   UNL     1       1.213   4.025  17.541  0.00  0.00    +0.000 Br
ENDBRANCH   2  10
BRANCH   6  17
ATOM     17  C   UNL     1       5.353   6.483  17.652  0.00  0.00    +0.000 C 
BRANCH  17  18
ATOM     18  C   UNL     1       5.513   6.532  16.126  0.00  0.00    +0.000 C 
ATOM     19  O   UNL     1       4.841   7.264  15.411  0.00  0.00    +0.000 OA
ATOM     20  N   UNL     1       6.441   5.625  15.651  0.00  0.00    +0.000 N 
ATOM     21  H   UNL     1       6.792   4.966  16.348  0.00  0.00    +0.000 HD
BRANCH  20  22
ATOM     22  C   UNL     1       6.429   5.072  14.309  0.00  0.00    +0.000 C 
ATOM     23  C   UNL     1       5.952   3.627  14.125  0.00  0.00    +0.000 C 
ATOM     24  C   UNL     1       5.737   3.379  12.621  0.00  0.00    +0.000 C 
ATOM     25  C   UNL     1       6.977   3.701  11.778  0.00  0.00    +0.000 C 
ATOM     26  C   UNL     1       7.620   5.048  12.117  0.00  0.00    +0.000 C 
ATOM     27  C   UNL     1       7.784   5.239  13.618  0.00  0.00    +0.000 C 
ENDBRANCH  20  22
ENDBRANCH  17  18
ENDBRANCH   6  17
TORSDOF 4
ENDMDL
MODEL 7
REMARK VINA RESULT:      -6.9      4.317      7.759
REMARK  Name = 
REMARK  5 active torsions:
REMARK  status: ('A' for Active; 'I' for Inactive)
REMARK    1  A    between atoms: C_1  and  C_2
REMARK    2  A    between atoms: C_2  and  C_3
REMARK    3  A    between atoms: N_13  and  C_14
REMARK    4  A    between atoms: C_14  and  C_15
REMARK    5  A    between atoms: N_17  and  C_18
REMARK                            x       y       z     vdW  Elec       q    Type
REMARK                         _______ _______ _______ _____ _____    ______ ____
ROOT
ATOM      1  C   UNL     1       2.382   4.762  17.682  0.00  0.00    +0.000 C 
ATOM      2  C   UNL     1       3.038   6.062  18.140  0.00  0.00    +0.000 C 
ATOM      3  N   UNL     1       2.633   7.201  17.344  0.00  0.00    +0.000 N 
ATOM      4  C   UNL     1       2.333   8.298  18.113  0.00  0.00    +0.000 C 
ATOM      5  O   UNL     1       2.200   9.430  17.682  0.00  0.00    +0.000 OA
ATOM      6  N   UNL     1       2.183   7.902  19.398  0.00  0.00    +0.000 N 
ATOM      7  C   UNL     1       2.426   6.561  19.489  0.00  0.00    +0.000 C 
ATOM      8  O   UNL     1       2.275   5.881  20.498  0.00  0.00    +0.000 OA
ATOM      9  H   UNL     1       2.909   7.335  16.380  0.00  0.00    +0.000 HD
ENDROOT
BRANCH   2  10
ATOM     10  C   UNL     1       4.569   5.921  18.213  0.00  0.00    +0.000 A 
ATOM     11  C   UNL     1       5.151   5.410  19.397  0.00  0.00    +0.000 A 
ATOM     12  C   UNL     1       6.535   5.301  19.558  0.00  0.00    +0.000 A 
ATOM     13  C   UNL     1       7.386   5.684  18.535  0.00  0.00    +0.000 A 
ATOM     14  C   UNL     1       6.849   6.140  17.335  0.00  0.00    +0.000 A 
ATOM     15  C   UNL     1       5.458   6.237  17.162  0.00  0.00    +0.000 A 
ATOM     16 BR   UNL     1       4.907   6.762  15.414  0.00  0.00    +0.000 Br
ENDBRANCH   2  10
BRANCH   6  17
ATOM     17  C   UNL     1       1.843   8.788  20.499  0.00  0.00    +0.000 C 
BRANCH  17  18
ATOM     18  C   UNL     1       0.347   9.130  20.471  0.00  0.00    +0.000 C 
ATOM     19  O   UNL     1      -0.488   8.514  21.123  0.00  0.00    +0.000 OA
ATOM     20  N   UNL     1       0.043  10.154  19.594  0.00  0.00    +0.000 N 
ATOM     21  H   UNL     1       0.817  10.450  18.997  0.00  0.00    +0.000 HD
BRANCH  20  22
ATOM     22  C   UNL     1      -1.254  10.333  18.967  0.00  0.00    +0.000 C 
ATOM     23  C   UNL     1      -1.412   9.918  17.500  0.00  0.00    +0.000 C 
ATOM     24  C   UNL     1      -2.915   9.911  17.162  0.00  0.00    +0.000 C 
ATOM     25  C   UNL     1      -3.604  11.245  17.474  0.00  0.00    +0.000 C 
ATOM     26  C   UNL     1      -3.264  11.807  18.856  0.00  0.00    +0.000 C 
ATOM     27  C   UNL     1      -1.768  11.765  19.136  0.00  0.00    +0.000 C 
ENDBRANCH  20  22
ENDBRANCH  17  18
ENDBRANCH   6  17
TORSDOF 4
ENDMDL
MODEL 8
REMARK VINA RESULT:      -6.8      4.281      7.420
REMARK  Name = 
REMARK  5 active torsions:
REMARK  status: ('A' for Active; 'I' for Inactive)
REMARK    1  A    between atoms: C_1  and  C_2
REMARK    2  A    between atoms: C_2  and  C_3
REMARK    3  A    between atoms: N_13  and  C_14
REMARK    4  A    between atoms: C_14  and  C_15
REMARK    5  A    between atoms: N_17  and  C_18
REMARK                            x       y       z     vdW  Elec       q    Type
REMARK                         _______ _______ _______ _____ _____    ______ ____
ROOT
ATOM      1  C   UNL     1       1.830   4.734  17.798  0.00  0.00    +0.000 C 
ATOM      2  C   UNL     1       2.571   5.940  18.367  0.00  0.00    +0.000 C 
ATOM      3  N   UNL     1       2.045   7.199  17.882  0.00  0.00    +0.000 N 
ATOM      4  C   UNL     1       1.899   8.126  18.883  0.00  0.00    +0.000 C 
ATOM      5  O   UNL     1       1.705   9.316  18.701  0.00  0.00    +0.000 OA
ATOM      6  N   UNL     1       1.975   7.495  20.077  0.00  0.00    +0.000 N 
ATOM      7  C   UNL     1       2.214   6.167  19.872  0.00  0.00    +0.000 C 
ATOM      8  O   UNL     1       2.237   5.308  20.747  0.00  0.00    +0.000 OA
ATOM      9  H   UNL     1       2.147   7.515  16.927  0.00  0.00    +0.000 HD
ENDROOT
BRANCH   2  10
ATOM     10  C   UNL     1       4.090   5.822  18.141  0.00  0.00    +0.000 A 
ATOM     11  C   UNL     1       4.781   6.915  17.567  0.00  0.00    +0.000 A 
ATOM     12  C   UNL     1       6.148   6.864  17.283  0.00  0.00    +0.000 A 
ATOM     13  C   UNL     1       6.877   5.725  17.580  0.00  0.00    +0.000 A 
ATOM     14  C   UNL     1       6.243   4.649  18.195  0.00  0.00    +0.000 A 
ATOM     15  C   UNL     1       4.872   4.701  18.497  0.00  0.00    +0.000 A 
ATOM     16 BR   UNL     1       4.208   3.189  19.448  0.00  0.00    +0.000 Br
ENDBRANCH   2  10
BRANCH   6  17
ATOM     17  C   UNL     1       1.846   8.154  21.368  0.00  0.00    +0.000 C 
BRANCH  17  18
ATOM     18  C   UNL     1       0.430   8.720  21.542  0.00  0.00    +0.000 C 
ATOM     19  O   UNL     1      -0.567   8.011  21.596  0.00  0.00    +0.000 OA
ATOM     20  N   UNL     1       0.400  10.101  21.569  0.00  0.00    +0.000 N 
ATOM     21  H   UNL     1       1.287  10.553  21.340  0.00  0.00    +0.000 HD
BRANCH  20  22
ATOM     22  C   UNL     1      -0.754  10.900  21.193  0.00  0.00    +0.000 C 
ATOM     23  C   UNL     1      -0.745  11.585  19.823  0.00  0.00    +0.000 C 
ATOM     24  C   UNL     1      -2.167  12.100  19.534  0.00  0.00    +0.000 C 
ATOM     25  C   UNL     1      -2.713  13.008  20.643  0.00  0.00    +0.000 C 
ATOM     26  C   UNL     1      -2.511  12.448  22.053  0.00  0.00    +0.000 C 
ATOM     27  C   UNL     1      -1.093  11.938  22.266  0.00  0.00    +0.000 C 
ENDBRANCH  20  22
ENDBRANCH  17  18
ENDBRANCH   6  17
TORSDOF 4
ENDMDL
MODEL 9
REMARK VINA RESULT:      -6.8      7.883     11.359
REMARK  Name = 
REMARK  5 active torsions:
REMARK  status: ('A' for Active; 'I' for Inactive)
REMARK    1  A    between atoms: C_1  and  C_2
REMARK    2  A    between atoms: C_2  and  C_3
REMARK    3  A    between atoms: N_13  and  C_14
REMARK    4  A    between atoms: C_14  and  C_15
REMARK    5  A    between atoms: N_17  and  C_18
REMARK                            x       y       z     vdW  Elec       q    Type
REMARK                         _______ _______ _______ _____ _____    ______ ____
ROOT
ATOM      1  C   UNL     1       1.608  12.127  19.718  0.00  0.00    +0.000 C 
ATOM      2  C   UNL     1       0.258  11.753  20.326  0.00  0.00    +0.000 C 
ATOM      3  N   UNL     1       0.380  10.801  21.410  0.00  0.00    +0.000 N 
ATOM      4  C   UNL     1      -0.397  11.135  22.490  0.00  0.00    +0.000 C 
ATOM      5  O   UNL     1      -0.653  10.386  23.417  0.00  0.00    +0.000 OA
ATOM      6  N   UNL     1      -0.795  12.422  22.361  0.00  0.00    +0.000 N 
ATOM      7  C   UNL     1      -0.322  12.925  21.183  0.00  0.00    +0.000 C 
ATOM      8  O   UNL     1      -0.423  14.091  20.819  0.00  0.00    +0.000 OA
ATOM      9  H   UNL     1       0.652   9.836  21.277  0.00  0.00    +0.000 HD
ENDROOT
BRANCH   2  10
ATOM     10  C   UNL     1      -0.730  11.278  19.245  0.00  0.00    +0.000 A 
ATOM     11  C   UNL     1      -1.991  11.911  19.149  0.00  0.00    +0.000 A 
ATOM     12  C   UNL     1      -2.961  11.501  18.230  0.00  0.00    +0.000 A 
ATOM     13  C   UNL     1      -2.698  10.456  17.362  0.00  0.00    +0.000 A 
ATOM     14  C   UNL     1      -1.448   9.844  17.389  0.00  0.00    +0.000 A 
ATOM     15  C   UNL     1      -0.464  10.262  18.301  0.00  0.00    +0.000 A 
ATOM     16 BR   UNL     1       1.222   9.394  18.108  0.00  0.00    +0.000 Br
ENDBRANCH   2  10
BRANCH   6  17
ATOM     17  C   UNL     1      -1.619  13.132  23.326  0.00  0.00    +0.000 C 
BRANCH  17  18
ATOM     18  C   UNL     1      -3.088  12.710  23.192  0.00  0.00    +0.000 C 
ATOM     19  O   UNL     1      -3.581  11.802  23.849  0.00  0.00    +0.000 OA
ATOM     20  N   UNL     1      -3.766  13.416  22.216  0.00  0.00    +0.000 N 
ATOM     21  H   UNL     1      -3.178  14.018  21.637  0.00  0.00    +0.000 HD
BRANCH  20  22
ATOM     22  C   UNL     1      -4.932  12.917  21.509  0.00  0.00    +0.000 C 
ATOM     23  C   UNL     1      -5.236  13.488  20.120  0.00  0.00    +0.000 C 
ATOM     24  C   UNL     1      -6.310  12.602  19.461  0.00  0.00    +0.000 C 
ATOM     25  C   UNL     1      -7.569  12.447  20.322  0.00  0.00    +0.000 C 
ATOM     26  C   UNL     1      -7.278  12.113  21.786  0.00  0.00    +0.000 C 
ATOM     27  C   UNL     1      -6.194  13.009  22.370  0.00  0.00    +0.000 C 
ENDBRANCH  20  22
ENDBRANCH  17  18
ENDBRANCH   6  17
TORSDOF 4
ENDMDL
