MODEL 1
REMARK VINA RESULT:      -7.8      0.000      0.000
REMARK  Name = 
REMARK  5 active torsions:
REMARK  status: ('A' for Active; 'I' for Inactive)
REMARK    1  A    between atoms: C_1  and  C_2
REMARK    2  A    between atoms: C_6  and  N_7
REMARK    3  A    between atoms: C_8  and  C_10
REMARK    4  A    between atoms: C_11  and  N_12
REMARK    5  A    between atoms: C_18  and  C_19
REMARK                            x       y       z     vdW  Elec       q    Type
REMARK                         _______ _______ _______ _____ _____    ______ ____
ROOT
ATOM      1  C   UNL     1       3.982   5.039  17.789  0.00  0.00    +0.000 A 
ATOM      2  C   UNL     1       3.739   6.362  18.138  0.00  0.00    +0.000 A 
ATOM      3  S   UNL     1       2.465   6.509  19.277  0.00  0.00    +0.000 S 
ATOM      4  C   UNL     1       2.199   4.838  19.308  0.00  0.00    +0.000 A 
ATOM      5  C   UNL     1       3.065   4.149  18.483  0.00  0.00    +0.000 A 
ATOM      6  C   UNL     1       3.059   2.641  18.418  0.00  0.00    +0.000 C 
ATOM      7  C   UNL     1       1.859   2.013  19.149  0.00  0.00    +0.000 C 
ATOM      8  C   UNL     1       1.477   2.738  20.455  0.00  0.00    +0.000 C 
ATOM      9  C   UNL     1       2.573   2.618  21.519  0.00  0.00    +0.000 C 
ATOM     10  C   UNL     1       1.134   4.213  20.158  0.00  0.00    +0.000 C 
ENDROOT
BRANCH   1  12
ATOM     11  N   UNL     1       4.803   4.978  15.498  0.00  0.00    +0.000 N 
ATOM     12  C   UNL     1       4.986   4.571  16.815  0.00  0.00    +0.000 C 
ATOM     13  O   UNL     1       5.938   3.903  17.205  0.00  0.00    +0.000 OA
ATOM     14  H   UNL     1       4.084   5.676  15.342  0.00  0.00    +0.000 HD
BRANCH  11  20
ATOM     15  C   UNL     1       5.536   2.247  11.417  0.00  0.00    +0.000 C 
ATOM     16  C   UNL     1       6.008   3.282  12.396  0.00  0.00    +0.000 A 
ATOM     17  C   UNL     1       7.235   3.923  12.190  0.00  0.00    +0.000 A 
ATOM     18  C   UNL     1       7.675   4.889  13.087  0.00  0.00    +0.000 A 
ATOM     19  C   UNL     1       6.887   5.234  14.187  0.00  0.00    +0.000 A 
ATOM     20  C   UNL     1       5.646   4.628  14.409  0.00  0.00    +0.000 A 
ATOM     21  C   UNL     1       5.227   3.629  13.517  0.00  0.00    +0.000 A 
ENDBRANCH  11  20
ENDBRANCH   1  12
BRANCH   2  22
ATOM     22  N   UNL     1       4.341   7.493  17.687  0.00  0.00    +0.000 N 
ATOM     23  H   UNL     1       3.747   8.210  17.275  0.00  0.00    +0.000 HD
ATOM     24  H   UNL     1       5.002   7.912  18.342  0.00  0.00    +0.000 HD
ENDBRANCH   2  22
TORSDOF 3
ENDMDL
MODEL 2
REMARK VINA RESULT:      -7.3      3.925      7.505
REMARK  Name = 
REMARK  5 active torsions:
REMARK  status: ('A' for Active; 'I' for Inactive)
REMARK    1  A    between atoms: C_1  and  C_2
REMARK    2  A    between atoms: C_6  and  N_7
REMARK    3  A    between atoms: C_8  and  C_10
REMARK    4  A    between atoms: C_11  and  N_12
REMARK    5  A    between atoms: C_18  and  C_19
REMARK                            x       y       z     vdW  Elec       q    Type
REMARK                         _______ _______ _______ _____ _____    ______ ____
ROOT
ATOM      1  C   UNL     1       3.050   6.360  18.565  0.00  0.00    +0.000 A 
ATOM      2  C   UNL     1       4.205   6.147  17.823  0.00  0.00    +0.000 A 
ATOM      3  S   UNL     1       4.802   4.548  17.995  0.00  0.00    +0.000 S 
ATOM      4  C   UNL     1       3.563   4.120  19.064  0.00  0.00    +0.000 A 
ATOM      5  C   UNL     1       2.682   5.157  19.295  0.00  0.00    +0.000 A 
ATOM      6  C   UNL     1       1.454   4.971  20.155  0.00  0.00    +0.000 C 
ATOM      7  C   UNL     1       1.447   3.631  20.910  0.00  0.00    +0.000 C 
ATOM      8  C   UNL     1       2.010   2.452  20.091  0.00  0.00    +0.000 C 
ATOM      9  C   UNL     1       1.128   2.120  18.882  0.00  0.00    +0.000 C 
ATOM     10  C   UNL     1       3.463   2.751  19.668  0.00  0.00    +0.000 C 
ENDROOT
BRANCH   1  12
ATOM     11  N   UNL     1       1.845   7.978  19.927  0.00  0.00    +0.000 N 
ATOM     12  C   UNL     1       2.303   7.628  18.661  0.00  0.00    +0.000 C 
ATOM     13  O   UNL     1       2.163   8.323  17.661  0.00  0.00    +0.000 OA
ATOM     14  H   UNL     1       2.184   7.412  20.697  0.00  0.00    +0.000 HD
BRANCH  11  20
ATOM     15  C   UNL     1      -0.976  10.475  23.160  0.00  0.00    +0.000 C 
ATOM     16  C   UNL     1      -0.294  10.379  21.827  0.00  0.00    +0.000 A 
ATOM     17  C   UNL     1      -0.353  11.458  20.937  0.00  0.00    +0.000 A 
ATOM     18  C   UNL     1       0.284  11.381  19.705  0.00  0.00    +0.000 A 
ATOM     19  C   UNL     1       1.000  10.234  19.358  0.00  0.00    +0.000 A 
ATOM     20  C   UNL     1       1.098   9.147  20.233  0.00  0.00    +0.000 A 
ATOM     21  C   UNL     1       0.422   9.221  21.460  0.00  0.00    +0.000 A 
ENDBRANCH  11  20
ENDBRANCH   1  12
BRANCH   2  22
ATOM     22  N   UNL     1       4.897   7.018  17.044  0.00  0.00    +0.000 N 
ATOM     23  H   UNL     1       4.532   7.209  16.113  0.00  0.00    +0.000 HD
ATOM     24  H   UNL     1       5.158   7.889  17.509  0.00  0.00    +0.000 HD
ENDBRANCH   2  22
TORSDOF 3
ENDMDL
MODEL 3
REMARK VINA RESULT:      -7.3      4.002      6.903
REMARK  Name = 
REMARK  5 active torsions:
REMARK  status: ('A' for Active; 'I' for Inactive)
REMARK    1  A    between atoms: C_1  and  C_2
REMARK    2  A    between atoms: C_6  and  N_7
REMARK    3  A    between atoms: C_8  and  C_10
REMARK    4  A    between atoms: C_11  and  N_12
REMARK    5  A    between atoms: C_18  and  C_19
REMARK                            x       y       z     vdW  Elec       q    Type
REMARK                         _______ _______ _______ _____ _____    ______ ____
ROOT
ATOM      1  C   UNL     1       2.820   6.390  18.780  0.00  0.00    +0.000 A 
ATOM      2  C   UNL     1       3.844   6.230  17.855  0.00  0.00    +0.000 A 
ATOM      3  S   UNL     1       4.339   4.594  17.712  0.00  0.00    +0.000 S 
ATOM      4  C   UNL     1       3.231   4.078  18.881  0.00  0.00    +0.000 A 
ATOM      5  C   UNL     1       2.468   5.113  19.381  0.00  0.00    +0.000 A 
ATOM      6  C   UNL     1       1.361   4.866  20.377  0.00  0.00    +0.000 C 
ATOM      7  C   UNL     1       1.359   3.431  20.930  0.00  0.00    +0.000 C 
ATOM      8  C   UNL     1       1.716   2.359  19.881  0.00  0.00    +0.000 C 
ATOM      9  C   UNL     1       0.654   2.258  18.780  0.00  0.00    +0.000 C 
ATOM     10  C   UNL     1       3.115   2.641  19.295  0.00  0.00    +0.000 C 
ENDROOT
BRANCH   1  12
ATOM     11  N   UNL     1       1.735   8.466  18.117  0.00  0.00    +0.000 N 
ATOM     12  C   UNL     1       2.189   7.667  19.161  0.00  0.00    +0.000 C 
ATOM     13  O   UNL     1       2.052   7.941  20.348  0.00  0.00    +0.000 OA
ATOM     14  H   UNL     1       1.743   8.043  17.195  0.00  0.00    +0.000 HD
BRANCH  11  20
ATOM     15  C   UNL     1      -2.449  11.131  18.309  0.00  0.00    +0.000 C 
ATOM     16  C   UNL     1      -0.952  11.049  18.361  0.00  0.00    +0.000 A 
ATOM     17  C   UNL     1      -0.202  12.203  18.614  0.00  0.00    +0.000 A 
ATOM     18  C   UNL     1       1.185  12.134  18.674  0.00  0.00    +0.000 A 
ATOM     19  C   UNL     1       1.833  10.910  18.499  0.00  0.00    +0.000 A 
ATOM     20  C   UNL     1       1.112   9.734  18.267  0.00  0.00    +0.000 A 
ATOM     21  C   UNL     1      -0.286   9.820  18.174  0.00  0.00    +0.000 A 
ENDBRANCH  11  20
ENDBRANCH   1  12
BRANCH   2  22
ATOM     22  N   UNL     1       4.484   7.170  17.112  0.00  0.00    +0.000 N 
ATOM     23  H   UNL     1       5.437   7.411  17.377  0.00  0.00    +0.000 HD
ATOM     24  H   UNL     1       4.420   7.029  16.103  0.00  0.00    +0.000 HD
ENDBRANCH   2  22
TORSDOF 3
ENDMDL
MODEL 4
REMARK VINA RESULT:      -7.2      3.860      7.223
REMARK  Name = 
REMARK  5 active torsions:
REMARK  status: ('A' for Active; 'I' for Inactive)
REMARK    1  A    between atoms: C_1  and  C_2
REMARK    2  A    between atoms: C_6  and  N_7
REMARK    3  A    between atoms: C_8  and  C_10
REMARK    4  A    between atoms: C_11  and  N_12
REMARK    5  A    between atoms: C_18  and  C_19
REMARK                            x       y       z     vdW  Elec       q    Type
REMARK                         _______ _______ _______ _____ _____    ______ ____
ROOT
ATOM      1  C   UNL     1       2.902   5.752  18.206  0.00  0.00    +0.000 A 
ATOM      2  C   UNL     1       2.319   4.514  18.451  0.00  0.00    +0.000 A 
ATOM      3  S   UNL     1       3.150   3.238  17.662  0.00  0.00    +0.000 S 
ATOM      4  C   UNL     1       4.273   4.297  16.969  0.00  0.00    +0.000 A 
ATOM      5  C   UNL     1       4.053   5.611  17.328  0.00  0.00    +0.000 A 
ATOM      6  C   UNL     1       4.985   6.714  16.889  0.00  0.00    +0.000 C 
ATOM      7  C   UNL     1       6.007   6.254  15.835  0.00  0.00    +0.000 C 
ATOM      8  C   UNL     1       6.544   4.828  16.071  0.00  0.00    +0.000 C 
ATOM      9  C   UNL     1       7.375   4.734  17.356  0.00  0.00    +0.000 C 
ATOM     10  C   UNL     1       5.377   3.819  16.075  0.00  0.00    +0.000 C 
ENDROOT
BRANCH   1  12
ATOM     11  N   UNL     1       1.994   7.963  17.748  0.00  0.00    +0.000 N 
ATOM     12  C   UNL     1       2.419   7.052  18.708  0.00  0.00    +0.000 C 
ATOM     13  O   UNL     1       2.369   7.250  19.917  0.00  0.00    +0.000 OA
ATOM     14  H   UNL     1       1.914   7.609  16.801  0.00  0.00    +0.000 HD
BRANCH  11  20
ATOM     15  C   UNL     1      -1.884  10.939  18.618  0.00  0.00    +0.000 C 
ATOM     16  C   UNL     1      -0.407  10.738  18.447  0.00  0.00    +0.000 A 
ATOM     17  C   UNL     1       0.465  11.820  18.615  0.00  0.00    +0.000 A 
ATOM     18  C   UNL     1       1.835  11.641  18.468  0.00  0.00    +0.000 A 
ATOM     19  C   UNL     1       2.347  10.377  18.170  0.00  0.00    +0.000 A 
ATOM     20  C   UNL     1       1.505   9.269  18.019  0.00  0.00    +0.000 A 
ATOM     21  C   UNL     1       0.121   9.468  18.134  0.00  0.00    +0.000 A 
ENDBRANCH  11  20
ENDBRANCH   1  12
BRANCH   2  22
ATOM     22  N   UNL     1       1.212   4.217  19.179  0.00  0.00    +0.000 N 
ATOM     23  H   UNL     1       0.630   3.445  18.857  0.00  0.00    +0.000 HD
ATOM     24  H   UNL     1       1.370   4.147  20.185  0.00  0.00    +0.000 HD
ENDBRANCH   2  22
TORSDOF 3
ENDMDL
MODEL 5
REMARK VINA RESULT:      -7.2      3.947      6.919
REMARK  Name = 
REMARK  5 active torsions:
REMARK  status: ('A' for Active; 'I' for Inactive)
REMARK    1  A    between atoms: C_1  and  C_2
REMARK    2  A    between atoms: C_6  and  N_7
REMARK    3  A    between atoms: C_8  and  C_10
REMARK    4  A    between atoms: C_11  and  N_12
REMARK    5  A    between atoms: C_18  and  C_19
REMARK                            x       y       z     vdW  Elec       q    Type
REMARK                         _______ _______ _______ _____ _____    ______ ____
ROOT
ATOM      1  C   UNL     1       2.839   6.371  18.768  0.00  0.00    +0.000 A 
ATOM      2  C   UNL     1       3.838   6.200  17.817  0.00  0.00    +0.000 A 
ATOM      3  S   UNL     1       4.305   4.558  17.655  0.00  0.00    +0.000 S 
ATOM      4  C   UNL     1       3.217   4.052  18.848  0.00  0.00    +0.000 A 
ATOM      5  C   UNL     1       2.483   5.096  19.372  0.00  0.00    +0.000 A 
ATOM      6  C   UNL     1       1.396   4.860  20.393  0.00  0.00    +0.000 C 
ATOM      7  C   UNL     1       1.387   3.422  20.940  0.00  0.00    +0.000 C 
ATOM      8  C   UNL     1       1.702   2.351  19.877  0.00  0.00    +0.000 C 
ATOM      9  C   UNL     1       0.613   2.271  18.802  0.00  0.00    +0.000 C 
ATOM     10  C   UNL     1       3.091   2.615  19.258  0.00  0.00    +0.000 C 
ENDROOT
BRANCH   1  12
ATOM     11  N   UNL     1       1.851   8.504  18.139  0.00  0.00    +0.000 N 
ATOM     12  C   UNL     1       2.236   7.655  19.171  0.00  0.00    +0.000 C 
ATOM     13  O   UNL     1       2.062   7.893  20.361  0.00  0.00    +0.000 OA
ATOM     14  H   UNL     1       1.880   8.114  17.204  0.00  0.00    +0.000 HD
BRANCH  11  20
ATOM     15  C   UNL     1       2.440  13.426  18.420  0.00  0.00    +0.000 C 
ATOM     16  C   UNL     1       1.555  12.215  18.450  0.00  0.00    +0.000 A 
ATOM     17  C   UNL     1       0.171  12.370  18.585  0.00  0.00    +0.000 A 
ATOM     18  C   UNL     1      -0.657  11.255  18.604  0.00  0.00    +0.000 A 
ATOM     19  C   UNL     1      -0.112   9.976  18.470  0.00  0.00    +0.000 A 
ATOM     20  C   UNL     1       1.265   9.787  18.311  0.00  0.00    +0.000 A 
ATOM     21  C   UNL     1       2.096  10.918  18.328  0.00  0.00    +0.000 A 
ENDBRANCH  11  20
ENDBRANCH   1  12
BRANCH   2  22
ATOM     22  N   UNL     1       4.473   7.134  17.064  0.00  0.00    +0.000 N 
ATOM     23  H   UNL     1       3.947   7.564  16.305  0.00  0.00    +0.000 HD
ATOM     24  H   UNL     1       4.970   7.846  17.600  0.00  0.00    +0.000 HD
ENDBRANCH   2  22
TORSDOF 3
ENDMDL
MODEL 6
REMARK VINA RESULT:      -7.2      4.008      7.846
REMARK  Name = 
REMARK  5 active torsions:
REMARK  status: ('A' for Active; 'I' for Inactive)
REMARK    1  A    between atoms: C_1  and  C_2
REMARK    2  A    between atoms: C_6  and  N_7
REMARK    3  A    between atoms: C_8  and  C_10
REMARK    4  A    between atoms: C_11  and  N_12
REMARK    5  A    between atoms: C_18  and  C_19
REMARK                            x       y       z     vdW  Elec       q    Type
REMARK                         _______ _______ _______ _____ _____    ______ ____
ROOT
ATOM      1  C   UNL     1       2.989   5.100  19.668  0.00  0.00    +0.000 A 
ATOM      2  C   UNL     1       3.270   3.823  20.138  0.00  0.00    +0.000 A 
ATOM      3  S   UNL     1       4.511   3.058  19.234  0.00  0.00    +0.000 S 
ATOM      4  C   UNL     1       4.680   4.385  18.199  0.00  0.00    +0.000 A 
ATOM      5  C   UNL     1       3.826   5.420  18.522  0.00  0.00    +0.000 A 
ATOM      6  C   UNL     1       3.863   6.734  17.779  0.00  0.00    +0.000 C 
ATOM      7  C   UNL     1       4.744   6.687  16.519  0.00  0.00    +0.000 C 
ATOM      8  C   UNL     1       6.029   5.851  16.688  0.00  0.00    +0.000 C 
ATOM      9  C   UNL     1       6.991   6.477  17.705  0.00  0.00    +0.000 C 
ATOM     10  C   UNL     1       5.666   4.400  17.070  0.00  0.00    +0.000 C 
ENDROOT
BRANCH   1  12
ATOM     11  N   UNL     1       2.271   7.367  20.188  0.00  0.00    +0.000 N 
ATOM     12  C   UNL     1       1.959   6.012  20.201  0.00  0.00    +0.000 C 
ATOM     13  O   UNL     1       0.886   5.554  20.577  0.00  0.00    +0.000 OA
ATOM     14  H   UNL     1       3.112   7.628  19.684  0.00  0.00    +0.000 HD
BRANCH  11  20
ATOM     15  C   UNL     1      -0.784  11.145  19.166  0.00  0.00    +0.000 C 
ATOM     16  C   UNL     1      -0.080  10.269  20.161  0.00  0.00    +0.000 A 
ATOM     17  C   UNL     1      -0.310  10.449  21.530  0.00  0.00    +0.000 A 
ATOM     18  C   UNL     1       0.329   9.636  22.457  0.00  0.00    +0.000 A 
ATOM     19  C   UNL     1       1.192   8.626  22.026  0.00  0.00    +0.000 A 
ATOM     20  C   UNL     1       1.426   8.405  20.664  0.00  0.00    +0.000 A 
ATOM     21  C   UNL     1       0.802   9.254  19.737  0.00  0.00    +0.000 A 
ENDBRANCH  11  20
ENDBRANCH   1  12
BRANCH   2  22
ATOM     22  N   UNL     1       2.689   3.135  21.154  0.00  0.00    +0.000 N 
ATOM     23  H   UNL     1       2.705   2.118  21.105  0.00  0.00    +0.000 HD
ATOM     24  H   UNL     1       2.957   3.451  22.088  0.00  0.00    +0.000 HD
ENDBRANCH   2  22
TORSDOF 3
ENDMDL
MODEL 7
REMARK VINA RESULT:      -7.2      4.039      7.624
REMARK  Name = 
REMARK  5 active torsions:
REMARK  status: ('A' for Active; 'I' for Inactive)
REMARK    1  A    between atoms: C_1  and  C_2
REMARK    2  A    between atoms: C_6  and  N_7
REMARK    3  A    between atoms: C_8  and  C_10
REMARK    4  A    between atoms: C_11  and  N_12
REMARK    5  A    between atoms: C_18  and  C_19
REMARK                            x       y       z     vdW  Elec       q    Type
REMARK                         _______ _______ _______ _____ _____    ______ ____
ROOT
ATOM      1  C   UNL     1       2.901   6.335  18.973  0.00  0.00    +0.000 A 
ATOM      2  C   UNL     1       4.009   6.198  18.146  0.00  0.00    +0.000 A 
ATOM      3  S   UNL     1       4.568   4.577  18.074  0.00  0.00    +0.000 S 
ATOM      4  C   UNL     1       3.377   4.039  19.148  0.00  0.00    +0.000 A 
ATOM      5  C   UNL     1       2.539   5.055  19.562  0.00  0.00    +0.000 A 
ATOM      6  C   UNL     1       1.356   4.784  20.459  0.00  0.00    +0.000 C 
ATOM      7  C   UNL     1       1.351   3.357  21.033  0.00  0.00    +0.000 C 
ATOM      8  C   UNL     1       1.835   2.284  20.037  0.00  0.00    +0.000 C 
ATOM      9  C   UNL     1       0.880   2.132  18.848  0.00  0.00    +0.000 C 
ATOM     10  C   UNL     1       3.271   2.606  19.573  0.00  0.00    +0.000 C 
ENDROOT
BRANCH   1  12
ATOM     11  N   UNL     1       1.739   7.746  20.580  0.00  0.00    +0.000 N 
ATOM     12  C   UNL     1       2.197   7.595  19.276  0.00  0.00    +0.000 C 
ATOM     13  O   UNL     1       2.092   8.451  18.405  0.00  0.00    +0.000 OA
ATOM     14  H   UNL     1       2.050   7.048  21.248  0.00  0.00    +0.000 HD
BRANCH  11  20
ATOM     15  C   UNL     1      -0.319  12.175  19.689  0.00  0.00    +0.000 C 
ATOM     16  C   UNL     1       0.015  11.059  20.635  0.00  0.00    +0.000 A 
ATOM     17  C   UNL     1      -0.426  11.118  21.961  0.00  0.00    +0.000 A 
ATOM     18  C   UNL     1      -0.131  10.084  22.841  0.00  0.00    +0.000 A 
ATOM     19  C   UNL     1       0.593   8.974  22.399  0.00  0.00    +0.000 A 
ATOM     20  C   UNL     1       1.029   8.874  21.073  0.00  0.00    +0.000 A 
ATOM     21  C   UNL     1       0.755   9.940  20.202  0.00  0.00    +0.000 A 
ENDBRANCH  11  20
ENDBRANCH   1  12
BRANCH   2  22
ATOM     22  N   UNL     1       4.681   7.148  17.447  0.00  0.00    +0.000 N 
ATOM     23  H   UNL     1       4.135   7.781  16.865  0.00  0.00    +0.000 HD
ATOM     24  H   UNL     1       5.366   7.671  17.994  0.00  0.00    +0.000 HD
ENDBRANCH   2  22
TORSDOF 3
ENDMDL
MODEL 8
REMARK VINA RESULT:      -7.2      3.884      7.880
REMARK  Name = 
REMARK  5 active torsions:
REMARK  status: ('A' for Active; 'I' for Inactive)
REMARK    1  A    between atoms: C_1  and  C_2
REMARK    2  A    between atoms: C_6  and  N_7
REMARK    3  A    between atoms: C_8  and  C_10
REMARK    4  A    between atoms: C_11  and  N_12
REMARK    5  A    between atoms: C_18  and  C_19
REMARK                            x       y       z     vdW  Elec       q    Type
REMARK                         _______ _______ _______ _____ _____    ______ ____
ROOT
ATOM      1  C   UNL     1       3.143   5.061  19.488  0.00  0.00    +0.000 A 
ATOM      2  C   UNL     1       3.401   3.786  19.977  0.00  0.00    +0.000 A 
ATOM      3  S   UNL     1       4.657   3.002  19.111  0.00  0.00    +0.000 S 
ATOM      4  C   UNL     1       4.862   4.318  18.067  0.00  0.00    +0.000 A 
ATOM      5  C   UNL     1       4.009   5.363  18.359  0.00  0.00    +0.000 A 
ATOM      6  C   UNL     1       4.076   6.669  17.605  0.00  0.00    +0.000 C 
ATOM      7  C   UNL     1       4.987   6.601  16.367  0.00  0.00    +0.000 C 
ATOM      8  C   UNL     1       6.260   5.757  16.575  0.00  0.00    +0.000 C 
ATOM      9  C   UNL     1       7.202   6.385  17.608  0.00  0.00    +0.000 C 
ATOM     10  C   UNL     1       5.876   4.313  16.963  0.00  0.00    +0.000 C 
ENDROOT
BRANCH   1  12
ATOM     11  N   UNL     1       2.366   7.343  19.824  0.00  0.00    +0.000 N 
ATOM     12  C   UNL     1       2.108   5.987  19.986  0.00  0.00    +0.000 C 
ATOM     13  O   UNL     1       1.074   5.534  20.465  0.00  0.00    +0.000 OA
ATOM     14  H   UNL     1       3.168   7.581  19.250  0.00  0.00    +0.000 HD
BRANCH  11  20
ATOM     15  C   UNL     1      -0.112   9.575  23.502  0.00  0.00    +0.000 C 
ATOM     16  C   UNL     1       0.286   9.497  22.057  0.00  0.00    +0.000 A 
ATOM     17  C   UNL     1      -0.142  10.486  21.165  0.00  0.00    +0.000 A 
ATOM     18  C   UNL     1       0.230  10.427  19.827  0.00  0.00    +0.000 A 
ATOM     19  C   UNL     1       1.045   9.388  19.373  0.00  0.00    +0.000 A 
ATOM     20  C   UNL     1       1.508   8.396  20.243  0.00  0.00    +0.000 A 
ATOM     21  C   UNL     1       1.099   8.446  21.585  0.00  0.00    +0.000 A 
ENDBRANCH  11  20
ENDBRANCH   1  12
BRANCH   2  22
ATOM     22  N   UNL     1       2.790   3.114  20.986  0.00  0.00    +0.000 N 
ATOM     23  H   UNL     1       2.364   2.216  20.764  0.00  0.00    +0.000 HD
ATOM     24  H   UNL     1       3.339   3.045  21.844  0.00  0.00    +0.000 HD
ENDBRANCH   2  22
TORSDOF 3
ENDMDL
MODEL 9
REMARK VINA RESULT:      -7.1      3.823      7.289
REMARK  Name = 
REMARK  5 active torsions:
REMARK  status: ('A' for Active; 'I' for Inactive)
REMARK    1  A    between atoms: C_1  and  C_2
REMARK    2  A    between atoms: C_6  and  N_7
REMARK    3  A    between atoms: C_8  and  C_10
REMARK    4  A    between atoms: C_11  and  N_12
REMARK    5  A    between atoms: C_18  and  C_19
REMARK                            x       y       z     vdW  Elec       q    Type
REMARK                         _______ _______ _______ _____ _____    ______ ____
ROOT
ATOM      1  C   UNL     1       2.910   5.791  18.244  0.00  0.00    +0.000 A 
ATOM      2  C   UNL     1       2.326   4.543  18.427  0.00  0.00    +0.000 A 
ATOM      3  S   UNL     1       3.172   3.304  17.596  0.00  0.00    +0.000 S 
ATOM      4  C   UNL     1       4.303   4.393  16.966  0.00  0.00    +0.000 A 
ATOM      5  C   UNL     1       4.074   5.690  17.378  0.00  0.00    +0.000 A 
ATOM      6  C   UNL     1       5.010   6.813  17.001  0.00  0.00    +0.000 C 
ATOM      7  C   UNL     1       6.049   6.401  15.943  0.00  0.00    +0.000 C 
ATOM      8  C   UNL     1       6.586   4.967  16.125  0.00  0.00    +0.000 C 
ATOM      9  C   UNL     1       7.397   4.818  17.417  0.00  0.00    +0.000 C 
ATOM     10  C   UNL     1       5.421   3.957  16.068  0.00  0.00    +0.000 C 
ENDROOT
BRANCH   1  12
ATOM     11  N   UNL     1       1.975   8.007  17.870  0.00  0.00    +0.000 N 
ATOM     12  C   UNL     1       2.416   7.067  18.795  0.00  0.00    +0.000 C 
ATOM     13  O   UNL     1       2.373   7.222  20.010  0.00  0.00    +0.000 OA
ATOM     14  H   UNL     1       1.892   7.686  16.911  0.00  0.00    +0.000 HD
BRANCH  11  20
ATOM     15  C   UNL     1       2.769  12.898  18.183  0.00  0.00    +0.000 C 
ATOM     16  C   UNL     1       1.866  11.710  18.345  0.00  0.00    +0.000 A 
ATOM     17  C   UNL     1       0.539  11.897  18.747  0.00  0.00    +0.000 A 
ATOM     18  C   UNL     1      -0.307  10.804  18.890  0.00  0.00    +0.000 A 
ATOM     19  C   UNL     1       0.160   9.517  18.616  0.00  0.00    +0.000 A 
ATOM     20  C   UNL     1       1.475   9.298  18.190  0.00  0.00    +0.000 A 
ATOM     21  C   UNL     1       2.330  10.405  18.082  0.00  0.00    +0.000 A 
ENDBRANCH  11  20
ENDBRANCH   1  12
BRANCH   2  22
ATOM     22  N   UNL     1       1.209   4.213  19.124  0.00  0.00    +0.000 N 
ATOM     23  H   UNL     1       1.104   3.242  19.414  0.00  0.00    +0.000 HD
ATOM     24  H   UNL     1       0.990   4.841  19.898  0.00  0.00    +0.000 HD
ENDBRANCH   2  22
TORSDOF 3
ENDMDL
