MODEL 1
REMARK VINA RESULT:      -7.1      0.000      0.000
REMARK  Name = 
REMARK  3 active torsions:
REMARK  status: ('A' for Active; 'I' for Inactive)
REMARK    1  A    between atoms: C_2  and  C_4
REMARK    2  A    between atoms: C_10  and  C_11
REMARK    3  A    between atoms: C_17  and  N_18
REMARK                            x       y       z     vdW  Elec       q    Type
REMARK                         _______ _______ _______ _____ _____    ______ ____
ROOT
ATOM      1  C   UNL     1       1.443   9.087  19.193  0.00  0.00    +0.000 A 
ATOM      2  S   UNL     1       0.850   8.215  20.532  0.00  0.00    +0.000 S 
ATOM      3  C   UNL     1       1.836   6.880  20.189  0.00  0.00    +0.000 A 
ATOM      4  N   UNL     1       1.747   5.824  21.007  0.00  0.00    +0.000 NA
ATOM      5  C   UNL     1       2.524   4.776  20.702  0.00  0.00    +0.000 A 
ATOM      6  C   UNL     1       3.403   4.736  19.608  0.00  0.00    +0.000 A 
ATOM      7  C   UNL     1       3.488   5.894  18.771  0.00  0.00    +0.000 A 
ATOM      8  C   UNL     1       2.648   7.024  19.070  0.00  0.00    +0.000 A 
ATOM      9  C   UNL     1       2.406   8.349  18.513  0.00  0.00    +0.000 A 
ATOM     10  C   UNL     1       4.174   3.457  19.336  0.00  0.00    +0.000 C 
ATOM     11  C   UNL     1       3.417   2.402  18.526  0.00  0.00    +0.000 C 
ATOM     12  C   UNL     1       2.435   1.537  19.323  0.00  0.00    +0.000 C 
ATOM     13  C   UNL     1       1.146   2.253  19.724  0.00  0.00    +0.000 C 
ATOM     14  C   UNL     1       1.115   2.738  21.175  0.00  0.00    +0.000 C 
ATOM     15  C   UNL     1       2.298   3.596  21.616  0.00  0.00    +0.000 C 
ENDROOT
BRANCH   1  17
ATOM     16  N   UNL     1      -0.080  10.488  17.962  0.00  0.00    +0.000 N 
ATOM     17  C   UNL     1       0.931  10.412  18.882  0.00  0.00    +0.000 C 
ATOM     18  O   UNL     1       1.353  11.459  19.378  0.00  0.00    +0.000 OA
ATOM     19  H   UNL     1      -0.439  11.400  17.717  0.00  0.00    +0.000 HD
ATOM     20  H   UNL     1      -0.448   9.668  17.508  0.00  0.00    +0.000 HD
ENDBRANCH   1  17
BRANCH   7  21
ATOM     21  C   UNL     1       4.424   5.973  17.638  0.00  0.00    +0.000 A 
ATOM     22  C   UNL     1       4.506   5.357  16.401  0.00  0.00    +0.000 A 
ATOM     23  C   UNL     1       5.616   5.911  15.720  0.00  0.00    +0.000 A 
ATOM     24  C   UNL     1       6.193   6.789  16.603  0.00  0.00    +0.000 A 
ATOM     25  O   UNL     1       5.462   6.861  17.748  0.00  0.00    +0.000 OA
ENDBRANCH   7  21
BRANCH   9  26
ATOM     26  N   UNL     1       3.026   8.855  17.424  0.00  0.00    +0.000 N 
ATOM     27  H   UNL     1       2.952   8.372  16.530  0.00  0.00    +0.000 HD
ATOM     28  H   UNL     1       3.128   9.867  17.317  0.00  0.00    +0.000 HD
ENDBRANCH   9  26
TORSDOF 3
ENDMDL
MODEL 2
REMARK VINA RESULT:      -7.0      1.844      4.475
REMARK  Name = 
REMARK  3 active torsions:
REMARK  status: ('A' for Active; 'I' for Inactive)
REMARK    1  A    between atoms: C_2  and  C_4
REMARK    2  A    between atoms: C_10  and  C_11
REMARK    3  A    between atoms: C_17  and  N_18
REMARK                            x       y       z     vdW  Elec       q    Type
REMARK                         _______ _______ _______ _____ _____    ______ ____
ROOT
ATOM      1  C   UNL     1       1.207   9.384  19.571  0.00  0.00    +0.000 A 
ATOM      2  S   UNL     1       2.182   9.766  18.227  0.00  0.00    +0.000 S 
ATOM      3  C   UNL     1       2.754   8.176  18.100  0.00  0.00    +0.000 A 
ATOM      4  N   UNL     1       3.629   7.914  17.122  0.00  0.00    +0.000 NA
ATOM      5  C   UNL     1       4.078   6.653  17.056  0.00  0.00    +0.000 A 
ATOM      6  C   UNL     1       3.681   5.627  17.928  0.00  0.00    +0.000 A 
ATOM      7  C   UNL     1       2.725   5.941  18.945  0.00  0.00    +0.000 A 
ATOM      8  C   UNL     1       2.244   7.293  19.046  0.00  0.00    +0.000 A 
ATOM      9  C   UNL     1       1.317   8.035  19.891  0.00  0.00    +0.000 A 
ATOM     10  C   UNL     1       4.323   4.258  17.786  0.00  0.00    +0.000 C 
ATOM     11  C   UNL     1       5.665   4.092  18.501  0.00  0.00    +0.000 C 
ATOM     12  C   UNL     1       6.884   4.644  17.756  0.00  0.00    +0.000 C 
ATOM     13  C   UNL     1       6.991   6.169  17.763  0.00  0.00    +0.000 C 
ATOM     14  C   UNL     1       6.524   6.843  16.471  0.00  0.00    +0.000 C 
ATOM     15  C   UNL     1       5.127   6.462  15.987  0.00  0.00    +0.000 C 
ENDROOT
BRANCH   1  17
ATOM     16  N   UNL     1       1.033  11.609  20.476  0.00  0.00    +0.000 N 
ATOM     17  C   UNL     1       0.416  10.411  20.232  0.00  0.00    +0.000 C 
ATOM     18  O   UNL     1      -0.754  10.267  20.593  0.00  0.00    +0.000 OA
ATOM     19  H   UNL     1       0.508  12.330  20.950  0.00  0.00    +0.000 HD
ATOM     20  H   UNL     1       1.992  11.773  20.224  0.00  0.00    +0.000 HD
ENDBRANCH   1  17
BRANCH   7  21
ATOM     21  C   UNL     1       2.200   4.921  19.867  0.00  0.00    +0.000 A 
ATOM     22  C   UNL     1       1.115   4.060  19.849  0.00  0.00    +0.000 A 
ATOM     23  C   UNL     1       1.187   3.259  21.014  0.00  0.00    +0.000 A 
ATOM     24  C   UNL     1       2.274   3.717  21.714  0.00  0.00    +0.000 A 
ATOM     25  O   UNL     1       2.913   4.693  21.015  0.00  0.00    +0.000 OA
ENDBRANCH   7  21
BRANCH   9  26
ATOM     26  N   UNL     1       0.614   7.506  20.917  0.00  0.00    +0.000 N 
ATOM     27  H   UNL     1      -0.260   7.017  20.732  0.00  0.00    +0.000 HD
ATOM     28  H   UNL     1       1.103   7.139  21.737  0.00  0.00    +0.000 HD
ENDBRANCH   9  26
TORSDOF 3
ENDMDL
MODEL 3
REMARK VINA RESULT:      -6.4      5.471      9.878
REMARK  Name = 
REMARK  3 active torsions:
REMARK  status: ('A' for Active; 'I' for Inactive)
REMARK    1  A    between atoms: C_2  and  C_4
REMARK    2  A    between atoms: C_10  and  C_11
REMARK    3  A    between atoms: C_17  and  N_18
REMARK                            x       y       z     vdW  Elec       q    Type
REMARK                         _______ _______ _______ _____ _____    ______ ____
ROOT
ATOM      1  C   UNL     1      -0.251  10.476  18.828  0.00  0.00    +0.000 A 
ATOM      2  S   UNL     1      -1.467  10.236  17.658  0.00  0.00    +0.000 S 
ATOM      3  C   UNL     1      -2.577  11.191  18.512  0.00  0.00    +0.000 A 
ATOM      4  N   UNL     1      -3.797  11.338  17.982  0.00  0.00    +0.000 NA
ATOM      5  C   UNL     1      -4.659  12.084  18.687  0.00  0.00    +0.000 A 
ATOM      6  C   UNL     1      -4.352  12.704  19.909  0.00  0.00    +0.000 A 
ATOM      7  C   UNL     1      -3.028  12.543  20.430  0.00  0.00    +0.000 A 
ATOM      8  C   UNL     1      -2.093  11.731  19.699  0.00  0.00    +0.000 A 
ATOM      9  C   UNL     1      -0.707  11.304  19.848  0.00  0.00    +0.000 A 
ATOM     10  C   UNL     1      -5.445  13.462  20.639  0.00  0.00    +0.000 C 
ATOM     11  C   UNL     1      -6.356  12.602  21.518  0.00  0.00    +0.000 C 
ATOM     12  C   UNL     1      -7.479  11.864  20.784  0.00  0.00    +0.000 C 
ATOM     13  C   UNL     1      -7.014  10.659  19.968  0.00  0.00    +0.000 C 
ATOM     14  C   UNL     1      -6.886  10.920  18.466  0.00  0.00    +0.000 C 
ATOM     15  C   UNL     1      -6.035  12.125  18.069  0.00  0.00    +0.000 C 
ENDROOT
BRANCH   1  17
ATOM     16  N   UNL     1       1.849  10.277  17.667  0.00  0.00    +0.000 N 
ATOM     17  C   UNL     1       1.050   9.840  18.690  0.00  0.00    +0.000 C 
ATOM     18  O   UNL     1       1.467   8.936  19.417  0.00  0.00    +0.000 OA
ATOM     19  H   UNL     1       2.749   9.837  17.541  0.00  0.00    +0.000 HD
ATOM     20  H   UNL     1       1.551  10.996  17.030  0.00  0.00    +0.000 HD
ENDBRANCH   1  17
BRANCH   7  21
ATOM     21  C   UNL     1      -2.591  13.204  21.671  0.00  0.00    +0.000 A 
ATOM     22  C   UNL     1      -2.822  12.988  23.019  0.00  0.00    +0.000 A 
ATOM     23  C   UNL     1      -2.054  13.934  23.740  0.00  0.00    +0.000 A 
ATOM     24  C   UNL     1      -1.446  14.718  22.793  0.00  0.00    +0.000 A 
ATOM     25  O   UNL     1      -1.734  14.265  21.543  0.00  0.00    +0.000 OA
ENDBRANCH   7  21
BRANCH   9  26
ATOM     26  N   UNL     1       0.100  11.645  20.878  0.00  0.00    +0.000 N 
ATOM     27  H   UNL     1       0.140  11.053  21.706  0.00  0.00    +0.000 HD
ATOM     28  H   UNL     1       0.983  12.128  20.697  0.00  0.00    +0.000 HD
ENDBRANCH   9  26
TORSDOF 3
ENDMDL
MODEL 4
REMARK VINA RESULT:      -6.4      7.488      9.881
REMARK  Name = 
REMARK  3 active torsions:
REMARK  status: ('A' for Active; 'I' for Inactive)
REMARK    1  A    between atoms: C_2  and  C_4
REMARK    2  A    between atoms: C_10  and  C_11
REMARK    3  A    between atoms: C_17  and  N_18
REMARK                            x       y       z     vdW  Elec       q    Type
REMARK                         _______ _______ _______ _____ _____    ______ ____
ROOT
ATOM      1  C   UNL     1      -0.687  12.658  20.348  0.00  0.00    +0.000 A 
ATOM      2  S   UNL     1      -1.848  13.083  21.522  0.00  0.00    +0.000 S 
ATOM      3  C   UNL     1      -3.132  12.581  20.536  0.00  0.00    +0.000 A 
ATOM      4  N   UNL     1      -4.371  12.714  21.025  0.00  0.00    +0.000 NA
ATOM      5  C   UNL     1      -5.367  12.326  20.217  0.00  0.00    +0.000 A 
ATOM      6  C   UNL     1      -5.181  11.797  18.931  0.00  0.00    +0.000 A 
ATOM      7  C   UNL     1      -3.840  11.646  18.453  0.00  0.00    +0.000 A 
ATOM      8  C   UNL     1      -2.756  12.075  19.297  0.00  0.00    +0.000 A 
ATOM      9  C   UNL     1      -1.300  12.117  19.223  0.00  0.00    +0.000 A 
ATOM     10  C   UNL     1      -6.402  11.463  18.094  0.00  0.00    +0.000 C 
ATOM     11  C   UNL     1      -7.000  12.640  17.319  0.00  0.00    +0.000 C 
ATOM     12  C   UNL     1      -7.915  13.566  18.127  0.00  0.00    +0.000 C 
ATOM     13  C   UNL     1      -7.179  14.490  19.098  0.00  0.00    +0.000 C 
ATOM     14  C   UNL     1      -7.201  14.025  20.555  0.00  0.00    +0.000 C 
ATOM     15  C   UNL     1      -6.732  12.593  20.805  0.00  0.00    +0.000 C 
ENDROOT
BRANCH   1  17
ATOM     16  N   UNL     1       1.253  14.066  20.121  0.00  0.00    +0.000 N 
ATOM     17  C   UNL     1       0.729  12.889  20.585  0.00  0.00    +0.000 C 
ATOM     18  O   UNL     1       1.480  12.096  21.157  0.00  0.00    +0.000 OA
ATOM     19  H   UNL     1       2.239  14.239  20.259  0.00  0.00    +0.000 HD
ATOM     20  H   UNL     1       0.692  14.739  19.628  0.00  0.00    +0.000 HD
ENDBRANCH   1  17
BRANCH   7  21
ATOM     21  C   UNL     1      -3.539  11.044  17.145  0.00  0.00    +0.000 A 
ATOM     22  C   UNL     1      -3.719  11.439  15.830  0.00  0.00    +0.000 A 
ATOM     23  C   UNL     1      -3.151  10.440  15.003  0.00  0.00    +0.000 A 
ATOM     24  C   UNL     1      -2.713   9.458  15.854  0.00  0.00    +0.000 A 
ATOM     25  O   UNL     1      -2.909   9.828  17.149  0.00  0.00    +0.000 OA
ENDBRANCH   7  21
BRANCH   9  26
ATOM     26  N   UNL     1      -0.567  11.692  18.170  0.00  0.00    +0.000 N 
ATOM     27  H   UNL     1      -0.760  12.058  17.240  0.00  0.00    +0.000 HD
ATOM     28  H   UNL     1       0.417  11.444  18.298  0.00  0.00    +0.000 HD
ENDBRANCH   9  26
TORSDOF 3
ENDMDL
MODEL 5
REMARK VINA RESULT:      -6.3      6.977     10.059
REMARK  Name = 
REMARK  3 active torsions:
REMARK  status: ('A' for Active; 'I' for Inactive)
REMARK    1  A    between atoms: C_2  and  C_4
REMARK    2  A    between atoms: C_10  and  C_11
REMARK    3  A    between atoms: C_17  and  N_18
REMARK                            x       y       z     vdW  Elec       q    Type
REMARK                         _______ _______ _______ _____ _____    ______ ____
ROOT
ATOM      1  C   UNL     1      -5.895  12.817  23.102  0.00  0.00    +0.000 A 
ATOM      2  S   UNL     1      -4.335  12.964  23.774  0.00  0.00    +0.000 S 
ATOM      3  C   UNL     1      -3.589  12.740  22.268  0.00  0.00    +0.000 A 
ATOM      4  N   UNL     1      -2.251  12.763  22.236  0.00  0.00    +0.000 NA
ATOM      5  C   UNL     1      -1.688  12.565  21.036  0.00  0.00    +0.000 A 
ATOM      6  C   UNL     1      -2.409  12.351  19.851  0.00  0.00    +0.000 A 
ATOM      7  C   UNL     1      -3.839  12.358  19.922  0.00  0.00    +0.000 A 
ATOM      8  C   UNL     1      -4.464  12.550  21.204  0.00  0.00    +0.000 A 
ATOM      9  C   UNL     1      -5.822  12.620  21.728  0.00  0.00    +0.000 A 
ATOM     10  C   UNL     1      -1.644  12.069  18.570  0.00  0.00    +0.000 C 
ATOM     11  C   UNL     1      -1.236  10.608  18.366  0.00  0.00    +0.000 C 
ATOM     12  C   UNL     1       0.025  10.163  19.114  0.00  0.00    +0.000 C 
ATOM     13  C   UNL     1      -0.169   9.969  20.618  0.00  0.00    +0.000 C 
ATOM     14  C   UNL     1       0.338  11.129  21.477  0.00  0.00    +0.000 C 
ATOM     15  C   UNL     1      -0.181  12.515  21.101  0.00  0.00    +0.000 C 
ENDROOT
BRANCH   1  17
ATOM     16  N   UNL     1      -7.248  14.033  24.680  0.00  0.00    +0.000 N 
ATOM     17  C   UNL     1      -7.078  12.889  23.946  0.00  0.00    +0.000 C 
ATOM     18  O   UNL     1      -7.916  11.992  24.052  0.00  0.00    +0.000 OA
ATOM     19  H   UNL     1      -8.053  14.097  25.287  0.00  0.00    +0.000 HD
ATOM     20  H   UNL     1      -6.584  14.787  24.650  0.00  0.00    +0.000 HD
ENDBRANCH   1  17
BRANCH   7  21
ATOM     21  C   UNL     1      -4.682  12.205  18.726  0.00  0.00    +0.000 A 
ATOM     22  C   UNL     1      -4.833  11.220  17.764  0.00  0.00    +0.000 A 
ATOM     23  C   UNL     1      -5.870  11.632  16.892  0.00  0.00    +0.000 A 
ATOM     24  C   UNL     1      -6.252  12.874  17.329  0.00  0.00    +0.000 A 
ATOM     25  O   UNL     1      -5.568  13.214  18.455  0.00  0.00    +0.000 OA
ENDBRANCH   7  21
BRANCH   9  26
ATOM     26  N   UNL     1      -6.944  12.494  20.985  0.00  0.00    +0.000 N 
ATOM     27  H   UNL     1      -7.510  11.651  21.061  0.00  0.00    +0.000 HD
ATOM     28  H   UNL     1      -7.501  13.321  20.755  0.00  0.00    +0.000 HD
ENDBRANCH   9  26
TORSDOF 3
ENDMDL
MODEL 6
REMARK VINA RESULT:      -6.1      9.353     11.436
REMARK  Name = 
REMARK  3 active torsions:
REMARK  status: ('A' for Active; 'I' for Inactive)
REMARK    1  A    between atoms: C_2  and  C_4
REMARK    2  A    between atoms: C_10  and  C_11
REMARK    3  A    between atoms: C_17  and  N_18
REMARK                            x       y       z     vdW  Elec       q    Type
REMARK                         _______ _______ _______ _____ _____    ______ ____
ROOT
ATOM      1  C   UNL     1       7.188  12.981  23.190  0.00  0.00    +0.000 A 
ATOM      2  S   UNL     1       8.306  11.737  22.858  0.00  0.00    +0.000 S 
ATOM      3  C   UNL     1       9.186  12.716  21.791  0.00  0.00    +0.000 A 
ATOM      4  N   UNL     1      10.257  12.172  21.200  0.00  0.00    +0.000 NA
ATOM      5  C   UNL     1      10.923  12.963  20.347  0.00  0.00    +0.000 A 
ATOM      6  C   UNL     1      10.571  14.291  20.062  0.00  0.00    +0.000 A 
ATOM      7  C   UNL     1       9.434  14.845  20.733  0.00  0.00    +0.000 A 
ATOM      8  C   UNL     1       8.692  14.007  21.637  0.00  0.00    +0.000 A 
ATOM      9  C   UNL     1       7.520  14.138  22.494  0.00  0.00    +0.000 A 
ATOM     10  C   UNL     1      11.371  15.053  19.021  0.00  0.00    +0.000 C 
ATOM     11  C   UNL     1      10.939  14.822  17.571  0.00  0.00    +0.000 C 
ATOM     12  C   UNL     1      11.471  13.543  16.918  0.00  0.00    +0.000 C 
ATOM     13  C   UNL     1      10.792  12.260  17.397  0.00  0.00    +0.000 C 
ATOM     14  C   UNL     1      11.593  11.466  18.431  0.00  0.00    +0.000 C 
ATOM     15  C   UNL     1      12.059  12.249  19.656  0.00  0.00    +0.000 C 
ENDROOT
BRANCH   1  17
ATOM     16  N   UNL     1       5.958  11.505  24.642  0.00  0.00    +0.000 N 
ATOM     17  C   UNL     1       6.065  12.753  24.086  0.00  0.00    +0.000 C 
ATOM     18  O   UNL     1       5.208  13.595  24.362  0.00  0.00    +0.000 OA
ATOM     19  H   UNL     1       5.176  11.318  25.252  0.00  0.00    +0.000 HD
ATOM     20  H   UNL     1       6.616  10.773  24.434  0.00  0.00    +0.000 HD
ENDBRANCH   1  17
BRANCH   7  21
ATOM     21  C   UNL     1       9.021  16.245  20.547  0.00  0.00    +0.000 A 
ATOM     22  C   UNL     1       8.390  16.945  19.533  0.00  0.00    +0.000 A 
ATOM     23  C   UNL     1       8.207  18.275  19.983  0.00  0.00    +0.000 A 
ATOM     24  C   UNL     1       8.794  18.333  21.221  0.00  0.00    +0.000 A 
ATOM     25  O   UNL     1       9.255  17.107  21.587  0.00  0.00    +0.000 OA
ENDBRANCH   7  21
BRANCH   9  26
ATOM     26  N   UNL     1       6.778  15.261  22.621  0.00  0.00    +0.000 N 
ATOM     27  H   UNL     1       6.122  15.520  21.886  0.00  0.00    +0.000 HD
ATOM     28  H   UNL     1       6.472  15.570  23.547  0.00  0.00    +0.000 HD
ENDBRANCH   9  26
TORSDOF 3
ENDMDL
MODEL 7
REMARK VINA RESULT:      -6.0      9.040     10.668
REMARK  Name = 
REMARK  3 active torsions:
REMARK  status: ('A' for Active; 'I' for Inactive)
REMARK    1  A    between atoms: C_2  and  C_4
REMARK    2  A    between atoms: C_10  and  C_11
REMARK    3  A    between atoms: C_17  and  N_18
REMARK                            x       y       z     vdW  Elec       q    Type
REMARK                         _______ _______ _______ _____ _____    ______ ____
ROOT
ATOM      1  C   UNL     1       6.846  12.617  23.670  0.00  0.00    +0.000 A 
ATOM      2  S   UNL     1       8.358  11.833  23.601  0.00  0.00    +0.000 S 
ATOM      3  C   UNL     1       8.825  12.701  22.222  0.00  0.00    +0.000 A 
ATOM      4  N   UNL     1      10.034  12.439  21.712  0.00  0.00    +0.000 NA
ATOM      5  C   UNL     1      10.370  13.128  20.612  0.00  0.00    +0.000 A 
ATOM      6  C   UNL     1       9.547  14.083  19.996  0.00  0.00    +0.000 A 
ATOM      7  C   UNL     1       8.271  14.353  20.587  0.00  0.00    +0.000 A 
ATOM      8  C   UNL     1       7.882  13.611  21.757  0.00  0.00    +0.000 A 
ATOM      9  C   UNL     1       6.730  13.551  22.647  0.00  0.00    +0.000 A 
ATOM     10  C   UNL     1      10.022  14.739  18.712  0.00  0.00    +0.000 C 
ATOM     11  C   UNL     1       9.740  13.946  17.434  0.00  0.00    +0.000 C 
ATOM     12  C   UNL     1      10.731  12.820  17.123  0.00  0.00    +0.000 C 
ATOM     13  C   UNL     1      10.577  11.582  18.007  0.00  0.00    +0.000 C 
ATOM     14  C   UNL     1      11.597  11.485  19.143  0.00  0.00    +0.000 C 
ATOM     15  C   UNL     1      11.706  12.710  20.048  0.00  0.00    +0.000 C 
ENDROOT
BRANCH   1  17
ATOM     16  N   UNL     1       5.796  10.950  25.054  0.00  0.00    +0.000 N 
ATOM     17  C   UNL     1       5.875  12.269  24.695  0.00  0.00    +0.000 C 
ATOM     18  O   UNL     1       5.118  13.074  25.243  0.00  0.00    +0.000 OA
ATOM     19  H   UNL     1       5.116  10.682  25.751  0.00  0.00    +0.000 HD
ATOM     20  H   UNL     1       6.373  10.247  24.624  0.00  0.00    +0.000 HD
ENDBRANCH   1  17
BRANCH   7  21
ATOM     21  C   UNL     1       7.363  15.380  20.052  0.00  0.00    +0.000 A 
ATOM     22  C   UNL     1       7.377  16.764  20.013  0.00  0.00    +0.000 A 
ATOM     23  C   UNL     1       6.235  17.182  19.288  0.00  0.00    +0.000 A 
ATOM     24  C   UNL     1       5.550  16.035  18.979  0.00  0.00    +0.000 A 
ATOM     25  O   UNL     1       6.239  14.941  19.402  0.00  0.00    +0.000 OA
ENDBRANCH   7  21
BRANCH   9  26
ATOM     26  N   UNL     1       5.615  14.305  22.520  0.00  0.00    +0.000 N 
ATOM     27  H   UNL     1       5.232  14.782  23.334  0.00  0.00    +0.000 HD
ATOM     28  H   UNL     1       5.436  14.810  21.648  0.00  0.00    +0.000 HD
ENDBRANCH   9  26
TORSDOF 3
ENDMDL
MODEL 8
REMARK VINA RESULT:      -6.0      9.309     11.354
REMARK  Name = 
REMARK  3 active torsions:
REMARK  status: ('A' for Active; 'I' for Inactive)
REMARK    1  A    between atoms: C_2  and  C_4
REMARK    2  A    between atoms: C_10  and  C_11
REMARK    3  A    between atoms: C_17  and  N_18
REMARK                            x       y       z     vdW  Elec       q    Type
REMARK                         _______ _______ _______ _____ _____    ______ ____
ROOT
ATOM      1  C   UNL     1       6.401  16.541  20.143  0.00  0.00    +0.000 A 
ATOM      2  S   UNL     1       6.288  14.957  20.763  0.00  0.00    +0.000 S 
ATOM      3  C   UNL     1       7.923  14.640  20.445  0.00  0.00    +0.000 A 
ATOM      4  N   UNL     1       8.388  13.428  20.766  0.00  0.00    +0.000 NA
ATOM      5  C   UNL     1       9.679  13.199  20.487  0.00  0.00    +0.000 A 
ATOM      6  C   UNL     1      10.539  14.142  19.903  0.00  0.00    +0.000 A 
ATOM      7  C   UNL     1      10.011  15.436  19.596  0.00  0.00    +0.000 A 
ATOM      8  C   UNL     1       8.622  15.696  19.869  0.00  0.00    +0.000 A 
ATOM      9  C   UNL     1       7.697  16.813  19.721  0.00  0.00    +0.000 A 
ATOM     10  C   UNL     1      11.963  13.728  19.575  0.00  0.00    +0.000 C 
ATOM     11  C   UNL     1      12.139  13.012  18.234  0.00  0.00    +0.000 C 
ATOM     12  C   UNL     1      11.797  11.518  18.232  0.00  0.00    +0.000 C 
ATOM     13  C   UNL     1      10.300  11.214  18.276  0.00  0.00    +0.000 C 
ATOM     14  C   UNL     1       9.773  10.819  19.657  0.00  0.00    +0.000 C 
ATOM     15  C   UNL     1      10.100  11.783  20.796  0.00  0.00    +0.000 C 
ENDROOT
BRANCH   1  17
ATOM     16  N   UNL     1       4.023  16.802  19.866  0.00  0.00    +0.000 N 
ATOM     17  C   UNL     1       5.231  17.405  20.095  0.00  0.00    +0.000 C 
ATOM     18  O   UNL     1       5.261  18.630  20.231  0.00  0.00    +0.000 OA
ATOM     19  H   UNL     1       3.200  17.385  19.810  0.00  0.00    +0.000 HD
ATOM     20  H   UNL     1       3.943  15.809  19.725  0.00  0.00    +0.000 HD
ENDBRANCH   1  17
BRANCH   7  21
ATOM     21  C   UNL     1      10.848  16.511  19.039  0.00  0.00    +0.000 A 
ATOM     22  C   UNL     1      11.880  17.291  19.530  0.00  0.00    +0.000 A 
ATOM     23  C   UNL     1      12.332  18.117  18.472  0.00  0.00    +0.000 A 
ATOM     24  C   UNL     1      11.508  17.843  17.410  0.00  0.00    +0.000 A 
ATOM     25  O   UNL     1      10.634  16.851  17.729  0.00  0.00    +0.000 OA
ENDBRANCH   7  21
BRANCH   9  26
ATOM     26  N   UNL     1       8.021  18.021  19.209  0.00  0.00    +0.000 N 
ATOM     27  H   UNL     1       7.756  18.869  19.708  0.00  0.00    +0.000 HD
ATOM     28  H   UNL     1       8.884  18.135  18.673  0.00  0.00    +0.000 HD
ENDBRANCH   9  26
TORSDOF 3
ENDMDL
MODEL 9
REMARK VINA RESULT:      -6.0      5.680      9.298
REMARK  Name = 
REMARK  3 active torsions:
REMARK  status: ('A' for Active; 'I' for Inactive)
REMARK    1  A    between atoms: C_2  and  C_4
REMARK    2  A    between atoms: C_10  and  C_11
REMARK    3  A    between atoms: C_17  and  N_18
REMARK                            x       y       z     vdW  Elec       q    Type
REMARK                         _______ _______ _______ _____ _____    ______ ____
ROOT
ATOM      1  C   UNL     1      -2.969  13.127  23.248  0.00  0.00    +0.000 A 
ATOM      2  S   UNL     1      -3.019  14.565  22.335  0.00  0.00    +0.000 S 
ATOM      3  C   UNL     1      -1.813  14.020  21.277  0.00  0.00    +0.000 A 
ATOM      4  N   UNL     1      -1.443  14.845  20.290  0.00  0.00    +0.000 NA
ATOM      5  C   UNL     1      -0.475  14.395  19.479  0.00  0.00    +0.000 A 
ATOM      6  C   UNL     1       0.141  13.140  19.605  0.00  0.00    +0.000 A 
ATOM      7  C   UNL     1      -0.300  12.277  20.658  0.00  0.00    +0.000 A 
ATOM      8  C   UNL     1      -1.324  12.748  21.552  0.00  0.00    +0.000 A 
ATOM      9  C   UNL     1      -2.042  12.238  22.714  0.00  0.00    +0.000 A 
ATOM     10  C   UNL     1       1.276  12.784  18.661  0.00  0.00    +0.000 C 
ATOM     11  C   UNL     1       2.655  13.296  19.080  0.00  0.00    +0.000 C 
ATOM     12  C   UNL     1       2.948  14.761  18.741  0.00  0.00    +0.000 C 
ATOM     13  C   UNL     1       2.227  15.772  19.632  0.00  0.00    +0.000 C 
ATOM     14  C   UNL     1       0.981  16.398  19.000  0.00  0.00    +0.000 C 
ATOM     15  C   UNL     1      -0.053  15.417  18.452  0.00  0.00    +0.000 C 
ENDROOT
BRANCH   1  17
ATOM     16  N   UNL     1      -3.807  13.974  25.340  0.00  0.00    +0.000 N 
ATOM     17  C   UNL     1      -3.814  12.960  24.420  0.00  0.00    +0.000 C 
ATOM     18  O   UNL     1      -4.515  11.970  24.641  0.00  0.00    +0.000 OA
ATOM     19  H   UNL     1      -4.372  13.872  26.171  0.00  0.00    +0.000 HD
ATOM     20  H   UNL     1      -3.237  14.794  25.222  0.00  0.00    +0.000 HD
ENDBRANCH   1  17
BRANCH   7  21
ATOM     21  C   UNL     1       0.241  10.919  20.835  0.00  0.00    +0.000 A 
ATOM     22  C   UNL     1       0.251   9.770  20.063  0.00  0.00    +0.000 A 
ATOM     23  C   UNL     1       1.000   8.793  20.762  0.00  0.00    +0.000 A 
ATOM     24  C   UNL     1       1.353   9.377  21.952  0.00  0.00    +0.000 A 
ATOM     25  O   UNL     1       0.932  10.669  21.992  0.00  0.00    +0.000 OA
ENDBRANCH   7  21
BRANCH   9  26
ATOM     26  N   UNL     1      -1.848  11.021  23.269  0.00  0.00    +0.000 N 
ATOM     27  H   UNL     1      -2.239  10.193  22.824  0.00  0.00    +0.000 HD
ATOM     28  H   UNL     1      -0.981  10.822  23.775  0.00  0.00    +0.000 HD
ENDBRANCH   9  26
TORSDOF 3
ENDMDL
