MODEL 1
REMARK VINA RESULT:      -7.2      0.000      0.000
REMARK  Name = 
REMARK  3 active torsions:
REMARK  status: ('A' for Active; 'I' for Inactive)
REMARK    1  A    between atoms: C_7  and  O_8
REMARK    2  A    between atoms: O_8  and  C_9
REMARK    3  A    between atoms: C_9  and  C_10
REMARK                            x       y       z     vdW  Elec       q    Type
REMARK                         _______ _______ _______ _____ _____    ______ ____
ROOT
ATOM      1  C   UNL     1       4.721   4.397  19.079  0.00  0.00    +0.000 C 
ENDROOT
BRANCH   1   2
ATOM      2  C   UNL     1       3.834   3.125  19.165  0.00  0.00    +0.000 C 
ATOM      3  C   UNL     1       2.578   3.023  18.290  0.00  0.00    +0.000 C 
ATOM      4  C   UNL     1       1.460   3.955  18.751  0.00  0.00    +0.000 C 
ATOM      5  C   UNL     1       1.249   4.020  20.274  0.00  0.00    +0.000 C 
ATOM      6  C   UNL     1       1.095   2.808  21.150  0.00  0.00    +0.000 C 
ATOM      7  C   UNL     1       2.427   3.595  21.161  0.00  0.00    +0.000 C 
ATOM      8  N   UNL     1       3.477   2.774  20.542  0.00  0.00    +0.000 NA
ATOM      9  H   UNL     1       4.318   2.729  21.161  0.00  0.00    +0.000 HD
ENDBRANCH   1   2
BRANCH   1  10
ATOM     10  O   UNL     1       5.989   4.214  18.535  0.00  0.00    +0.000 OA
BRANCH  10  17
ATOM     11 CL   UNL     1       7.770   6.595  18.145  0.00  0.00    +0.000 Cl
ATOM     12  C   UNL     1       7.116   5.559  16.893  0.00  0.00    +0.000 A 
ATOM     13  N   UNL     1       7.427   5.814  15.592  0.00  0.00    +0.000 NA
ATOM     14  C   UNL     1       6.959   5.054  14.569  0.00  0.00    +0.000 A 
ATOM     15  C   UNL     1       6.129   3.970  14.837  0.00  0.00    +0.000 A 
ATOM     16  C   UNL     1       5.789   3.680  16.158  0.00  0.00    +0.000 A 
ATOM     17  C   UNL     1       6.282   4.472  17.222  0.00  0.00    +0.000 A 
ENDBRANCH  10  17
ENDBRANCH   1  10
TORSDOF 3
ENDMDL
MODEL 2
REMARK VINA RESULT:      -7.1      1.412      1.914
REMARK  Name = 
REMARK  3 active torsions:
REMARK  status: ('A' for Active; 'I' for Inactive)
REMARK    1  A    between atoms: C_7  and  O_8
REMARK    2  A    between atoms: O_8  and  C_9
REMARK    3  A    between atoms: C_9  and  C_10
REMARK                            x       y       z     vdW  Elec       q    Type
REMARK                         _______ _______ _______ _____ _____    ______ ____
ROOT
ATOM      1  C   UNL     1       4.358   5.222  19.243  0.00  0.00    +0.000 C 
ENDROOT
BRANCH   1   2
ATOM      2  C   UNL     1       2.821   5.250  19.459  0.00  0.00    +0.000 C 
ATOM      3  C   UNL     1       2.242   4.782  20.801  0.00  0.00    +0.000 C 
ATOM      4  C   UNL     1       2.342   3.272  20.993  0.00  0.00    +0.000 C 
ATOM      5  C   UNL     1       1.999   2.430  19.752  0.00  0.00    +0.000 C 
ATOM      6  C   UNL     1       0.747   2.609  18.939  0.00  0.00    +0.000 C 
ATOM      7  C   UNL     1       2.097   3.125  18.388  0.00  0.00    +0.000 C 
ATOM      8  N   UNL     1       2.084   4.595  18.376  0.00  0.00    +0.000 NA
ATOM      9  H   UNL     1       2.371   4.956  17.438  0.00  0.00    +0.000 HD
ENDBRANCH   1   2
BRANCH   1  10
ATOM     10  O   UNL     1       4.843   6.053  18.236  0.00  0.00    +0.000 OA
BRANCH  10  17
ATOM     11 CL   UNL     1       7.534   7.305  17.807  0.00  0.00    +0.000 Cl
ATOM     12  C   UNL     1       6.777   6.077  16.812  0.00  0.00    +0.000 A 
ATOM     13  N   UNL     1       7.445   5.603  15.724  0.00  0.00    +0.000 NA
ATOM     14  C   UNL     1       6.924   4.651  14.908  0.00  0.00    +0.000 A 
ATOM     15  C   UNL     1       5.662   4.129  15.174  0.00  0.00    +0.000 A 
ATOM     16  C   UNL     1       4.949   4.592  16.279  0.00  0.00    +0.000 A 
ATOM     17  C   UNL     1       5.498   5.581  17.130  0.00  0.00    +0.000 A 
ENDBRANCH  10  17
ENDBRANCH   1  10
TORSDOF 3
ENDMDL
MODEL 3
REMARK VINA RESULT:      -7.1      1.009      1.248
REMARK  Name = 
REMARK  3 active torsions:
REMARK  status: ('A' for Active; 'I' for Inactive)
REMARK    1  A    between atoms: C_7  and  O_8
REMARK    2  A    between atoms: O_8  and  C_9
REMARK    3  A    between atoms: C_9  and  C_10
REMARK                            x       y       z     vdW  Elec       q    Type
REMARK                         _______ _______ _______ _____ _____    ______ ____
ROOT
ATOM      1  C   UNL     1       4.877   4.981  19.266  0.00  0.00    +0.000 C 
ENDROOT
BRANCH   1   2
ATOM      2  C   UNL     1       3.447   4.809  18.687  0.00  0.00    +0.000 C 
ATOM      3  C   UNL     1       2.333   5.762  19.140  0.00  0.00    +0.000 C 
ATOM      4  C   UNL     1       1.889   5.512  20.578  0.00  0.00    +0.000 C 
ATOM      5  C   UNL     1       1.744   4.031  20.970  0.00  0.00    +0.000 C 
ATOM      6  C   UNL     1       0.963   3.026  20.169  0.00  0.00    +0.000 C 
ATOM      7  C   UNL     1       2.509   3.006  20.121  0.00  0.00    +0.000 C 
ATOM      8  N   UNL     1       2.956   3.432  18.787  0.00  0.00    +0.000 NA
ATOM      9  H   UNL     1       3.641   2.747  18.395  0.00  0.00    +0.000 HD
ENDBRANCH   1   2
BRANCH   1  10
ATOM     10  O   UNL     1       5.883   4.275  18.612  0.00  0.00    +0.000 OA
BRANCH  10  17
ATOM     11 CL   UNL     1       7.780   6.565  18.222  0.00  0.00    +0.000 Cl
ATOM     12  C   UNL     1       7.108   5.536  16.974  0.00  0.00    +0.000 A 
ATOM     13  N   UNL     1       7.460   5.753  15.676  0.00  0.00    +0.000 NA
ATOM     14  C   UNL     1       6.982   4.996  14.656  0.00  0.00    +0.000 A 
ATOM     15  C   UNL     1       6.097   3.956  14.923  0.00  0.00    +0.000 A 
ATOM     16  C   UNL     1       5.714   3.706  16.240  0.00  0.00    +0.000 A 
ATOM     17  C   UNL     1       6.217   4.494  17.302  0.00  0.00    +0.000 A 
ENDBRANCH  10  17
ENDBRANCH   1  10
TORSDOF 3
ENDMDL
MODEL 4
REMARK VINA RESULT:      -7.1      1.300      1.516
REMARK  Name = 
REMARK  3 active torsions:
REMARK  status: ('A' for Active; 'I' for Inactive)
REMARK    1  A    between atoms: C_7  and  O_8
REMARK    2  A    between atoms: O_8  and  C_9
REMARK    3  A    between atoms: C_9  and  C_10
REMARK                            x       y       z     vdW  Elec       q    Type
REMARK                         _______ _______ _______ _____ _____    ______ ____
ROOT
ATOM      1  C   UNL     1       3.547   5.793  18.410  0.00  0.00    +0.000 C 
ENDROOT
BRANCH   1   2
ATOM      2  C   UNL     1       3.755   4.863  19.636  0.00  0.00    +0.000 C 
ATOM      3  C   UNL     1       3.962   3.359  19.414  0.00  0.00    +0.000 C 
ATOM      4  C   UNL     1       2.690   2.648  18.964  0.00  0.00    +0.000 C 
ATOM      5  C   UNL     1       1.406   3.075  19.696  0.00  0.00    +0.000 C 
ATOM      6  C   UNL     1       1.278   3.136  21.194  0.00  0.00    +0.000 C 
ATOM      7  C   UNL     1       1.420   4.447  20.386  0.00  0.00    +0.000 C 
ATOM      8  N   UNL     1       2.731   5.048  20.668  0.00  0.00    +0.000 NA
ATOM      9  H   UNL     1       2.622   6.054  20.931  0.00  0.00    +0.000 HD
ENDBRANCH   1   2
BRANCH   1  10
ATOM     10  O   UNL     1       4.701   6.368  17.884  0.00  0.00    +0.000 OA
BRANCH  10  17
ATOM     11 CL   UNL     1       7.451   7.524  17.575  0.00  0.00    +0.000 Cl
ATOM     12  C   UNL     1       6.744   6.232  16.627  0.00  0.00    +0.000 A 
ATOM     13  N   UNL     1       7.484   5.653  15.641  0.00  0.00    +0.000 NA
ATOM     14  C   UNL     1       7.005   4.646  14.867  0.00  0.00    +0.000 A 
ATOM     15  C   UNL     1       5.712   4.174  15.070  0.00  0.00    +0.000 A 
ATOM     16  C   UNL     1       4.926   4.743  16.071  0.00  0.00    +0.000 A 
ATOM     17  C   UNL     1       5.430   5.790  16.879  0.00  0.00    +0.000 A 
ENDBRANCH  10  17
ENDBRANCH   1  10
TORSDOF 3
ENDMDL
MODEL 5
REMARK VINA RESULT:      -7.0      1.779      2.468
REMARK  Name = 
REMARK  3 active torsions:
REMARK  status: ('A' for Active; 'I' for Inactive)
REMARK    1  A    between atoms: C_7  and  O_8
REMARK    2  A    between atoms: O_8  and  C_9
REMARK    3  A    between atoms: C_9  and  C_10
REMARK                            x       y       z     vdW  Elec       q    Type
REMARK                         _______ _______ _______ _____ _____    ______ ____
ROOT
ATOM      1  C   UNL     1       3.710   2.543  17.508  0.00  0.00    +0.000 C 
ENDROOT
BRANCH   1   2
ATOM      2  C   UNL     1       2.209   2.582  17.905  0.00  0.00    +0.000 C 
ATOM      3  C   UNL     1       1.492   3.934  18.004  0.00  0.00    +0.000 C 
ATOM      4  C   UNL     1       1.935   4.751  19.214  0.00  0.00    +0.000 C 
ATOM      5  C   UNL     1       2.103   3.951  20.518  0.00  0.00    +0.000 C 
ATOM      6  C   UNL     1       1.057   3.023  21.071  0.00  0.00    +0.000 C 
ATOM      7  C   UNL     1       2.313   2.436  20.386  0.00  0.00    +0.000 C 
ATOM      8  N   UNL     1       1.922   1.808  19.116  0.00  0.00    +0.000 NA
ATOM      9  H   UNL     1       2.304   0.837  19.055  0.00  0.00    +0.000 HD
ENDBRANCH   1   2
BRANCH   1  10
ATOM     10  O   UNL     1       4.221   3.716  16.960  0.00  0.00    +0.000 OA
BRANCH  10  17
ATOM     11 CL   UNL     1       6.404   4.008  14.924  0.00  0.00    +0.000 Cl
ATOM     12  C   UNL     1       6.445   4.548  16.591  0.00  0.00    +0.000 A 
ATOM     13  N   UNL     1       7.558   5.180  17.055  0.00  0.00    +0.000 NA
ATOM     14  C   UNL     1       7.662   5.627  18.333  0.00  0.00    +0.000 A 
ATOM     15  C   UNL     1       6.604   5.442  19.217  0.00  0.00    +0.000 A 
ATOM     16  C   UNL     1       5.449   4.799  18.776  0.00  0.00    +0.000 A 
ATOM     17  C   UNL     1       5.342   4.337  17.442  0.00  0.00    +0.000 A 
ENDBRANCH  10  17
ENDBRANCH   1  10
TORSDOF 3
ENDMDL
MODEL 6
REMARK VINA RESULT:      -7.0      1.804      2.500
REMARK  Name = 
REMARK  3 active torsions:
REMARK  status: ('A' for Active; 'I' for Inactive)
REMARK    1  A    between atoms: C_7  and  O_8
REMARK    2  A    between atoms: O_8  and  C_9
REMARK    3  A    between atoms: C_9  and  C_10
REMARK                            x       y       z     vdW  Elec       q    Type
REMARK                         _______ _______ _______ _____ _____    ______ ____
ROOT
ATOM      1  C   UNL     1       4.939   4.027  19.360  0.00  0.00    +0.000 C 
ENDROOT
BRANCH   1   2
ATOM      2  C   UNL     1       4.086   2.737  19.216  0.00  0.00    +0.000 C 
ATOM      3  C   UNL     1       3.605   2.305  17.825  0.00  0.00    +0.000 C 
ATOM      4  C   UNL     1       2.509   3.211  17.271  0.00  0.00    +0.000 C 
ATOM      5  C   UNL     1       1.431   3.630  18.286  0.00  0.00    +0.000 C 
ATOM      6  C   UNL     1       0.690   2.662  19.166  0.00  0.00    +0.000 C 
ATOM      7  C   UNL     1       1.802   3.549  19.772  0.00  0.00    +0.000 C 
ATOM      8  N   UNL     1       2.948   2.705  20.138  0.00  0.00    +0.000 NA
ATOM      9  H   UNL     1       3.241   2.893  21.123  0.00  0.00    +0.000 HD
ENDBRANCH   1   2
BRANCH   1  10
ATOM     10  O   UNL     1       6.019   4.138  18.488  0.00  0.00    +0.000 OA
BRANCH  10  17
ATOM     11 CL   UNL     1       5.002   5.400  15.965  0.00  0.00    +0.000 Cl
ATOM     12  C   UNL     1       6.230   6.042  17.037  0.00  0.00    +0.000 A 
ATOM     13  N   UNL     1       6.807   7.240  16.742  0.00  0.00    +0.000 NA
ATOM     14  C   UNL     1       7.763   7.800  17.526  0.00  0.00    +0.000 A 
ATOM     15  C   UNL     1       8.185   7.143  18.677  0.00  0.00    +0.000 A 
ATOM     16  C   UNL     1       7.617   5.914  19.010  0.00  0.00    +0.000 A 
ATOM     17  C   UNL     1       6.617   5.334  18.192  0.00  0.00    +0.000 A 
ENDBRANCH  10  17
ENDBRANCH   1  10
TORSDOF 3
ENDMDL
MODEL 7
REMARK VINA RESULT:      -7.0      1.431      1.884
REMARK  Name = 
REMARK  3 active torsions:
REMARK  status: ('A' for Active; 'I' for Inactive)
REMARK    1  A    between atoms: C_7  and  O_8
REMARK    2  A    between atoms: O_8  and  C_9
REMARK    3  A    between atoms: C_9  and  C_10
REMARK                            x       y       z     vdW  Elec       q    Type
REMARK                         _______ _______ _______ _____ _____    ______ ____
ROOT
ATOM      1  C   UNL     1       3.664   5.779  18.287  0.00  0.00    +0.000 C 
ENDROOT
BRANCH   1   2
ATOM      2  C   UNL     1       3.185   4.798  19.392  0.00  0.00    +0.000 C 
ATOM      3  C   UNL     1       3.914   3.461  19.579  0.00  0.00    +0.000 C 
ATOM      4  C   UNL     1       3.641   2.476  18.446  0.00  0.00    +0.000 C 
ATOM      5  C   UNL     1       2.179   2.415  17.970  0.00  0.00    +0.000 C 
ATOM      6  C   UNL     1       1.005   2.240  18.894  0.00  0.00    +0.000 C 
ATOM      7  C   UNL     1       1.293   3.630  18.278  0.00  0.00    +0.000 C 
ATOM      8  N   UNL     1       1.743   4.543  19.338  0.00  0.00    +0.000 NA
ATOM      9  H   UNL     1       1.193   5.432  19.312  0.00  0.00    +0.000 HD
ENDBRANCH   1   2
BRANCH   1  10
ATOM     10  O   UNL     1       5.042   5.861  18.107  0.00  0.00    +0.000 OA
BRANCH  10  17
ATOM     11 CL   UNL     1       7.714   7.166  17.719  0.00  0.00    +0.000 Cl
ATOM     12  C   UNL     1       6.932   6.035  16.634  0.00  0.00    +0.000 A 
ATOM     13  N   UNL     1       7.568   5.671  15.486  0.00  0.00    +0.000 NA
ATOM     14  C   UNL     1       7.026   4.799  14.598  0.00  0.00    +0.000 A 
ATOM     15  C   UNL     1       5.775   4.245  14.851  0.00  0.00    +0.000 A 
ATOM     16  C   UNL     1       5.095   4.595  16.016  0.00  0.00    +0.000 A 
ATOM     17  C   UNL     1       5.665   5.502  16.942  0.00  0.00    +0.000 A 
ENDBRANCH  10  17
ENDBRANCH   1  10
TORSDOF 3
ENDMDL
MODEL 8
REMARK VINA RESULT:      -7.0      1.398      1.895
REMARK  Name = 
REMARK  3 active torsions:
REMARK  status: ('A' for Active; 'I' for Inactive)
REMARK    1  A    between atoms: C_7  and  O_8
REMARK    2  A    between atoms: O_8  and  C_9
REMARK    3  A    between atoms: C_9  and  C_10
REMARK                            x       y       z     vdW  Elec       q    Type
REMARK                         _______ _______ _______ _____ _____    ______ ____
ROOT
ATOM      1  C   UNL     1       3.851   5.323  19.405  0.00  0.00    +0.000 C 
ENDROOT
BRANCH   1   2
ATOM      2  C   UNL     1       2.937   4.333  20.177  0.00  0.00    +0.000 C 
ATOM      3  C   UNL     1       3.386   2.877  20.355  0.00  0.00    +0.000 C 
ATOM      4  C   UNL     1       3.325   2.077  19.057  0.00  0.00    +0.000 C 
ATOM      5  C   UNL     1       2.074   2.323  18.195  0.00  0.00    +0.000 C 
ATOM      6  C   UNL     1       0.668   2.263  18.725  0.00  0.00    +0.000 C 
ATOM      7  C   UNL     1       1.314   3.636  18.427  0.00  0.00    +0.000 C 
ATOM      8  N   UNL     1       1.554   4.342  19.693  0.00  0.00    +0.000 NA
ATOM      9  H   UNL     1       1.165   5.311  19.651  0.00  0.00    +0.000 HD
ENDBRANCH   1   2
BRANCH   1  10
ATOM     10  O   UNL     1       5.160   4.898  19.193  0.00  0.00    +0.000 OA
BRANCH  10  17
ATOM     11 CL   UNL     1       8.067   5.623  19.069  0.00  0.00    +0.000 Cl
ATOM     12  C   UNL     1       7.068   5.063  17.743  0.00  0.00    +0.000 A 
ATOM     13  N   UNL     1       7.627   4.916  16.509  0.00  0.00    +0.000 NA
ATOM     14  C   UNL     1       6.917   4.486  15.435  0.00  0.00    +0.000 A 
ATOM     15  C   UNL     1       5.567   4.179  15.578  0.00  0.00    +0.000 A 
ATOM     16  C   UNL     1       4.962   4.318  16.826  0.00  0.00    +0.000 A 
ATOM     17  C   UNL     1       5.707   4.764  17.945  0.00  0.00    +0.000 A 
ENDBRANCH  10  17
ENDBRANCH   1  10
TORSDOF 3
ENDMDL
MODEL 9
REMARK VINA RESULT:      -6.9      1.428      1.472
REMARK  Name = 
REMARK  3 active torsions:
REMARK  status: ('A' for Active; 'I' for Inactive)
REMARK    1  A    between atoms: C_7  and  O_8
REMARK    2  A    between atoms: O_8  and  C_9
REMARK    3  A    between atoms: C_9  and  C_10
REMARK                            x       y       z     vdW  Elec       q    Type
REMARK                         _______ _______ _______ _____ _____    ______ ____
ROOT
ATOM      1  C   UNL     1       2.906   5.056  17.902  0.00  0.00    +0.000 C 
ENDROOT
BRANCH   1   2
ATOM      2  C   UNL     1       3.138   3.670  18.563  0.00  0.00    +0.000 C 
ATOM      3  C   UNL     1       2.113   2.550  18.344  0.00  0.00    +0.000 C 
ATOM      4  C   UNL     1       0.802   2.796  19.085  0.00  0.00    +0.000 C 
ATOM      5  C   UNL     1       0.951   3.336  20.518  0.00  0.00    +0.000 C 
ATOM      6  C   UNL     1       1.844   2.716  21.557  0.00  0.00    +0.000 C 
ATOM      7  C   UNL     1       2.273   4.032  20.867  0.00  0.00    +0.000 C 
ATOM      8  N   UNL     1       3.427   3.767  19.996  0.00  0.00    +0.000 NA
ATOM      9  H   UNL     1       4.196   4.448  20.191  0.00  0.00    +0.000 HD
ENDBRANCH   1   2
BRANCH   1  10
ATOM     10  O   UNL     1       4.039   5.850  17.747  0.00  0.00    +0.000 OA
BRANCH  10  17
ATOM     11 CL   UNL     1       6.549   5.416  19.330  0.00  0.00    +0.000 Cl
ATOM     12  C   UNL     1       6.356   5.231  17.598  0.00  0.00    +0.000 A 
ATOM     13  N   UNL     1       7.426   4.843  16.850  0.00  0.00    +0.000 NA
ATOM     14  C   UNL     1       7.352   4.677  15.505  0.00  0.00    +0.000 A 
ATOM     15  C   UNL     1       6.148   4.908  14.845  0.00  0.00    +0.000 A 
ATOM     16  C   UNL     1       5.032   5.308  15.580  0.00  0.00    +0.000 A 
ATOM     17  C   UNL     1       5.112   5.476  16.983  0.00  0.00    +0.000 A 
ENDBRANCH  10  17
ENDBRANCH   1  10
TORSDOF 3
ENDMDL
