MODEL 1
REMARK VINA RESULT:      -7.4      0.000      0.000
REMARK  Name = 
REMARK  6 active torsions:
REMARK  status: ('A' for Active; 'I' for Inactive)
REMARK    1  A    between atoms: C_1  and  C_2
REMARK    2  A    between atoms: C_2  and  C_3
REMARK    3  A    between atoms: C_2  and  N_4
REMARK    4  A    between atoms: C_7  and  C_8
REMARK    5  A    between atoms: C_7  and  C_9
REMARK    6  A    between atoms: N_11  and  C_12
REMARK                            x       y       z     vdW  Elec       q    Type
REMARK                         _______ _______ _______ _____ _____    ______ ____
ROOT
ATOM      1  C   UNL     1       1.568   9.112  18.502  0.00  0.00    +0.000 C 
ATOM      2  O   UNL     1       1.846   9.274  17.307  0.00  0.00    +0.000 OA
ATOM      3  N   UNL     1       1.924   7.989  19.242  0.00  0.00    +0.000 N 
ATOM      4  H   UNL     1       1.477   7.937  20.152  0.00  0.00    +0.000 HD
ENDROOT
BRANCH   3   5
ATOM      5  C   UNL     1       2.687   6.883  18.779  0.00  0.00    +0.000 A 
ATOM      6  C   UNL     1       3.670   7.074  17.796  0.00  0.00    +0.000 A 
ATOM      7  C   UNL     1       4.394   6.009  17.278  0.00  0.00    +0.000 A 
ATOM      8  C   UNL     1       4.157   4.724  17.742  0.00  0.00    +0.000 A 
ATOM      9  C   UNL     1       3.212   4.491  18.745  0.00  0.00    +0.000 A 
ATOM     10  C   UNL     1       3.004   3.174  19.187  0.00  0.00    +0.000 A 
ATOM     11  C   UNL     1       2.074   2.891  20.182  0.00  0.00    +0.000 A 
ATOM     12  C   UNL     1       1.348   3.924  20.754  0.00  0.00    +0.000 A 
ATOM     13  C   UNL     1       1.536   5.241  20.320  0.00  0.00    +0.000 A 
ATOM     14  C   UNL     1       2.466   5.569  19.301  0.00  0.00    +0.000 A 
ENDBRANCH   3   5
BRANCH   1  18
ATOM     15  N   UNL     1      -0.282  10.952  18.416  0.00  0.00    +0.000 NA
ATOM     16  C   UNL     1       0.084  12.189  19.152  0.00  0.00    +0.000 C 
ATOM     17  C   UNL     1       1.413  11.529  19.542  0.00  0.00    +0.000 C 
ATOM     18  C   UNL     1       0.689  10.172  19.295  0.00  0.00    +0.000 C 
ATOM     19  C   UNL     1       0.149   9.574  20.603  0.00  0.00    +0.000 C 
BRANCH  15  21
ATOM     20  C   UNL     1      -2.561  11.842  18.884  0.00  0.00    +0.000 C 
ATOM     21  C   UNL     1      -1.701  10.598  18.613  0.00  0.00    +0.000 C 
ATOM     22  C   UNL     1      -2.240   9.917  17.351  0.00  0.00    +0.000 C 
ENDBRANCH  15  21
ENDBRANCH   1  18
TORSDOF 3
ENDMDL
MODEL 2
REMARK VINA RESULT:      -7.3      1.062      2.123
REMARK  Name = 
REMARK  6 active torsions:
REMARK  status: ('A' for Active; 'I' for Inactive)
REMARK    1  A    between atoms: C_1  and  C_2
REMARK    2  A    between atoms: C_2  and  C_3
REMARK    3  A    between atoms: C_2  and  N_4
REMARK    4  A    between atoms: C_7  and  C_8
REMARK    5  A    between atoms: C_7  and  C_9
REMARK    6  A    between atoms: N_11  and  C_12
REMARK                            x       y       z     vdW  Elec       q    Type
REMARK                         _______ _______ _______ _____ _____    ______ ____
ROOT
ATOM      1  C   UNL     1       1.920   8.902  18.215  0.00  0.00    +0.000 C 
ATOM      2  O   UNL     1       2.397   9.023  17.080  0.00  0.00    +0.000 OA
ATOM      3  N   UNL     1       2.080   7.775  19.015  0.00  0.00    +0.000 N 
ATOM      4  H   UNL     1       1.490   7.769  19.841  0.00  0.00    +0.000 HD
ENDROOT
BRANCH   3   5
ATOM      5  C   UNL     1       2.837   6.616  18.694  0.00  0.00    +0.000 A 
ATOM      6  C   UNL     1       3.876   6.698  17.754  0.00  0.00    +0.000 A 
ATOM      7  C   UNL     1       4.599   5.576  17.372  0.00  0.00    +0.000 A 
ATOM      8  C   UNL     1       4.304   4.343  17.934  0.00  0.00    +0.000 A 
ATOM      9  C   UNL     1       3.301   4.220  18.900  0.00  0.00    +0.000 A 
ATOM     10  C   UNL     1       3.036   2.952  19.444  0.00  0.00    +0.000 A 
ATOM     11  C   UNL     1       2.047   2.779  20.408  0.00  0.00    +0.000 A 
ATOM     12  C   UNL     1       1.319   3.875  20.845  0.00  0.00    +0.000 A 
ATOM     13  C   UNL     1       1.564   5.144  20.308  0.00  0.00    +0.000 A 
ATOM     14  C   UNL     1       2.556   5.360  19.317  0.00  0.00    +0.000 A 
ENDBRANCH   3   5
BRANCH   1  18
ATOM     15  N   UNL     1       0.256   9.591  20.106  0.00  0.00    +0.000 NA
ATOM     16  C   UNL     1      -0.966  10.265  19.596  0.00  0.00    +0.000 C 
ATOM     17  C   UNL     1      -0.410  10.134  18.173  0.00  0.00    +0.000 C 
ATOM     18  C   UNL     1       0.992  10.029  18.844  0.00  0.00    +0.000 C 
ATOM     19  C   UNL     1       1.709  11.387  18.868  0.00  0.00    +0.000 C 
BRANCH  15  21
ATOM     20  C   UNL     1      -0.356  11.017  22.055  0.00  0.00    +0.000 C 
ATOM     21  C   UNL     1       0.750  10.219  21.347  0.00  0.00    +0.000 C 
ATOM     22  C   UNL     1       1.240   9.134  22.311  0.00  0.00    +0.000 C 
ENDBRANCH  15  21
ENDBRANCH   1  18
TORSDOF 3
ENDMDL
MODEL 3
REMARK VINA RESULT:      -7.3      1.376      2.233
REMARK  Name = 
REMARK  6 active torsions:
REMARK  status: ('A' for Active; 'I' for Inactive)
REMARK    1  A    between atoms: C_1  and  C_2
REMARK    2  A    between atoms: C_2  and  C_3
REMARK    3  A    between atoms: C_2  and  N_4
REMARK    4  A    between atoms: C_7  and  C_8
REMARK    5  A    between atoms: C_7  and  C_9
REMARK    6  A    between atoms: N_11  and  C_12
REMARK                            x       y       z     vdW  Elec       q    Type
REMARK                         _______ _______ _______ _____ _____    ______ ____
ROOT
ATOM      1  C   UNL     1       1.792   8.902  18.312  0.00  0.00    +0.000 C 
ATOM      2  O   UNL     1       2.112   9.335  17.198  0.00  0.00    +0.000 OA
ATOM      3  N   UNL     1       2.177   7.661  18.809  0.00  0.00    +0.000 N 
ATOM      4  H   UNL     1       1.694   7.390  19.660  0.00  0.00    +0.000 HD
ENDROOT
BRANCH   3   5
ATOM      5  C   UNL     1       3.021   6.720  18.160  0.00  0.00    +0.000 A 
ATOM      6  C   UNL     1       4.187   7.157  17.512  0.00  0.00    +0.000 A 
ATOM      7  C   UNL     1       5.005   6.274  16.818  0.00  0.00    +0.000 A 
ATOM      8  C   UNL     1       4.678   4.928  16.767  0.00  0.00    +0.000 A 
ATOM      9  C   UNL     1       3.546   4.442  17.428  0.00  0.00    +0.000 A 
ATOM     10  C   UNL     1       3.253   3.070  17.351  0.00  0.00    +0.000 A 
ATOM     11  C   UNL     1       2.137   2.540  17.990  0.00  0.00    +0.000 A 
ATOM     12  C   UNL     1       1.306   3.374  18.722  0.00  0.00    +0.000 A 
ATOM     13  C   UNL     1       1.578   4.745  18.802  0.00  0.00    +0.000 A 
ATOM     14  C   UNL     1       2.699   5.326  18.157  0.00  0.00    +0.000 A 
ENDBRANCH   3   5
BRANCH   1  18
ATOM     15  N   UNL     1       1.491  10.890  19.978  0.00  0.00    +0.000 NA
ATOM     16  C   UNL     1       0.776  10.510  21.223  0.00  0.00    +0.000 C 
ATOM     17  C   UNL     1       0.641   9.084  20.677  0.00  0.00    +0.000 C 
ATOM     18  C   UNL     1       0.819   9.720  19.266  0.00  0.00    +0.000 C 
ATOM     19  C   UNL     1      -0.534   9.978  18.588  0.00  0.00    +0.000 C 
BRANCH  15  21
ATOM     20  C   UNL     1       1.017  13.246  20.633  0.00  0.00    +0.000 C 
ATOM     21  C   UNL     1       1.075  12.219  19.491  0.00  0.00    +0.000 C 
ATOM     22  C   UNL     1       2.082  12.724  18.453  0.00  0.00    +0.000 C 
ENDBRANCH  15  21
ENDBRANCH   1  18
TORSDOF 3
ENDMDL
MODEL 4
REMARK VINA RESULT:      -7.2      0.991      1.993
REMARK  Name = 
REMARK  6 active torsions:
REMARK  status: ('A' for Active; 'I' for Inactive)
REMARK    1  A    between atoms: C_1  and  C_2
REMARK    2  A    between atoms: C_2  and  C_3
REMARK    3  A    between atoms: C_2  and  N_4
REMARK    4  A    between atoms: C_7  and  C_8
REMARK    5  A    between atoms: C_7  and  C_9
REMARK    6  A    between atoms: N_11  and  C_12
REMARK                            x       y       z     vdW  Elec       q    Type
REMARK                         _______ _______ _______ _____ _____    ______ ____
ROOT
ATOM      1  C   UNL     1       1.639   9.002  18.485  0.00  0.00    +0.000 C 
ATOM      2  O   UNL     1       1.986   9.170  17.310  0.00  0.00    +0.000 OA
ATOM      3  N   UNL     1       1.969   7.886  19.246  0.00  0.00    +0.000 N 
ATOM      4  H   UNL     1       1.469   7.826  20.128  0.00  0.00    +0.000 HD
ENDROOT
BRANCH   3   5
ATOM      5  C   UNL     1       2.777   6.793  18.832  0.00  0.00    +0.000 A 
ATOM      6  C   UNL     1       3.711   6.968  17.798  0.00  0.00    +0.000 A 
ATOM      7  C   UNL     1       4.477   5.910  17.327  0.00  0.00    +0.000 A 
ATOM      8  C   UNL     1       4.333   4.651  17.889  0.00  0.00    +0.000 A 
ATOM      9  C   UNL     1       3.440   4.438  18.944  0.00  0.00    +0.000 A 
ATOM     10  C   UNL     1       3.327   3.147  19.486  0.00  0.00    +0.000 A 
ATOM     11  C   UNL     1       2.452   2.885  20.535  0.00  0.00    +0.000 A 
ATOM     12  C   UNL     1       1.688   3.915  21.062  0.00  0.00    +0.000 A 
ATOM     13  C   UNL     1       1.782   5.206  20.530  0.00  0.00    +0.000 A 
ATOM     14  C   UNL     1       2.654   5.511  19.453  0.00  0.00    +0.000 A 
ENDBRANCH   3   5
BRANCH   1  18
ATOM     15  N   UNL     1       1.435  11.245  19.807  0.00  0.00    +0.000 NA
ATOM     16  C   UNL     1       0.600  11.132  21.030  0.00  0.00    +0.000 C 
ATOM     17  C   UNL     1       0.355   9.657  20.692  0.00  0.00    +0.000 C 
ATOM     18  C   UNL     1       0.694  10.047  19.223  0.00  0.00    +0.000 C 
ATOM     19  C   UNL     1      -0.575  10.319  18.403  0.00  0.00    +0.000 C 
BRANCH  15  21
ATOM     20  C   UNL     1       1.045  13.691  20.073  0.00  0.00    +0.000 C 
ATOM     21  C   UNL     1       1.193  12.515  19.095  0.00  0.00    +0.000 C 
ATOM     22  C   UNL     1       2.376  12.818  18.170  0.00  0.00    +0.000 C 
ENDBRANCH  15  21
ENDBRANCH   1  18
TORSDOF 3
ENDMDL
MODEL 5
REMARK VINA RESULT:      -7.1      2.025      7.046
REMARK  Name = 
REMARK  6 active torsions:
REMARK  status: ('A' for Active; 'I' for Inactive)
REMARK    1  A    between atoms: C_1  and  C_2
REMARK    2  A    between atoms: C_2  and  C_3
REMARK    3  A    between atoms: C_2  and  N_4
REMARK    4  A    between atoms: C_7  and  C_8
REMARK    5  A    between atoms: C_7  and  C_9
REMARK    6  A    between atoms: N_11  and  C_12
REMARK                            x       y       z     vdW  Elec       q    Type
REMARK                         _______ _______ _______ _____ _____    ______ ____
ROOT
ATOM      1  C   UNL     1       2.115   6.179  20.066  0.00  0.00    +0.000 C 
ATOM      2  O   UNL     1       1.331   5.591  20.821  0.00  0.00    +0.000 OA
ATOM      3  N   UNL     1       2.172   7.561  19.921  0.00  0.00    +0.000 N 
ATOM      4  H   UNL     1       2.748   7.871  19.145  0.00  0.00    +0.000 HD
ENDROOT
BRANCH   3   5
ATOM      5  C   UNL     1       1.392   8.515  20.630  0.00  0.00    +0.000 A 
ATOM      6  C   UNL     1       1.449   8.561  22.031  0.00  0.00    +0.000 A 
ATOM      7  C   UNL     1       0.658   9.439  22.761  0.00  0.00    +0.000 A 
ATOM      8  C   UNL     1      -0.203  10.302  22.099  0.00  0.00    +0.000 A 
ATOM      9  C   UNL     1      -0.267  10.316  20.703  0.00  0.00    +0.000 A 
ATOM     10  C   UNL     1      -1.151  11.207  20.074  0.00  0.00    +0.000 A 
ATOM     11  C   UNL     1      -1.251  11.257  18.687  0.00  0.00    +0.000 A 
ATOM     12  C   UNL     1      -0.460  10.423  17.913  0.00  0.00    +0.000 A 
ATOM     13  C   UNL     1       0.421   9.522  18.523  0.00  0.00    +0.000 A 
ATOM     14  C   UNL     1       0.545   9.434  19.934  0.00  0.00    +0.000 A 
ENDBRANCH   3   5
BRANCH   1  18
ATOM     15  N   UNL     1       3.127   3.874  19.375  0.00  0.00    +0.000 NA
ATOM     16  C   UNL     1       4.605   3.900  19.230  0.00  0.00    +0.000 C 
ATOM     17  C   UNL     1       4.584   5.392  19.587  0.00  0.00    +0.000 C 
ATOM     18  C   UNL     1       3.101   5.376  19.113  0.00  0.00    +0.000 C 
ATOM     19  C   UNL     1       2.968   5.847  17.657  0.00  0.00    +0.000 C 
BRANCH  15  21
ATOM     20  C   UNL     1       3.290   1.782  18.031  0.00  0.00    +0.000 C 
ATOM     21  C   UNL     1       2.489   3.061  18.321  0.00  0.00    +0.000 C 
ATOM     22  C   UNL     1       1.085   2.646  18.772  0.00  0.00    +0.000 C 
ENDBRANCH  15  21
ENDBRANCH   1  18
TORSDOF 3
ENDMDL
MODEL 6
REMARK VINA RESULT:      -6.9      2.128      6.456
REMARK  Name = 
REMARK  6 active torsions:
REMARK  status: ('A' for Active; 'I' for Inactive)
REMARK    1  A    between atoms: C_1  and  C_2
REMARK    2  A    between atoms: C_2  and  C_3
REMARK    3  A    between atoms: C_2  and  N_4
REMARK    4  A    between atoms: C_7  and  C_8
REMARK    5  A    between atoms: C_7  and  C_9
REMARK    6  A    between atoms: N_11  and  C_12
REMARK                            x       y       z     vdW  Elec       q    Type
REMARK                         _______ _______ _______ _____ _____    ______ ____
ROOT
ATOM      1  C   UNL     1       3.401   6.284  18.279  0.00  0.00    +0.000 C 
ATOM      2  O   UNL     1       4.274   6.949  17.708  0.00  0.00    +0.000 OA
ATOM      3  N   UNL     1       2.270   6.830  18.878  0.00  0.00    +0.000 N 
ATOM      4  H   UNL     1       1.745   6.170  19.444  0.00  0.00    +0.000 HD
ENDROOT
BRANCH   3   5
ATOM      5  C   UNL     1       1.908   8.203  18.899  0.00  0.00    +0.000 A 
ATOM      6  C   UNL     1       2.183   9.015  17.787  0.00  0.00    +0.000 A 
ATOM      7  C   UNL     1       1.896  10.374  17.792  0.00  0.00    +0.000 A 
ATOM      8  C   UNL     1       1.316  10.951  18.912  0.00  0.00    +0.000 A 
ATOM      9  C   UNL     1       0.992  10.174  20.029  0.00  0.00    +0.000 A 
ATOM     10  C   UNL     1       0.403  10.799  21.140  0.00  0.00    +0.000 A 
ATOM     11  C   UNL     1       0.065  10.069  22.275  0.00  0.00    +0.000 A 
ATOM     12  C   UNL     1       0.301   8.704  22.307  0.00  0.00    +0.000 A 
ATOM     13  C   UNL     1       0.895   8.066  21.211  0.00  0.00    +0.000 A 
ATOM     14  C   UNL     1       1.264   8.776  20.040  0.00  0.00    +0.000 A 
ENDBRANCH   3   5
BRANCH   1  18
ATOM     15  N   UNL     1       3.494   4.236  19.896  0.00  0.00    +0.000 NA
ATOM     16  C   UNL     1       4.613   3.305  19.602  0.00  0.00    +0.000 C 
ATOM     17  C   UNL     1       5.015   4.205  18.427  0.00  0.00    +0.000 C 
ATOM     18  C   UNL     1       3.541   4.710  18.448  0.00  0.00    +0.000 C 
ATOM     19  C   UNL     1       2.674   3.965  17.422  0.00  0.00    +0.000 C 
BRANCH  15  21
ATOM     20  C   UNL     1       2.482   2.593  21.472  0.00  0.00    +0.000 C 
ATOM     21  C   UNL     1       2.261   3.512  20.260  0.00  0.00    +0.000 C 
ATOM     22  C   UNL     1       1.164   4.517  20.625  0.00  0.00    +0.000 C 
ENDBRANCH  15  21
ENDBRANCH   1  18
TORSDOF 3
ENDMDL
MODEL 7
REMARK VINA RESULT:      -6.8      1.751      2.406
REMARK  Name = 
REMARK  6 active torsions:
REMARK  status: ('A' for Active; 'I' for Inactive)
REMARK    1  A    between atoms: C_1  and  C_2
REMARK    2  A    between atoms: C_2  and  C_3
REMARK    3  A    between atoms: C_2  and  N_4
REMARK    4  A    between atoms: C_7  and  C_8
REMARK    5  A    between atoms: C_7  and  C_9
REMARK    6  A    between atoms: N_11  and  C_12
REMARK                            x       y       z     vdW  Elec       q    Type
REMARK                         _______ _______ _______ _____ _____    ______ ____
ROOT
ATOM      1  C   UNL     1       2.040   8.341  18.904  0.00  0.00    +0.000 C 
ATOM      2  O   UNL     1       2.172   7.800  20.009  0.00  0.00    +0.000 OA
ATOM      3  N   UNL     1       2.714   7.943  17.754  0.00  0.00    +0.000 N 
ATOM      4  H   UNL     1       2.623   8.592  16.978  0.00  0.00    +0.000 HD
ENDROOT
BRANCH   3   5
ATOM      5  C   UNL     1       3.612   6.848  17.640  0.00  0.00    +0.000 A 
ATOM      6  C   UNL     1       4.983   7.085  17.455  0.00  0.00    +0.000 A 
ATOM      7  C   UNL     1       5.882   6.041  17.282  0.00  0.00    +0.000 A 
ATOM      8  C   UNL     1       5.429   4.731  17.301  0.00  0.00    +0.000 A 
ATOM      9  C   UNL     1       4.077   4.446  17.518  0.00  0.00    +0.000 A 
ATOM     10  C   UNL     1       3.661   3.105  17.531  0.00  0.00    +0.000 A 
ATOM     11  C   UNL     1       2.327   2.771  17.742  0.00  0.00    +0.000 A 
ATOM     12  C   UNL     1       1.395   3.776  17.951  0.00  0.00    +0.000 A 
ATOM     13  C   UNL     1       1.790   5.119  17.933  0.00  0.00    +0.000 A 
ATOM     14  C   UNL     1       3.139   5.500  17.711  0.00  0.00    +0.000 A 
ENDBRANCH   3   5
BRANCH   1  18
ATOM     15  N   UNL     1       0.012   9.746  19.759  0.00  0.00    +0.000 NA
ATOM     16  C   UNL     1      -0.926  10.142  18.678  0.00  0.00    +0.000 C 
ATOM     17  C   UNL     1      -0.016   9.434  17.667  0.00  0.00    +0.000 C 
ATOM     18  C   UNL     1       1.119   9.623  18.718  0.00  0.00    +0.000 C 
ATOM     19  C   UNL     1       1.963  10.871  18.419  0.00  0.00    +0.000 C 
BRANCH  15  21
ATOM     20  C   UNL     1      -0.837  11.944  20.567  0.00  0.00    +0.000 C 
ATOM     21  C   UNL     1       0.213  10.834  20.735  0.00  0.00    +0.000 C 
ATOM     22  C   UNL     1       0.088  10.278  22.157  0.00  0.00    +0.000 C 
ENDBRANCH  15  21
ENDBRANCH   1  18
TORSDOF 3
ENDMDL
MODEL 8
REMARK VINA RESULT:      -6.8      1.967      6.777
REMARK  Name = 
REMARK  6 active torsions:
REMARK  status: ('A' for Active; 'I' for Inactive)
REMARK    1  A    between atoms: C_1  and  C_2
REMARK    2  A    between atoms: C_2  and  C_3
REMARK    3  A    between atoms: C_2  and  N_4
REMARK    4  A    between atoms: C_7  and  C_8
REMARK    5  A    between atoms: C_7  and  C_9
REMARK    6  A    between atoms: N_11  and  C_12
REMARK                            x       y       z     vdW  Elec       q    Type
REMARK                         _______ _______ _______ _____ _____    ______ ____
ROOT
ATOM      1  C   UNL     1       2.412   6.537  19.181  0.00  0.00    +0.000 C 
ATOM      2  O   UNL     1       2.409   6.792  17.970  0.00  0.00    +0.000 OA
ATOM      3  N   UNL     1       1.960   7.409  20.165  0.00  0.00    +0.000 N 
ATOM      4  H   UNL     1       2.187   7.117  21.110  0.00  0.00    +0.000 HD
ENDROOT
BRANCH   3   5
ATOM      5  C   UNL     1       1.390   8.693  19.954  0.00  0.00    +0.000 A 
ATOM      6  C   UNL     1       1.551   9.335  18.716  0.00  0.00    +0.000 A 
ATOM      7  C   UNL     1       1.058  10.613  18.492  0.00  0.00    +0.000 A 
ATOM      8  C   UNL     1       0.380  11.277  19.503  0.00  0.00    +0.000 A 
ATOM      9  C   UNL     1       0.165  10.663  20.741  0.00  0.00    +0.000 A 
ATOM     10  C   UNL     1      -0.528  11.371  21.737  0.00  0.00    +0.000 A 
ATOM     11  C   UNL     1      -0.766  10.803  22.984  0.00  0.00    +0.000 A 
ATOM     12  C   UNL     1      -0.321   9.517  23.247  0.00  0.00    +0.000 A 
ATOM     13  C   UNL     1       0.379   8.800  22.269  0.00  0.00    +0.000 A 
ATOM     14  C   UNL     1       0.650   9.347  20.989  0.00  0.00    +0.000 A 
ENDBRANCH   3   5
BRANCH   1  18
ATOM     15  N   UNL     1       2.332   3.927  19.203  0.00  0.00    +0.000 NA
ATOM     16  C   UNL     1       2.380   3.349  20.571  0.00  0.00    +0.000 C 
ATOM     17  C   UNL     1       2.478   4.771  21.137  0.00  0.00    +0.000 C 
ATOM     18  C   UNL     1       3.023   5.177  19.735  0.00  0.00    +0.000 C 
ATOM     19  C   UNL     1       4.558   5.211  19.714  0.00  0.00    +0.000 C 
BRANCH  15  21
ATOM     20  C   UNL     1       3.058   1.637  18.542  0.00  0.00    +0.000 C 
ATOM     21  C   UNL     1       3.141   3.144  18.249  0.00  0.00    +0.000 C 
ATOM     22  C   UNL     1       2.624   3.377  16.826  0.00  0.00    +0.000 C 
ENDBRANCH  15  21
ENDBRANCH   1  18
TORSDOF 3
ENDMDL
MODEL 9
REMARK VINA RESULT:      -6.7      2.229      6.467
REMARK  Name = 
REMARK  6 active torsions:
REMARK  status: ('A' for Active; 'I' for Inactive)
REMARK    1  A    between atoms: C_1  and  C_2
REMARK    2  A    between atoms: C_2  and  C_3
REMARK    3  A    between atoms: C_2  and  N_4
REMARK    4  A    between atoms: C_7  and  C_8
REMARK    5  A    between atoms: C_7  and  C_9
REMARK    6  A    between atoms: N_11  and  C_12
REMARK                            x       y       z     vdW  Elec       q    Type
REMARK                         _______ _______ _______ _____ _____    ______ ____
ROOT
ATOM      1  C   UNL     1       3.780   6.479  17.967  0.00  0.00    +0.000 C 
ATOM      2  O   UNL     1       4.475   7.260  17.306  0.00  0.00    +0.000 OA
ATOM      3  N   UNL     1       2.658   6.857  18.696  0.00  0.00    +0.000 N 
ATOM      4  H   UNL     1       2.304   6.133  19.313  0.00  0.00    +0.000 HD
ENDROOT
BRANCH   3   5
ATOM      5  C   UNL     1       2.103   8.164  18.771  0.00  0.00    +0.000 A 
ATOM      6  C   UNL     1       2.250   9.048  17.691  0.00  0.00    +0.000 A 
ATOM      7  C   UNL     1       1.773  10.351  17.751  0.00  0.00    +0.000 A 
ATOM      8  C   UNL     1       1.125  10.795  18.893  0.00  0.00    +0.000 A 
ATOM      9  C   UNL     1       0.924   9.938  19.979  0.00  0.00    +0.000 A 
ATOM     10  C   UNL     1       0.261  10.429  21.116  0.00  0.00    +0.000 A 
ATOM     11  C   UNL     1       0.039   9.616  22.222  0.00  0.00    +0.000 A 
ATOM     12  C   UNL     1       0.468   8.298  22.200  0.00  0.00    +0.000 A 
ATOM     13  C   UNL     1       1.138   7.794  21.079  0.00  0.00    +0.000 A 
ATOM     14  C   UNL     1       1.393   8.594  19.936  0.00  0.00    +0.000 A 
ENDBRANCH   3   5
BRANCH   1  18
ATOM     15  N   UNL     1       3.295   4.171  19.086  0.00  0.00    +0.000 NA
ATOM     16  C   UNL     1       4.516   3.500  19.603  0.00  0.00    +0.000 C 
ATOM     17  C   UNL     1       5.348   4.679  19.084  0.00  0.00    +0.000 C 
ATOM     18  C   UNL     1       4.167   4.944  18.103  0.00  0.00    +0.000 C 
ATOM     19  C   UNL     1       4.425   4.314  16.726  0.00  0.00    +0.000 C 
BRANCH  15  21
ATOM     20  C   UNL     1       2.852   1.763  18.628  0.00  0.00    +0.000 C 
ATOM     21  C   UNL     1       2.369   3.211  18.455  0.00  0.00    +0.000 C 
ATOM     22  C   UNL     1       0.987   3.328  19.104  0.00  0.00    +0.000 C 
ENDBRANCH  15  21
ENDBRANCH   1  18
TORSDOF 3
ENDMDL
