MODEL 1
REMARK VINA RESULT:      -8.7      0.000      0.000
REMARK  Name = 
REMARK  6 active torsions:
REMARK  status: ('A' for Active; 'I' for Inactive)
REMARK    1  A    between atoms: C_2  and  C_3
REMARK    2  A    between atoms: C_3  and  O_4
REMARK    3  A    between atoms: N_8  and  C_9
REMARK    4  A    between atoms: C_13  and  N_14
REMARK    5  A    between atoms: C_16  and  C_17
REMARK    6  A    between atoms: C_17  and  N_18
REMARK                            x       y       z     vdW  Elec       q    Type
REMARK                         _______ _______ _______ _____ _____    ______ ____
ROOT
ATOM      1  C   UNL     1       1.051   9.683  19.400  0.00  0.00    +0.000 A 
ATOM      2  C   UNL     1       1.829   9.415  18.263  0.00  0.00    +0.000 A 
ATOM      3  F   UNL     1       1.945  10.322  17.279  0.00  0.00    +0.000 F 
ATOM      4  C   UNL     1       2.536   8.227  18.089  0.00  0.00    +0.000 A 
ATOM      5  C   UNL     1       2.481   7.215  19.043  0.00  0.00    +0.000 A 
ATOM      6  C   UNL     1       1.716   7.449  20.187  0.00  0.00    +0.000 A 
ATOM      7  C   UNL     1       1.029   8.653  20.356  0.00  0.00    +0.000 A 
ATOM      8  F   UNL     1       0.293   8.774  21.475  0.00  0.00    +0.000 F 
ENDROOT
BRANCH   1  14
ATOM      9  O   UNL     1      -0.886  13.734  23.731  0.00  0.00    +0.000 OA
ATOM     10  C   UNL     1      -1.528  13.237  22.806  0.00  0.00    +0.000 C 
ATOM     11  N   UNL     1      -0.969  12.530  21.760  0.00  0.00    +0.000 N 
ATOM     12  C   UNL     1       0.412  12.070  21.769  0.00  0.00    +0.000 C 
ATOM     13  C   UNL     1       0.957  11.980  20.334  0.00  0.00    +0.000 C 
ATOM     14  N   UNL     1       0.355  10.877  19.571  0.00  0.00    +0.000 N 
ATOM     15  C   UNL     1      -0.982  11.025  18.972  0.00  0.00    +0.000 C 
ATOM     16  C   UNL     1      -1.979  11.828  19.812  0.00  0.00    +0.000 C 
ATOM     17  O   UNL     1      -1.838  11.550  21.206  0.00  0.00    +0.000 OA
BRANCH  10  18
ATOM     18  C   UNL     1      -3.041  13.451  22.675  0.00  0.00    +0.000 C 
BRANCH  18  19
ATOM     19  O   UNL     1      -3.807  12.325  23.077  0.00  0.00    +0.000 OA
ATOM     20  H   UNL     1      -3.583  11.618  22.445  0.00  0.00    +0.000 HD
ENDBRANCH  18  19
ENDBRANCH  10  18
ENDBRANCH   1  14
BRANCH   5  21
ATOM     21  N   UNL     1       3.153   5.983  18.860  0.00  0.00    +0.000 N 
ATOM     22  C   UNL     1       4.442   5.720  19.425  0.00  0.00    +0.000 C 
ATOM     23  C   UNL     1       4.714   4.278  19.065  0.00  0.00    +0.000 C 
ATOM     24  O   UNL     1       3.607   3.862  18.247  0.00  0.00    +0.000 OA
ATOM     25  C   UNL     1       2.684   4.869  18.182  0.00  0.00    +0.000 C 
ATOM     26  O   UNL     1       1.631   4.718  17.589  0.00  0.00    +0.000 OA
BRANCH  23  27
ATOM     27  C   UNL     1       6.017   4.116  18.281  0.00  0.00    +0.000 C 
BRANCH  27  28
ATOM     28  N   UNL     1       5.745   3.576  16.950  0.00  0.00    +0.000 N 
ATOM     29  C   UNL     1       6.391   4.140  15.900  0.00  0.00    +0.000 A 
ATOM     30  C   UNL     1       5.870   4.118  14.589  0.00  0.00    +0.000 A 
ATOM     31  C   UNL     1       6.762   4.855  13.856  0.00  0.00    +0.000 A 
ATOM     32  O   UNL     1       7.776   5.260  14.658  0.00  0.00    +0.000 OA
ATOM     33  N   UNL     1       7.549   4.807  15.943  0.00  0.00    +0.000 NA
ATOM     34  H   UNL     1       4.763   3.332  16.822  0.00  0.00    +0.000 HD
ENDBRANCH  27  28
ENDBRANCH  23  27
ENDBRANCH   5  21
TORSDOF 6
ENDMDL
MODEL 2
REMARK VINA RESULT:      -8.7      1.836     10.665
REMARK  Name = 
REMARK  6 active torsions:
REMARK  status: ('A' for Active; 'I' for Inactive)
REMARK    1  A    between atoms: C_2  and  C_3
REMARK    2  A    between atoms: C_3  and  O_4
REMARK    3  A    between atoms: N_8  and  C_9
REMARK    4  A    between atoms: C_13  and  N_14
REMARK    5  A    between atoms: C_16  and  C_17
REMARK    6  A    between atoms: C_17  and  N_18
REMARK                            x       y       z     vdW  Elec       q    Type
REMARK                         _______ _______ _______ _____ _____    ______ ____
ROOT
ATOM      1  C   UNL     1       2.541   6.579  19.325  0.00  0.00    +0.000 A 
ATOM      2  C   UNL     1       1.843   6.609  20.544  0.00  0.00    +0.000 A 
ATOM      3  F   UNL     1       1.864   5.553  21.374  0.00  0.00    +0.000 F 
ATOM      4  C   UNL     1       1.116   7.716  20.976  0.00  0.00    +0.000 A 
ATOM      5  C   UNL     1       1.022   8.861  20.191  0.00  0.00    +0.000 A 
ATOM      6  C   UNL     1       1.704   8.866  18.973  0.00  0.00    +0.000 A 
ATOM      7  C   UNL     1       2.445   7.755  18.562  0.00  0.00    +0.000 A 
ATOM      8  F   UNL     1       3.041   7.840  17.360  0.00  0.00    +0.000 F 
ENDROOT
BRANCH   1  14
ATOM      9  O   UNL     1       7.811   4.910  16.435  0.00  0.00    +0.000 OA
ATOM     10  C   UNL     1       6.667   4.503  16.236  0.00  0.00    +0.000 C 
ATOM     11  N   UNL     1       5.594   4.753  17.068  0.00  0.00    +0.000 N 
ATOM     12  C   UNL     1       5.640   5.739  18.138  0.00  0.00    +0.000 C 
ATOM     13  C   UNL     1       4.689   5.338  19.278  0.00  0.00    +0.000 C 
ATOM     14  N   UNL     1       3.273   5.472  18.905  0.00  0.00    +0.000 N 
ATOM     15  C   UNL     1       2.614   4.435  18.094  0.00  0.00    +0.000 C 
ATOM     16  C   UNL     1       3.493   3.808  17.010  0.00  0.00    +0.000 C 
ATOM     17  O   UNL     1       4.343   4.777  16.394  0.00  0.00    +0.000 OA
BRANCH  10  18
ATOM     18  C   UNL     1       6.341   3.572  15.061  0.00  0.00    +0.000 C 
BRANCH  18  19
ATOM     19  O   UNL     1       5.686   4.228  13.985  0.00  0.00    +0.000 OA
ATOM     20  H   UNL     1       6.373   4.363  13.306  0.00  0.00    +0.000 HD
ENDBRANCH  18  19
ENDBRANCH  10  18
ENDBRANCH   1  14
BRANCH   5  21
ATOM     21  N   UNL     1       0.248   9.976  20.592  0.00  0.00    +0.000 N 
ATOM     22  C   UNL     1       0.303  10.512  21.918  0.00  0.00    +0.000 C 
ATOM     23  C   UNL     1      -0.590  11.731  21.860  0.00  0.00    +0.000 C 
ATOM     24  O   UNL     1      -1.154  11.739  20.538  0.00  0.00    +0.000 OA
ATOM     25  C   UNL     1      -0.610  10.724  19.801  0.00  0.00    +0.000 C 
ATOM     26  O   UNL     1      -0.899  10.576  18.628  0.00  0.00    +0.000 OA
BRANCH  23  27
ATOM     27  C   UNL     1      -1.712  11.672  22.896  0.00  0.00    +0.000 C 
BRANCH  27  28
ATOM     28  N   UNL     1      -2.683  12.737  22.653  0.00  0.00    +0.000 N 
ATOM     29  C   UNL     1      -3.882  12.649  23.280  0.00  0.00    +0.000 A 
ATOM     30  C   UNL     1      -5.053  13.248  22.768  0.00  0.00    +0.000 A 
ATOM     31  C   UNL     1      -6.040  12.859  23.634  0.00  0.00    +0.000 A 
ATOM     32  O   UNL     1      -5.500  12.113  24.626  0.00  0.00    +0.000 OA
ATOM     33  N   UNL     1      -4.141  11.984  24.411  0.00  0.00    +0.000 NA
ATOM     34  H   UNL     1      -2.684  13.050  21.682  0.00  0.00    +0.000 HD
ENDBRANCH  27  28
ENDBRANCH  23  27
ENDBRANCH   5  21
TORSDOF 6
ENDMDL
MODEL 3
REMARK VINA RESULT:      -8.6      0.186      1.469
REMARK  Name = 
REMARK  6 active torsions:
REMARK  status: ('A' for Active; 'I' for Inactive)
REMARK    1  A    between atoms: C_2  and  C_3
REMARK    2  A    between atoms: C_3  and  O_4
REMARK    3  A    between atoms: N_8  and  C_9
REMARK    4  A    between atoms: C_13  and  N_14
REMARK    5  A    between atoms: C_16  and  C_17
REMARK    6  A    between atoms: C_17  and  N_18
REMARK                            x       y       z     vdW  Elec       q    Type
REMARK                         _______ _______ _______ _____ _____    ______ ____
ROOT
ATOM      1  C   UNL     1       0.994   9.754  19.358  0.00  0.00    +0.000 A 
ATOM      2  C   UNL     1       0.998   8.756  20.346  0.00  0.00    +0.000 A 
ATOM      3  F   UNL     1       0.331   8.928  21.500  0.00  0.00    +0.000 F 
ATOM      4  C   UNL     1       1.659   7.540  20.194  0.00  0.00    +0.000 A 
ATOM      5  C   UNL     1       2.386   7.260  19.041  0.00  0.00    +0.000 A 
ATOM      6  C   UNL     1       2.403   8.230  18.038  0.00  0.00    +0.000 A 
ATOM      7  C   UNL     1       1.718   9.437  18.197  0.00  0.00    +0.000 A 
ATOM      8  F   UNL     1       1.819  10.323  17.191  0.00  0.00    +0.000 F 
ENDROOT
BRANCH   1  14
ATOM      9  O   UNL     1      -0.638  14.023  23.605  0.00  0.00    +0.000 OA
ATOM     10  C   UNL     1      -1.339  13.494  22.743  0.00  0.00    +0.000 C 
ATOM     11  N   UNL     1      -0.851  12.732  21.699  0.00  0.00    +0.000 N 
ATOM     12  C   UNL     1       0.523  12.254  21.648  0.00  0.00    +0.000 C 
ATOM     13  C   UNL     1       0.981  12.092  20.190  0.00  0.00    +0.000 C 
ATOM     14  N   UNL     1       0.322  10.964  19.514  0.00  0.00    +0.000 N 
ATOM     15  C   UNL     1      -1.046  11.104  18.989  0.00  0.00    +0.000 C 
ATOM     16  C   UNL     1      -1.982  11.957  19.847  0.00  0.00    +0.000 C 
ATOM     17  O   UNL     1      -1.762  11.741  21.242  0.00  0.00    +0.000 OA
BRANCH  10  18
ATOM     18  C   UNL     1      -2.855  13.723  22.691  0.00  0.00    +0.000 C 
BRANCH  18  19
ATOM     19  O   UNL     1      -3.607  12.650  23.240  0.00  0.00    +0.000 OA
ATOM     20  H   UNL     1      -4.216  13.060  23.882  0.00  0.00    +0.000 HD
ENDBRANCH  18  19
ENDBRANCH  10  18
ENDBRANCH   1  14
BRANCH   5  21
ATOM     21  N   UNL     1       3.103   6.049  18.890  0.00  0.00    +0.000 N 
ATOM     22  C   UNL     1       4.394   5.843  19.473  0.00  0.00    +0.000 C 
ATOM     23  C   UNL     1       4.721   4.404  19.144  0.00  0.00    +0.000 C 
ATOM     24  O   UNL     1       3.638   3.934  18.324  0.00  0.00    +0.000 OA
ATOM     25  C   UNL     1       2.681   4.906  18.229  0.00  0.00    +0.000 C 
ATOM     26  O   UNL     1       1.641   4.706  17.628  0.00  0.00    +0.000 OA
BRANCH  23  27
ATOM     27  C   UNL     1       6.037   4.273  18.378  0.00  0.00    +0.000 C 
BRANCH  27  28
ATOM     28  N   UNL     1       5.807   3.649  17.076  0.00  0.00    +0.000 N 
ATOM     29  C   UNL     1       6.441   4.183  16.003  0.00  0.00    +0.000 A 
ATOM     30  C   UNL     1       5.940   4.067  14.689  0.00  0.00    +0.000 A 
ATOM     31  C   UNL     1       6.809   4.801  13.927  0.00  0.00    +0.000 A 
ATOM     32  O   UNL     1       7.794   5.293  14.716  0.00  0.00    +0.000 OA
ATOM     33  N   UNL     1       7.569   4.902  16.022  0.00  0.00    +0.000 NA
ATOM     34  H   UNL     1       4.838   3.356  16.950  0.00  0.00    +0.000 HD
ENDBRANCH  27  28
ENDBRANCH  23  27
ENDBRANCH   5  21
TORSDOF 6
ENDMDL
MODEL 4
REMARK VINA RESULT:      -8.5      1.052      1.216
REMARK  Name = 
REMARK  6 active torsions:
REMARK  status: ('A' for Active; 'I' for Inactive)
REMARK    1  A    between atoms: C_2  and  C_3
REMARK    2  A    between atoms: C_3  and  O_4
REMARK    3  A    between atoms: N_8  and  C_9
REMARK    4  A    between atoms: C_13  and  N_14
REMARK    5  A    between atoms: C_16  and  C_17
REMARK    6  A    between atoms: C_17  and  N_18
REMARK                            x       y       z     vdW  Elec       q    Type
REMARK                         _______ _______ _______ _____ _____    ______ ____
ROOT
ATOM      1  C   UNL     1       1.075   9.768  19.392  0.00  0.00    +0.000 A 
ATOM      2  C   UNL     1       1.689   9.366  18.195  0.00  0.00    +0.000 A 
ATOM      3  F   UNL     1       1.699  10.174  17.122  0.00  0.00    +0.000 F 
ATOM      4  C   UNL     1       2.335   8.141  18.047  0.00  0.00    +0.000 A 
ATOM      5  C   UNL     1       2.380   7.224  19.093  0.00  0.00    +0.000 A 
ATOM      6  C   UNL     1       1.779   7.591  20.298  0.00  0.00    +0.000 A 
ATOM      7  C   UNL     1       1.152   8.832  20.437  0.00  0.00    +0.000 A 
ATOM      8  F   UNL     1       0.573   9.083  21.625  0.00  0.00    +0.000 F 
ENDROOT
BRANCH   1  14
ATOM      9  O   UNL     1       1.422  15.225  22.395  0.00  0.00    +0.000 OA
ATOM     10  C   UNL     1       0.445  14.489  22.255  0.00  0.00    +0.000 C 
ATOM     11  N   UNL     1       0.395  13.416  21.387  0.00  0.00    +0.000 N 
ATOM     12  C   UNL     1       1.578  12.878  20.730  0.00  0.00    +0.000 C 
ATOM     13  C   UNL     1       1.201  12.246  19.380  0.00  0.00    +0.000 C 
ATOM     14  N   UNL     1       0.438  10.998  19.535  0.00  0.00    +0.000 N 
ATOM     15  C   UNL     1      -1.003  11.036  19.833  0.00  0.00    +0.000 C 
ATOM     16  C   UNL     1      -1.438  12.160  20.776  0.00  0.00    +0.000 C 
ATOM     17  O   UNL     1      -0.479  12.379  21.812  0.00  0.00    +0.000 OA
BRANCH  10  18
ATOM     18  C   UNL     1      -0.878  14.767  22.980  0.00  0.00    +0.000 C 
BRANCH  18  19
ATOM     19  O   UNL     1      -0.999  14.077  24.216  0.00  0.00    +0.000 OA
ATOM     20  H   UNL     1      -0.323  13.375  24.189  0.00  0.00    +0.000 HD
ENDBRANCH  18  19
ENDBRANCH  10  18
ENDBRANCH   1  14
BRANCH   5  21
ATOM     21  N   UNL     1       2.990   5.956  18.945  0.00  0.00    +0.000 N 
ATOM     22  C   UNL     1       4.246   5.632  19.549  0.00  0.00    +0.000 C 
ATOM     23  C   UNL     1       4.451   4.172  19.215  0.00  0.00    +0.000 C 
ATOM     24  O   UNL     1       3.346   3.805  18.370  0.00  0.00    +0.000 OA
ATOM     25  C   UNL     1       2.481   4.859  18.266  0.00  0.00    +0.000 C 
ATOM     26  O   UNL     1       1.439   4.756  17.645  0.00  0.00    +0.000 OA
BRANCH  23  27
ATOM     27  C   UNL     1       5.765   3.930  18.472  0.00  0.00    +0.000 C 
BRANCH  27  28
ATOM     28  N   UNL     1       5.500   3.515  17.095  0.00  0.00    +0.000 N 
ATOM     29  C   UNL     1       6.222   4.105  16.111  0.00  0.00    +0.000 A 
ATOM     30  C   UNL     1       5.748   4.223  14.787  0.00  0.00    +0.000 A 
ATOM     31  C   UNL     1       6.718   4.942  14.141  0.00  0.00    +0.000 A 
ATOM     32  O   UNL     1       7.730   5.205  15.001  0.00  0.00    +0.000 OA
ATOM     33  N   UNL     1       7.425   4.676  16.240  0.00  0.00    +0.000 NA
ATOM     34  H   UNL     1       4.508   3.358  16.919  0.00  0.00    +0.000 HD
ENDBRANCH  27  28
ENDBRANCH  23  27
ENDBRANCH   5  21
TORSDOF 6
ENDMDL
MODEL 5
REMARK VINA RESULT:      -8.3      2.090      9.394
REMARK  Name = 
REMARK  6 active torsions:
REMARK  status: ('A' for Active; 'I' for Inactive)
REMARK    1  A    between atoms: C_2  and  C_3
REMARK    2  A    between atoms: C_3  and  O_4
REMARK    3  A    between atoms: N_8  and  C_9
REMARK    4  A    between atoms: C_13  and  N_14
REMARK    5  A    between atoms: C_16  and  C_17
REMARK    6  A    between atoms: C_17  and  N_18
REMARK                            x       y       z     vdW  Elec       q    Type
REMARK                         _______ _______ _______ _____ _____    ______ ____
ROOT
ATOM      1  C   UNL     1       2.560   6.418  19.410  0.00  0.00    +0.000 A 
ATOM      2  C   UNL     1       2.472   7.629  18.705  0.00  0.00    +0.000 A 
ATOM      3  F   UNL     1       3.091   7.784  17.523  0.00  0.00    +0.000 F 
ATOM      4  C   UNL     1       1.737   8.722  19.161  0.00  0.00    +0.000 A 
ATOM      5  C   UNL     1       1.062   8.672  20.377  0.00  0.00    +0.000 A 
ATOM      6  C   UNL     1       1.127   7.482  21.104  0.00  0.00    +0.000 A 
ATOM      7  C   UNL     1       1.852   6.389  20.624  0.00  0.00    +0.000 A 
ATOM      8  F   UNL     1       1.884   5.297  21.408  0.00  0.00    +0.000 F 
ENDROOT
BRANCH   1  14
ATOM      9  O   UNL     1       7.859   4.854  16.513  0.00  0.00    +0.000 OA
ATOM     10  C   UNL     1       6.715   4.469  16.276  0.00  0.00    +0.000 C 
ATOM     11  N   UNL     1       5.631   4.684  17.105  0.00  0.00    +0.000 N 
ATOM     12  C   UNL     1       5.669   5.613  18.226  0.00  0.00    +0.000 C 
ATOM     13  C   UNL     1       4.698   5.162  19.329  0.00  0.00    +0.000 C 
ATOM     14  N   UNL     1       3.289   5.327  18.943  0.00  0.00    +0.000 N 
ATOM     15  C   UNL     1       2.633   4.340  18.069  0.00  0.00    +0.000 C 
ATOM     16  C   UNL     1       3.524   3.762  16.967  0.00  0.00    +0.000 C 
ATOM     17  O   UNL     1       4.390   4.755  16.414  0.00  0.00    +0.000 OA
BRANCH  10  18
ATOM     18  C   UNL     1       6.399   3.603  15.050  0.00  0.00    +0.000 C 
BRANCH  18  19
ATOM     19  O   UNL     1       5.850   4.339  13.966  0.00  0.00    +0.000 OA
ATOM     20  H   UNL     1       6.611   4.598  13.415  0.00  0.00    +0.000 HD
ENDBRANCH  18  19
ENDBRANCH  10  18
ENDBRANCH   1  14
BRANCH   5  21
ATOM     21  N   UNL     1       0.350   9.788  20.878  0.00  0.00    +0.000 N 
ATOM     22  C   UNL     1      -0.461  10.621  20.042  0.00  0.00    +0.000 C 
ATOM     23  C   UNL     1      -1.095  11.600  21.003  0.00  0.00    +0.000 C 
ATOM     24  O   UNL     1      -0.526  11.310  22.291  0.00  0.00    +0.000 OA
ATOM     25  C   UNL     1       0.284  10.213  22.197  0.00  0.00    +0.000 C 
ATOM     26  O   UNL     1       0.828   9.747  23.181  0.00  0.00    +0.000 OA
BRANCH  23  27
ATOM     27  C   UNL     1      -0.796  13.051  20.627  0.00  0.00    +0.000 C 
BRANCH  27  28
ATOM     28  N   UNL     1       0.343  13.114  19.712  0.00  0.00    +0.000 N 
ATOM     29  C   UNL     1       1.538  13.496  20.223  0.00  0.00    +0.000 A 
ATOM     30  C   UNL     1       2.541  14.103  19.437  0.00  0.00    +0.000 A 
ATOM     31  C   UNL     1       3.535  14.408  20.328  0.00  0.00    +0.000 A 
ATOM     32  O   UNL     1       3.179  13.977  21.562  0.00  0.00    +0.000 OA
ATOM     33  N   UNL     1       1.926  13.398  21.499  0.00  0.00    +0.000 NA
ATOM     34  H   UNL     1       0.086  13.479  18.795  0.00  0.00    +0.000 HD
ENDBRANCH  27  28
ENDBRANCH  23  27
ENDBRANCH   5  21
TORSDOF 6
ENDMDL
MODEL 6
REMARK VINA RESULT:      -8.3      1.818     10.540
REMARK  Name = 
REMARK  6 active torsions:
REMARK  status: ('A' for Active; 'I' for Inactive)
REMARK    1  A    between atoms: C_2  and  C_3
REMARK    2  A    between atoms: C_3  and  O_4
REMARK    3  A    between atoms: N_8  and  C_9
REMARK    4  A    between atoms: C_13  and  N_14
REMARK    5  A    between atoms: C_16  and  C_17
REMARK    6  A    between atoms: C_17  and  N_18
REMARK                            x       y       z     vdW  Elec       q    Type
REMARK                         _______ _______ _______ _____ _____    ______ ____
ROOT
ATOM      1  C   UNL     1       2.923   6.653  18.933  0.00  0.00    +0.000 A 
ATOM      2  C   UNL     1       2.690   7.821  18.189  0.00  0.00    +0.000 A 
ATOM      3  F   UNL     1       3.263   7.996  16.986  0.00  0.00    +0.000 F 
ATOM      4  C   UNL     1       1.853   8.845  18.625  0.00  0.00    +0.000 A 
ATOM      5  C   UNL     1       1.214   8.770  19.859  0.00  0.00    +0.000 A 
ATOM      6  C   UNL     1       1.423   7.622  20.625  0.00  0.00    +0.000 A 
ATOM      7  C   UNL     1       2.251   6.595  20.165  0.00  0.00    +0.000 A 
ATOM      8  F   UNL     1       2.417   5.543  20.986  0.00  0.00    +0.000 F 
ENDROOT
BRANCH   1  14
ATOM      9  O   UNL     1       7.733   5.453  15.146  0.00  0.00    +0.000 OA
ATOM     10  C   UNL     1       6.671   4.841  15.252  0.00  0.00    +0.000 C 
ATOM     11  N   UNL     1       5.758   5.033  16.269  0.00  0.00    +0.000 N 
ATOM     12  C   UNL     1       5.826   6.162  17.187  0.00  0.00    +0.000 C 
ATOM     13  C   UNL     1       5.216   5.786  18.546  0.00  0.00    +0.000 C 
ATOM     14  N   UNL     1       3.755   5.630  18.485  0.00  0.00    +0.000 N 
ATOM     15  C   UNL     1       3.157   4.391  17.961  0.00  0.00    +0.000 C 
ATOM     16  C   UNL     1       3.907   3.761  16.785  0.00  0.00    +0.000 C 
ATOM     17  O   UNL     1       4.416   4.753  15.891  0.00  0.00    +0.000 OA
BRANCH  10  18
ATOM     18  C   UNL     1       6.302   3.704  14.290  0.00  0.00    +0.000 C 
BRANCH  18  19
ATOM     19  O   UNL     1       5.305   4.066  13.345  0.00  0.00    +0.000 OA
ATOM     20  H   UNL     1       4.625   3.369  13.404  0.00  0.00    +0.000 HD
ENDBRANCH  18  19
ENDBRANCH  10  18
ENDBRANCH   1  14
BRANCH   5  21
ATOM     21  N   UNL     1       0.398   9.822  20.339  0.00  0.00    +0.000 N 
ATOM     22  C   UNL     1       0.666  10.501  21.571  0.00  0.00    +0.000 C 
ATOM     23  C   UNL     1      -0.380  11.592  21.625  0.00  0.00    +0.000 C 
ATOM     24  O   UNL     1      -1.215  11.391  20.472  0.00  0.00    +0.000 OA
ATOM     25  C   UNL     1      -0.708  10.374  19.711  0.00  0.00    +0.000 C 
ATOM     26  O   UNL     1      -1.222  10.067  18.651  0.00  0.00    +0.000 OA
BRANCH  23  27
ATOM     27  C   UNL     1      -1.231  11.512  22.892  0.00  0.00    +0.000 C 
BRANCH  27  28
ATOM     28  N   UNL     1      -1.808  12.819  23.200  0.00  0.00    +0.000 N 
ATOM     29  C   UNL     1      -3.120  12.863  23.536  0.00  0.00    +0.000 A 
ATOM     30  C   UNL     1      -3.918  14.010  23.337  0.00  0.00    +0.000 A 
ATOM     31  C   UNL     1      -5.175  13.621  23.717  0.00  0.00    +0.000 A 
ATOM     32  O   UNL     1      -5.135  12.341  24.158  0.00  0.00    +0.000 OA
ATOM     33  N   UNL     1      -3.843  11.862  24.051  0.00  0.00    +0.000 NA
ATOM     34  H   UNL     1      -1.456  13.554  22.587  0.00  0.00    +0.000 HD
ENDBRANCH  27  28
ENDBRANCH  23  27
ENDBRANCH   5  21
TORSDOF 6
ENDMDL
MODEL 7
REMARK VINA RESULT:      -8.3      2.043      9.659
REMARK  Name = 
REMARK  6 active torsions:
REMARK  status: ('A' for Active; 'I' for Inactive)
REMARK    1  A    between atoms: C_2  and  C_3
REMARK    2  A    between atoms: C_3  and  O_4
REMARK    3  A    between atoms: N_8  and  C_9
REMARK    4  A    between atoms: C_13  and  N_14
REMARK    5  A    between atoms: C_16  and  C_17
REMARK    6  A    between atoms: C_17  and  N_18
REMARK                            x       y       z     vdW  Elec       q    Type
REMARK                         _______ _______ _______ _____ _____    ______ ____
ROOT
ATOM      1  C   UNL     1       2.483   6.685  19.357  0.00  0.00    +0.000 A 
ATOM      2  C   UNL     1       1.829   6.755  20.598  0.00  0.00    +0.000 A 
ATOM      3  F   UNL     1       1.851   5.714  21.446  0.00  0.00    +0.000 F 
ATOM      4  C   UNL     1       1.147   7.888  21.034  0.00  0.00    +0.000 A 
ATOM      5  C   UNL     1       1.056   9.022  20.231  0.00  0.00    +0.000 A 
ATOM      6  C   UNL     1       1.694   8.987  18.991  0.00  0.00    +0.000 A 
ATOM      7  C   UNL     1       2.391   7.849  18.576  0.00  0.00    +0.000 A 
ATOM      8  F   UNL     1       2.947   7.897  17.352  0.00  0.00    +0.000 F 
ENDROOT
BRANCH   1  14
ATOM      9  O   UNL     1       7.807   4.799  16.709  0.00  0.00    +0.000 OA
ATOM     10  C   UNL     1       6.654   4.475  16.425  0.00  0.00    +0.000 C 
ATOM     11  N   UNL     1       5.550   4.759  17.203  0.00  0.00    +0.000 N 
ATOM     12  C   UNL     1       5.590   5.697  18.316  0.00  0.00    +0.000 C 
ATOM     13  C   UNL     1       4.550   5.312  19.381  0.00  0.00    +0.000 C 
ATOM     14  N   UNL     1       3.170   5.550  18.932  0.00  0.00    +0.000 N 
ATOM     15  C   UNL     1       2.499   4.591  18.039  0.00  0.00    +0.000 C 
ATOM     16  C   UNL     1       3.403   3.953  16.982  0.00  0.00    +0.000 C 
ATOM     17  O   UNL     1       4.346   4.890  16.459  0.00  0.00    +0.000 OA
BRANCH  10  18
ATOM     18  C   UNL     1       6.344   3.613  15.194  0.00  0.00    +0.000 C 
BRANCH  18  19
ATOM     19  O   UNL     1       5.867   4.364  14.086  0.00  0.00    +0.000 OA
ATOM     20  H   UNL     1       4.898   4.260  14.100  0.00  0.00    +0.000 HD
ENDBRANCH  18  19
ENDBRANCH  10  18
ENDBRANCH   1  14
BRANCH   5  21
ATOM     21  N   UNL     1       0.327  10.164  20.638  0.00  0.00    +0.000 N 
ATOM     22  C   UNL     1      -0.312  11.041  19.704  0.00  0.00    +0.000 C 
ATOM     23  C   UNL     1      -1.040  12.040  20.575  0.00  0.00    +0.000 C 
ATOM     24  O   UNL     1      -0.685  11.711  21.929  0.00  0.00    +0.000 OA
ATOM     25  C   UNL     1       0.081  10.578  21.939  0.00  0.00    +0.000 C 
ATOM     26  O   UNL     1       0.450  10.079  22.986  0.00  0.00    +0.000 OA
BRANCH  23  27
ATOM     27  C   UNL     1      -0.624  13.479  20.272  0.00  0.00    +0.000 C 
BRANCH  27  28
ATOM     28  N   UNL     1       0.760  13.519  19.803  0.00  0.00    +0.000 N 
ATOM     29  C   UNL     1       1.691  14.040  20.639  0.00  0.00    +0.000 A 
ATOM     30  C   UNL     1       2.889  14.624  20.173  0.00  0.00    +0.000 A 
ATOM     31  C   UNL     1       3.500  15.097  21.304  0.00  0.00    +0.000 A 
ATOM     32  O   UNL     1       2.747  14.783  22.386  0.00  0.00    +0.000 OA
ATOM     33  N   UNL     1       1.612  14.113  21.973  0.00  0.00    +0.000 NA
ATOM     34  H   UNL     1       0.830  13.760  18.815  0.00  0.00    +0.000 HD
ENDBRANCH  27  28
ENDBRANCH  23  27
ENDBRANCH   5  21
TORSDOF 6
ENDMDL
MODEL 8
REMARK VINA RESULT:      -8.1      2.125      9.618
REMARK  Name = 
REMARK  6 active torsions:
REMARK  status: ('A' for Active; 'I' for Inactive)
REMARK    1  A    between atoms: C_2  and  C_3
REMARK    2  A    between atoms: C_3  and  O_4
REMARK    3  A    between atoms: N_8  and  C_9
REMARK    4  A    between atoms: C_13  and  N_14
REMARK    5  A    between atoms: C_16  and  C_17
REMARK    6  A    between atoms: C_17  and  N_18
REMARK                            x       y       z     vdW  Elec       q    Type
REMARK                         _______ _______ _______ _____ _____    ______ ____
ROOT
ATOM      1  C   UNL     1       2.478   6.970  19.158  0.00  0.00    +0.000 A 
ATOM      2  C   UNL     1       1.826   7.153  20.389  0.00  0.00    +0.000 A 
ATOM      3  F   UNL     1       1.818   6.180  21.315  0.00  0.00    +0.000 F 
ATOM      4  C   UNL     1       1.176   8.336  20.736  0.00  0.00    +0.000 A 
ATOM      5  C   UNL     1       1.117   9.406  19.848  0.00  0.00    +0.000 A 
ATOM      6  C   UNL     1       1.755   9.259  18.616  0.00  0.00    +0.000 A 
ATOM      7  C   UNL     1       2.420   8.073  18.291  0.00  0.00    +0.000 A 
ATOM      8  F   UNL     1       2.977   8.012  17.068  0.00  0.00    +0.000 F 
ENDROOT
BRANCH   1  14
ATOM      9  O   UNL     1       7.785   4.735  16.759  0.00  0.00    +0.000 OA
ATOM     10  C   UNL     1       6.627   4.432  16.471  0.00  0.00    +0.000 C 
ATOM     11  N   UNL     1       5.518   4.804  17.204  0.00  0.00    +0.000 N 
ATOM     12  C   UNL     1       5.569   5.810  18.255  0.00  0.00    +0.000 C 
ATOM     13  C   UNL     1       4.494   5.532  19.318  0.00  0.00    +0.000 C 
ATOM     14  N   UNL     1       3.133   5.788  18.823  0.00  0.00    +0.000 N 
ATOM     15  C   UNL     1       2.446   4.796  17.979  0.00  0.00    +0.000 C 
ATOM     16  C   UNL     1       3.348   4.059  16.986  0.00  0.00    +0.000 C 
ATOM     17  O   UNL     1       4.335   4.927  16.426  0.00  0.00    +0.000 OA
BRANCH  10  18
ATOM     18  C   UNL     1       6.312   3.504  15.291  0.00  0.00    +0.000 C 
BRANCH  18  19
ATOM     19  O   UNL     1       5.975   4.200  14.100  0.00  0.00    +0.000 OA
ATOM     20  H   UNL     1       6.632   3.915  13.437  0.00  0.00    +0.000 HD
ENDBRANCH  18  19
ENDBRANCH  10  18
ENDBRANCH   1  14
BRANCH   5  21
ATOM     21  N   UNL     1       0.421  10.597  20.165  0.00  0.00    +0.000 N 
ATOM     22  C   UNL     1      -0.951  10.599  20.573  0.00  0.00    +0.000 C 
ATOM     23  C   UNL     1      -1.236  12.048  20.899  0.00  0.00    +0.000 C 
ATOM     24  O   UNL     1      -0.037  12.768  20.563  0.00  0.00    +0.000 OA
ATOM     25  C   UNL     1       0.933  11.886  20.178  0.00  0.00    +0.000 C 
ATOM     26  O   UNL     1       2.056  12.268  19.903  0.00  0.00    +0.000 OA
BRANCH  23  27
ATOM     27  C   UNL     1      -2.409  12.600  20.089  0.00  0.00    +0.000 C 
BRANCH  27  28
ATOM     28  N   UNL     1      -2.107  12.548  18.660  0.00  0.00    +0.000 N 
ATOM     29  C   UNL     1      -2.764  11.626  17.913  0.00  0.00    +0.000 A 
ATOM     30  C   UNL     1      -2.233  11.100  16.716  0.00  0.00    +0.000 A 
ATOM     31  C   UNL     1      -3.145  10.156  16.325  0.00  0.00    +0.000 A 
ATOM     32  O   UNL     1      -4.179  10.141  17.199  0.00  0.00    +0.000 OA
ATOM     33  N   UNL     1      -3.946  11.068  18.197  0.00  0.00    +0.000 NA
ATOM     34  H   UNL     1      -1.117  12.690  18.465  0.00  0.00    +0.000 HD
ENDBRANCH  27  28
ENDBRANCH  23  27
ENDBRANCH   5  21
TORSDOF 6
ENDMDL
MODEL 9
REMARK VINA RESULT:      -8.1      2.202     10.114
REMARK  Name = 
REMARK  6 active torsions:
REMARK  status: ('A' for Active; 'I' for Inactive)
REMARK    1  A    between atoms: C_2  and  C_3
REMARK    2  A    between atoms: C_3  and  O_4
REMARK    3  A    between atoms: N_8  and  C_9
REMARK    4  A    between atoms: C_13  and  N_14
REMARK    5  A    between atoms: C_16  and  C_17
REMARK    6  A    between atoms: C_17  and  N_18
REMARK                            x       y       z     vdW  Elec       q    Type
REMARK                         _______ _______ _______ _____ _____    ______ ____
ROOT
ATOM      1  C   UNL     1       2.476   6.883  19.208  0.00  0.00    +0.000 A 
ATOM      2  C   UNL     1       1.796   7.023  20.428  0.00  0.00    +0.000 A 
ATOM      3  F   UNL     1       1.804   6.035  21.338  0.00  0.00    +0.000 F 
ATOM      4  C   UNL     1       1.099   8.177  20.781  0.00  0.00    +0.000 A 
ATOM      5  C   UNL     1       1.021   9.260  19.911  0.00  0.00    +0.000 A 
ATOM      6  C   UNL     1       1.687   9.155  18.689  0.00  0.00    +0.000 A 
ATOM      7  C   UNL     1       2.397   7.998  18.357  0.00  0.00    +0.000 A 
ATOM      8  F   UNL     1       2.979   7.977  17.145  0.00  0.00    +0.000 F 
ENDROOT
BRANCH   1  14
ATOM      9  O   UNL     1       7.790   4.876  16.629  0.00  0.00    +0.000 OA
ATOM     10  C   UNL     1       6.639   4.509  16.394  0.00  0.00    +0.000 C 
ATOM     11  N   UNL     1       5.543   4.838  17.166  0.00  0.00    +0.000 N 
ATOM     12  C   UNL     1       5.584   5.866  18.197  0.00  0.00    +0.000 C 
ATOM     13  C   UNL     1       4.569   5.554  19.308  0.00  0.00    +0.000 C 
ATOM     14  N   UNL     1       3.178   5.729  18.866  0.00  0.00    +0.000 N 
ATOM     15  C   UNL     1       2.509   4.688  18.068  0.00  0.00    +0.000 C 
ATOM     16  C   UNL     1       3.407   3.979  17.052  0.00  0.00    +0.000 C 
ATOM     17  O   UNL     1       4.324   4.886  16.436  0.00  0.00    +0.000 OA
BRANCH  10  18
ATOM     18  C   UNL     1       6.324   3.543  15.245  0.00  0.00    +0.000 C 
BRANCH  18  19
ATOM     19  O   UNL     1       5.723   4.176  14.124  0.00  0.00    +0.000 OA
ATOM     20  H   UNL     1       5.512   3.456  13.501  0.00  0.00    +0.000 HD
ENDBRANCH  18  19
ENDBRANCH  10  18
ENDBRANCH   1  14
BRANCH   5  21
ATOM     21  N   UNL     1       0.278  10.421  20.233  0.00  0.00    +0.000 N 
ATOM     22  C   UNL     1      -1.115  10.550  19.932  0.00  0.00    +0.000 C 
ATOM     23  C   UNL     1      -1.501  11.881  20.538  0.00  0.00    +0.000 C 
ATOM     24  O   UNL     1      -0.282  12.445  21.051  0.00  0.00    +0.000 OA
ATOM     25  C   UNL     1       0.737  11.547  20.900  0.00  0.00    +0.000 C 
ATOM     26  O   UNL     1       1.854  11.789  21.319  0.00  0.00    +0.000 OA
BRANCH  23  27
ATOM     27  C   UNL     1      -2.108  12.829  19.504  0.00  0.00    +0.000 C 
BRANCH  27  28
ATOM     28  N   UNL     1      -2.794  12.069  18.460  0.00  0.00    +0.000 N 
ATOM     29  C   UNL     1      -4.124  11.856  18.610  0.00  0.00    +0.000 A 
ATOM     30  C   UNL     1      -4.787  10.754  18.028  0.00  0.00    +0.000 A 
ATOM     31  C   UNL     1      -6.075  10.853  18.482  0.00  0.00    +0.000 A 
ATOM     32  O   UNL     1      -6.197  11.961  19.250  0.00  0.00    +0.000 OA
ATOM     33  N   UNL     1      -4.973  12.598  19.329  0.00  0.00    +0.000 NA
ATOM     34  H   UNL     1      -2.231  11.295  18.107  0.00  0.00    +0.000 HD
ENDBRANCH  27  28
ENDBRANCH  23  27
ENDBRANCH   5  21
TORSDOF 6
ENDMDL
