MODEL 1
REMARK VINA RESULT:      -7.5      0.000      0.000
REMARK  Name = 
REMARK  8 active torsions:
REMARK  status: ('A' for Active; 'I' for Inactive)
REMARK    1  A    between atoms: C_1  and  C_2
REMARK    2  A    between atoms: C_2  and  C_3
REMARK    3  A    between atoms: C_22  and  C_23
REMARK    4  A    between atoms: C_23  and  O_25
REMARK    5  A    between atoms: C_27  and  C_28
REMARK    6  A    between atoms: C_27  and  C_29
REMARK    7  A    between atoms: C_31  and  C_32
REMARK    8  A    between atoms: C_32  and  O_34
REMARK                            x       y       z     vdW  Elec       q    Type
REMARK                         _______ _______ _______ _____ _____    ______ ____
ROOT
ATOM      1  C   UNL     1      -4.857  17.656  24.366  0.00  0.00    +0.000 C 
ATOM      2  C   UNL     1      -4.985  17.121  22.886  0.00  0.00    +0.000 C 
ATOM      3  C   UNL     1      -6.624  16.572  23.504  0.00  0.00    +0.000 C 
ATOM      4  C   UNL     1      -5.479  16.273  21.690  0.00  0.00    +0.000 C 
ATOM      5  C   UNL     1      -4.589  15.100  21.971  0.00  0.00    +0.000 C 
ATOM      6  C   UNL     1      -4.492  13.860  21.208  0.00  0.00    +0.000 C 
ATOM      7  C   UNL     1      -3.608  13.007  21.767  0.00  0.00    +0.000 A 
ATOM      8  N   UNL     1      -2.419  12.610  21.114  0.00  0.00    +0.000 N 
ATOM      9  C   UNL     1      -1.617  11.892  21.994  0.00  0.00    +0.000 A 
ATOM     10  C   UNL     1      -0.388  11.372  21.904  0.00  0.00    +0.000 C 
ATOM     11  C   UNL     1       0.543  11.720  20.838  0.00  0.00    +0.000 C 
ATOM     12  N   UNL     1       1.540  12.507  21.097  0.00  0.00    +0.000 NA
ATOM     13  C   UNL     1       1.858  13.014  19.866  0.00  0.00    +0.000 C 
ATOM     14  C   UNL     1       1.654  14.333  19.882  0.00  0.00    +0.000 C 
ATOM     15  C   UNL     1       0.691  15.105  19.164  0.00  0.00    +0.000 A 
ATOM     16  N   UNL     1      -0.682  15.168  19.574  0.00  0.00    +0.000 N 
ATOM     17  C   UNL     1      -0.974  16.393  20.330  0.00  0.00    +0.000 A 
ATOM     18  C   UNL     1      -1.989  16.298  21.640  0.00  0.00    +0.000 C 
ATOM     19  C   UNL     1      -3.309  16.683  22.167  0.00  0.00    +0.000 C 
ATOM     20  N   UNL     1      -3.584  15.425  22.719  0.00  0.00    +0.000 NA
ATOM     21  C   UNL     1       0.140  17.163  19.792  0.00  0.00    +0.000 A 
ATOM     22  C   UNL     1       1.034  16.386  18.798  0.00  0.00    +0.000 A 
ATOM     23  C   UNL     1       1.672  11.973  18.810  0.00  0.00    +0.000 C 
ATOM     24  C   UNL     1       0.559  11.125  19.439  0.00  0.00    +0.000 C 
ATOM     25  C   UNL     1      -0.703  11.255  18.607  0.00  0.00    +0.000 C 
ATOM     26  C   UNL     1       1.008   9.675  19.634  0.00  0.00    +0.000 C 
ATOM     27  C   UNL     1      -2.325  11.846  23.250  0.00  0.00    +0.000 A 
ATOM     28  C   UNL     1      -3.467  12.546  23.156  0.00  0.00    +0.000 A 
ATOM     29  H   UNL     1      -1.924  13.417  20.734  0.00  0.00    +0.000 HD
ATOM     30  H   UNL     1      -1.341  14.941  18.844  0.00  0.00    +0.000 HD
ENDROOT
BRANCH  22  31
ATOM     31  C   UNL     1       2.395  16.636  18.165  0.00  0.00    +0.000 C 
ATOM     32  O   UNL     1       2.747  16.195  17.086  0.00  0.00    +0.000 OA
BRANCH  31  33
ATOM     33  O   UNL     1       3.254  17.477  18.852  0.00  0.00    +0.000 OA
ATOM     34  H   UNL     1       2.864  18.126  19.464  0.00  0.00    +0.000 HD
ENDBRANCH  31  33
ENDBRANCH  22  31
BRANCH  28  35
ATOM     35  C   UNL     1      -4.285  12.654  24.376  0.00  0.00    +0.000 C 
ATOM     36  O   UNL     1      -5.192  11.873  24.635  0.00  0.00    +0.000 OA
BRANCH  35  37
ATOM     37  O   UNL     1      -3.934  13.622  25.241  0.00  0.00    +0.000 OA
ATOM     38  H   UNL     1      -3.618  14.397  24.725  0.00  0.00    +0.000 HD
ENDBRANCH  35  37
ENDBRANCH  28  35
TORSDOF 4
ENDMDL
MODEL 2
REMARK VINA RESULT:      -6.7      0.678      1.027
REMARK  Name = 
REMARK  8 active torsions:
REMARK  status: ('A' for Active; 'I' for Inactive)
REMARK    1  A    between atoms: C_1  and  C_2
REMARK    2  A    between atoms: C_2  and  C_3
REMARK    3  A    between atoms: C_22  and  C_23
REMARK    4  A    between atoms: C_23  and  O_25
REMARK    5  A    between atoms: C_27  and  C_28
REMARK    6  A    between atoms: C_27  and  C_29
REMARK    7  A    between atoms: C_31  and  C_32
REMARK    8  A    between atoms: C_32  and  O_34
REMARK                            x       y       z     vdW  Elec       q    Type
REMARK                         _______ _______ _______ _____ _____    ______ ____
ROOT
ATOM      1  C   UNL     1      -3.707  17.829  24.807  0.00  0.00    +0.000 C 
ATOM      2  C   UNL     1      -3.968  17.438  23.300  0.00  0.00    +0.000 C 
ATOM      3  C   UNL     1      -5.641  17.068  23.960  0.00  0.00    +0.000 C 
ATOM      4  C   UNL     1      -4.624  16.764  22.072  0.00  0.00    +0.000 C 
ATOM      5  C   UNL     1      -3.895  15.462  22.219  0.00  0.00    +0.000 C 
ATOM      6  C   UNL     1      -4.003  14.286  21.362  0.00  0.00    +0.000 C 
ATOM      7  C   UNL     1      -3.225  13.278  21.810  0.00  0.00    +0.000 A 
ATOM      8  N   UNL     1      -2.131  12.778  21.068  0.00  0.00    +0.000 N 
ATOM      9  C   UNL     1      -1.401  11.889  21.849  0.00  0.00    +0.000 A 
ATOM     10  C   UNL     1      -0.261  11.216  21.658  0.00  0.00    +0.000 C 
ATOM     11  C   UNL     1       0.664  11.519  20.574  0.00  0.00    +0.000 C 
ATOM     12  N   UNL     1       1.772  12.140  20.839  0.00  0.00    +0.000 NA
ATOM     13  C   UNL     1       2.106  12.697  19.635  0.00  0.00    +0.000 C 
ATOM     14  C   UNL     1       2.089  14.026  19.759  0.00  0.00    +0.000 C 
ATOM     15  C   UNL     1       1.214  14.976  19.150  0.00  0.00    +0.000 A 
ATOM     16  N   UNL     1      -0.119  15.192  19.635  0.00  0.00    +0.000 N 
ATOM     17  C   UNL     1      -0.206  16.381  20.494  0.00  0.00    +0.000 A 
ATOM     18  C   UNL     1      -1.169  16.319  21.843  0.00  0.00    +0.000 C 
ATOM     19  C   UNL     1      -2.401  16.836  22.465  0.00  0.00    +0.000 C 
ATOM     20  N   UNL     1      -2.825  15.586  22.936  0.00  0.00    +0.000 NA
ATOM     21  C   UNL     1       0.982  17.033  19.957  0.00  0.00    +0.000 A 
ATOM     22  C   UNL     1       1.717  16.225  18.864  0.00  0.00    +0.000 A 
ATOM     23  C   UNL     1       1.734  11.779  18.515  0.00  0.00    +0.000 C 
ATOM     24  C   UNL     1       0.541  11.041  19.136  0.00  0.00    +0.000 C 
ATOM     25  C   UNL     1      -0.724  11.408  18.382  0.00  0.00    +0.000 C 
ATOM     26  C   UNL     1       0.790   9.533  19.199  0.00  0.00    +0.000 C 
ATOM     27  C   UNL     1      -2.057  11.838  23.134  0.00  0.00    +0.000 A 
ATOM     28  C   UNL     1      -3.093  12.692  23.151  0.00  0.00    +0.000 A 
ATOM     29  H   UNL     1      -1.544  13.537  20.723  0.00  0.00    +0.000 HD
ATOM     30  H   UNL     1      -0.832  15.116  18.925  0.00  0.00    +0.000 HD
ENDROOT
BRANCH  22  31
ATOM     31  C   UNL     1       3.073  16.338  18.182  0.00  0.00    +0.000 C 
ATOM     32  O   UNL     1       3.964  17.088  18.536  0.00  0.00    +0.000 OA
BRANCH  31  33
ATOM     33  O   UNL     1       3.311  15.474  17.126  0.00  0.00    +0.000 OA
ATOM     34  H   UNL     1       3.882  15.786  16.403  0.00  0.00    +0.000 HD
ENDBRANCH  31  33
ENDBRANCH  22  31
BRANCH  28  35
ATOM     35  C   UNL     1      -3.838  12.812  24.417  0.00  0.00    +0.000 C 
ATOM     36  O   UNL     1      -3.543  13.627  25.281  0.00  0.00    +0.000 OA
BRANCH  35  37
ATOM     37  O   UNL     1      -4.918  12.022  24.545  0.00  0.00    +0.000 OA
ATOM     38  H   UNL     1      -5.520  12.197  23.788  0.00  0.00    +0.000 HD
ENDBRANCH  35  37
ENDBRANCH  28  35
TORSDOF 4
ENDMDL
MODEL 3
REMARK VINA RESULT:      -6.6      0.876      1.069
REMARK  Name = 
REMARK  8 active torsions:
REMARK  status: ('A' for Active; 'I' for Inactive)
REMARK    1  A    between atoms: C_1  and  C_2
REMARK    2  A    between atoms: C_2  and  C_3
REMARK    3  A    between atoms: C_22  and  C_23
REMARK    4  A    between atoms: C_23  and  O_25
REMARK    5  A    between atoms: C_27  and  C_28
REMARK    6  A    between atoms: C_27  and  C_29
REMARK    7  A    between atoms: C_31  and  C_32
REMARK    8  A    between atoms: C_32  and  O_34
REMARK                            x       y       z     vdW  Elec       q    Type
REMARK                         _______ _______ _______ _____ _____    ______ ____
ROOT
ATOM      1  C   UNL     1      -5.508  18.048  22.748  0.00  0.00    +0.000 C 
ATOM      2  C   UNL     1      -5.403  17.283  21.371  0.00  0.00    +0.000 C 
ATOM      3  C   UNL     1      -7.123  16.808  21.804  0.00  0.00    +0.000 C 
ATOM      4  C   UNL     1      -5.708  16.247  20.263  0.00  0.00    +0.000 C 
ATOM      5  C   UNL     1      -4.881  15.151  20.864  0.00  0.00    +0.000 C 
ATOM      6  C   UNL     1      -4.672  13.808  20.334  0.00  0.00    +0.000 C 
ATOM      7  C   UNL     1      -3.893  13.071  21.153  0.00  0.00    +0.000 A 
ATOM      8  N   UNL     1      -2.619  12.598  20.766  0.00  0.00    +0.000 N 
ATOM      9  C   UNL     1      -1.970  12.044  21.864  0.00  0.00    +0.000 A 
ATOM     10  C   UNL     1      -0.745  11.540  22.052  0.00  0.00    +0.000 C 
ATOM     11  C   UNL     1       0.344  11.732  21.104  0.00  0.00    +0.000 C 
ATOM     12  N   UNL     1       1.293  12.569  21.388  0.00  0.00    +0.000 NA
ATOM     13  C   UNL     1       1.804  12.881  20.157  0.00  0.00    +0.000 C 
ATOM     14  C   UNL     1       1.609  14.181  19.930  0.00  0.00    +0.000 C 
ATOM     15  C   UNL     1       0.776  14.811  18.956  0.00  0.00    +0.000 A 
ATOM     16  N   UNL     1      -0.644  14.912  19.130  0.00  0.00    +0.000 N 
ATOM     17  C   UNL     1      -1.044  16.236  19.626  0.00  0.00    +0.000 A 
ATOM     18  C   UNL     1      -2.253  16.331  20.758  0.00  0.00    +0.000 C 
ATOM     19  C   UNL     1      -3.638  16.769  21.003  0.00  0.00    +0.000 C 
ATOM     20  N   UNL     1      -4.004  15.610  21.699  0.00  0.00    +0.000 NA
ATOM     21  C   UNL     1       0.146  16.932  19.153  0.00  0.00    +0.000 A 
ATOM     22  C   UNL     1       1.181  16.025  18.449  0.00  0.00    +0.000 A 
ATOM     23  C   UNL     1       1.781  11.681  19.264  0.00  0.00    +0.000 C 
ATOM     24  C   UNL     1       0.578  10.923  19.838  0.00  0.00    +0.000 C 
ATOM     25  C   UNL     1      -0.537  10.895  18.808  0.00  0.00    +0.000 C 
ATOM     26  C   UNL     1       0.980   9.531  20.330  0.00  0.00    +0.000 C 
ATOM     27  C   UNL     1      -2.868  12.184  22.985  0.00  0.00    +0.000 A 
ATOM     28  C   UNL     1      -3.976  12.838  22.602  0.00  0.00    +0.000 A 
ATOM     29  H   UNL     1      -2.064  13.343  20.345  0.00  0.00    +0.000 HD
ATOM     30  H   UNL     1      -1.181  14.560  18.352  0.00  0.00    +0.000 HD
ENDROOT
BRANCH  22  31
ATOM     31  C   UNL     1       2.626  16.197  18.006  0.00  0.00    +0.000 C 
ATOM     32  O   UNL     1       3.350  17.115  18.349  0.00  0.00    +0.000 OA
BRANCH  31  33
ATOM     33  O   UNL     1       3.154  15.197  17.207  0.00  0.00    +0.000 OA
ATOM     34  H   UNL     1       3.896  15.427  16.620  0.00  0.00    +0.000 HD
ENDBRANCH  31  33
ENDBRANCH  22  31
BRANCH  28  35
ATOM     35  C   UNL     1      -4.976  13.123  23.646  0.00  0.00    +0.000 C 
ATOM     36  O   UNL     1      -6.179  13.142  23.420  0.00  0.00    +0.000 OA
BRANCH  35  37
ATOM     37  O   UNL     1      -4.500  13.290  24.892  0.00  0.00    +0.000 OA
ATOM     38  H   UNL     1      -5.264  13.366  25.507  0.00  0.00    +0.000 HD
ENDBRANCH  35  37
ENDBRANCH  28  35
TORSDOF 4
ENDMDL
MODEL 4
REMARK VINA RESULT:      -6.5      3.698      7.667
REMARK  Name = 
REMARK  8 active torsions:
REMARK  status: ('A' for Active; 'I' for Inactive)
REMARK    1  A    between atoms: C_1  and  C_2
REMARK    2  A    between atoms: C_2  and  C_3
REMARK    3  A    between atoms: C_22  and  C_23
REMARK    4  A    between atoms: C_23  and  O_25
REMARK    5  A    between atoms: C_27  and  C_28
REMARK    6  A    between atoms: C_27  and  C_29
REMARK    7  A    between atoms: C_31  and  C_32
REMARK    8  A    between atoms: C_32  and  O_34
REMARK                            x       y       z     vdW  Elec       q    Type
REMARK                         _______ _______ _______ _____ _____    ______ ____
ROOT
ATOM      1  C   UNL     1       1.131   7.309  17.820  0.00  0.00    +0.000 C 
ATOM      2  C   UNL     1       1.155   8.880  17.672  0.00  0.00    +0.000 C 
ATOM      3  C   UNL     1       2.916   8.634  18.129  0.00  0.00    +0.000 C 
ATOM      4  C   UNL     1       1.616  10.345  17.856  0.00  0.00    +0.000 C 
ATOM      5  C   UNL     1       0.937  10.543  19.177  0.00  0.00    +0.000 C 
ATOM      6  C   UNL     1       0.922  11.753  19.992  0.00  0.00    +0.000 C 
ATOM      7  C   UNL     1       0.238  11.564  21.140  0.00  0.00    +0.000 A 
ATOM      8  N   UNL     1      -0.954  12.265  21.436  0.00  0.00    +0.000 N 
ATOM      9  C   UNL     1      -1.540  11.732  22.580  0.00  0.00    +0.000 A 
ATOM     10  C   UNL     1      -2.687  11.973  23.224  0.00  0.00    +0.000 C 
ATOM     11  C   UNL     1      -3.776  12.744  22.640  0.00  0.00    +0.000 C 
ATOM     12  N   UNL     1      -4.835  12.127  22.215  0.00  0.00    +0.000 NA
ATOM     13  C   UNL     1      -5.363  13.011  21.313  0.00  0.00    +0.000 C 
ATOM     14  C   UNL     1      -5.343  12.449  20.102  0.00  0.00    +0.000 C 
ATOM     15  C   UNL     1      -4.588  12.821  18.949  0.00  0.00    +0.000 A 
ATOM     16  N   UNL     1      -3.198  12.490  18.820  0.00  0.00    +0.000 N 
ATOM     17  C   UNL     1      -2.991  11.302  17.981  0.00  0.00    +0.000 A 
ATOM     18  C   UNL     1      -1.825  10.208  18.424  0.00  0.00    +0.000 C 
ATOM     19  C   UNL     1      -0.517   9.633  18.063  0.00  0.00    +0.000 C 
ATOM     20  N   UNL     1      -0.008   9.679  19.367  0.00  0.00    +0.000 NA
ATOM     21  C   UNL     1      -4.256  11.409  17.266  0.00  0.00    +0.000 A 
ATOM     22  C   UNL     1      -5.145  12.592  17.712  0.00  0.00    +0.000 A 
ATOM     23  C   UNL     1      -5.161  14.417  21.782  0.00  0.00    +0.000 C 
ATOM     24  C   UNL     1      -3.876  14.261  22.604  0.00  0.00    +0.000 C 
ATOM     25  C   UNL     1      -2.751  15.021  21.926  0.00  0.00    +0.000 C 
ATOM     26  C   UNL     1      -4.093  14.675  24.060  0.00  0.00    +0.000 C 
ATOM     27  C   UNL     1      -0.688  10.650  23.011  0.00  0.00    +0.000 A 
ATOM     28  C   UNL     1       0.327  10.495  22.146  0.00  0.00    +0.000 A 
ATOM     29  H   UNL     1      -1.598  12.243  20.645  0.00  0.00    +0.000 HD
ATOM     30  H   UNL     1      -2.605  13.279  18.609  0.00  0.00    +0.000 HD
ENDROOT
BRANCH  22  31
ATOM     31  C   UNL     1      -6.593  12.992  17.468  0.00  0.00    +0.000 C 
ATOM     32  O   UNL     1      -7.558  12.309  17.761  0.00  0.00    +0.000 OA
BRANCH  31  33
ATOM     33  O   UNL     1      -6.808  14.250  16.931  0.00  0.00    +0.000 OA
ATOM     34  H   UNL     1      -7.514  14.796  17.318  0.00  0.00    +0.000 HD
ENDBRANCH  31  33
ENDBRANCH  22  31
BRANCH  28  35
ATOM     35  C   UNL     1       1.261   9.386  22.404  0.00  0.00    +0.000 C 
ATOM     36  O   UNL     1       2.025   9.375  23.361  0.00  0.00    +0.000 OA
BRANCH  35  37
ATOM     37  O   UNL     1       1.179   8.336  21.569  0.00  0.00    +0.000 OA
ATOM     38  H   UNL     1       1.958   8.356  20.970  0.00  0.00    +0.000 HD
ENDBRANCH  35  37
ENDBRANCH  28  35
TORSDOF 4
ENDMDL
MODEL 5
REMARK VINA RESULT:      -6.5      2.919      5.406
REMARK  Name = 
REMARK  8 active torsions:
REMARK  status: ('A' for Active; 'I' for Inactive)
REMARK    1  A    between atoms: C_1  and  C_2
REMARK    2  A    between atoms: C_2  and  C_3
REMARK    3  A    between atoms: C_22  and  C_23
REMARK    4  A    between atoms: C_23  and  O_25
REMARK    5  A    between atoms: C_27  and  C_28
REMARK    6  A    between atoms: C_27  and  C_29
REMARK    7  A    between atoms: C_31  and  C_32
REMARK    8  A    between atoms: C_32  and  O_34
REMARK                            x       y       z     vdW  Elec       q    Type
REMARK                         _______ _______ _______ _____ _____    ______ ____
ROOT
ATOM      1  C   UNL     1      -3.368  18.550  23.801  0.00  0.00    +0.000 C 
ATOM      2  C   UNL     1      -3.426  17.031  24.224  0.00  0.00    +0.000 C 
ATOM      3  C   UNL     1      -2.326  17.633  25.565  0.00  0.00    +0.000 C 
ATOM      4  C   UNL     1      -3.013  15.695  24.885  0.00  0.00    +0.000 C 
ATOM      5  C   UNL     1      -2.056  15.292  23.803  0.00  0.00    +0.000 C 
ATOM      6  C   UNL     1      -1.260  14.071  23.736  0.00  0.00    +0.000 C 
ATOM      7  C   UNL     1      -0.482  14.052  22.633  0.00  0.00    +0.000 A 
ATOM      8  N   UNL     1      -0.646  13.095  21.606  0.00  0.00    +0.000 N 
ATOM      9  C   UNL     1       0.152  13.433  20.518  0.00  0.00    +0.000 A 
ATOM     10  C   UNL     1       0.304  12.918  19.293  0.00  0.00    +0.000 C 
ATOM     11  C   UNL     1      -0.626  11.956  18.717  0.00  0.00    +0.000 C 
ATOM     12  N   UNL     1      -1.458  12.346  17.802  0.00  0.00    +0.000 NA
ATOM     13  C   UNL     1      -2.455  11.412  17.876  0.00  0.00    +0.000 C 
ATOM     14  C   UNL     1      -3.584  12.021  18.246  0.00  0.00    +0.000 C 
ATOM     15  C   UNL     1      -4.332  11.877  19.454  0.00  0.00    +0.000 A 
ATOM     16  N   UNL     1      -3.920  12.508  20.674  0.00  0.00    +0.000 N 
ATOM     17  C   UNL     1      -4.662  13.751  20.928  0.00  0.00    +0.000 A 
ATOM     18  C   UNL     1      -3.846  15.052  21.557  0.00  0.00    +0.000 C 
ATOM     19  C   UNL     1      -3.689  15.914  22.741  0.00  0.00    +0.000 C 
ATOM     20  N   UNL     1      -2.289  15.919  22.695  0.00  0.00    +0.000 NA
ATOM     21  C   UNL     1      -5.810  13.405  20.100  0.00  0.00    +0.000 A 
ATOM     22  C   UNL     1      -5.697  12.036  19.390  0.00  0.00    +0.000 A 
ATOM     23  C   UNL     1      -1.885  10.064  18.181  0.00  0.00    +0.000 C 
ATOM     24  C   UNL     1      -0.632  10.458  18.974  0.00  0.00    +0.000 C 
ATOM     25  C   UNL     1      -0.781   9.993  20.411  0.00  0.00    +0.000 C 
ATOM     26  C   UNL     1       0.639   9.938  18.300  0.00  0.00    +0.000 C 
ATOM     27  C   UNL     1       0.835  14.654  20.873  0.00  0.00    +0.000 A 
ATOM     28  C   UNL     1       0.431  15.066  22.086  0.00  0.00    +0.000 A 
ATOM     29  H   UNL     1      -1.626  13.013  21.335  0.00  0.00    +0.000 HD
ATOM     30  H   UNL     1      -3.847  11.879  21.459  0.00  0.00    +0.000 HD
ENDROOT
BRANCH  22  31
ATOM     31  C   UNL     1      -6.472  11.342  18.279  0.00  0.00    +0.000 C 
ATOM     32  O   UNL     1      -6.884  10.197  18.334  0.00  0.00    +0.000 OA
BRANCH  31  33
ATOM     33  O   UNL     1      -6.772  12.103  17.162  0.00  0.00    +0.000 OA
ATOM     34  H   UNL     1      -7.505  11.809  16.594  0.00  0.00    +0.000 HD
ENDBRANCH  31  33
ENDBRANCH  22  31
BRANCH  28  35
ATOM     35  C   UNL     1       0.986  16.339  22.576  0.00  0.00    +0.000 C 
ATOM     36  O   UNL     1       1.915  16.391  23.373  0.00  0.00    +0.000 OA
BRANCH  35  37
ATOM     37  O   UNL     1       0.466  17.457  22.042  0.00  0.00    +0.000 OA
ATOM     38  H   UNL     1       1.088  18.199  22.211  0.00  0.00    +0.000 HD
ENDBRANCH  35  37
ENDBRANCH  28  35
TORSDOF 4
ENDMDL
MODEL 6
REMARK VINA RESULT:      -6.3      8.724     11.030
REMARK  Name = 
REMARK  8 active torsions:
REMARK  status: ('A' for Active; 'I' for Inactive)
REMARK    1  A    between atoms: C_1  and  C_2
REMARK    2  A    between atoms: C_2  and  C_3
REMARK    3  A    between atoms: C_22  and  C_23
REMARK    4  A    between atoms: C_23  and  O_25
REMARK    5  A    between atoms: C_27  and  C_28
REMARK    6  A    between atoms: C_27  and  C_29
REMARK    7  A    between atoms: C_31  and  C_32
REMARK    8  A    between atoms: C_32  and  O_34
REMARK                            x       y       z     vdW  Elec       q    Type
REMARK                         _______ _______ _______ _____ _____    ______ ____
ROOT
ATOM      1  C   UNL     1       5.612  11.488  26.154  0.00  0.00    +0.000 C 
ATOM      2  C   UNL     1       7.068  12.087  26.037  0.00  0.00    +0.000 C 
ATOM      3  C   UNL     1       6.584  12.884  27.619  0.00  0.00    +0.000 C 
ATOM      4  C   UNL     1       8.261  13.047  26.258  0.00  0.00    +0.000 C 
ATOM      5  C   UNL     1       7.835  14.043  25.221  0.00  0.00    +0.000 C 
ATOM      6  C   UNL     1       8.521  15.274  24.843  0.00  0.00    +0.000 C 
ATOM      7  C   UNL     1       7.835  15.947  23.894  0.00  0.00    +0.000 A 
ATOM      8  N   UNL     1       8.350  16.159  22.594  0.00  0.00    +0.000 N 
ATOM      9  C   UNL     1       7.360  16.701  21.781  0.00  0.00    +0.000 A 
ATOM     10  C   UNL     1       7.304  17.008  20.480  0.00  0.00    +0.000 C 
ATOM     11  C   UNL     1       8.291  16.546  19.514  0.00  0.00    +0.000 C 
ATOM     12  N   UNL     1       7.977  15.593  18.692  0.00  0.00    +0.000 NA
ATOM     13  C   UNL     1       9.195  15.082  18.335  0.00  0.00    +0.000 C 
ATOM     14  C   UNL     1       9.268  13.817  18.754  0.00  0.00    +0.000 C 
ATOM     15  C   UNL     1      10.114  13.244  19.751  0.00  0.00    +0.000 A 
ATOM     16  N   UNL     1       9.843  13.399  21.151  0.00  0.00    +0.000 N 
ATOM     17  C   UNL     1       9.183  12.215  21.717  0.00  0.00    +0.000 A 
ATOM     18  C   UNL     1       7.974  12.435  22.833  0.00  0.00    +0.000 C 
ATOM     19  C   UNL     1       7.598  12.261  24.247  0.00  0.00    +0.000 C 
ATOM     20  N   UNL     1       7.011  13.527  24.367  0.00  0.00    +0.000 NA
ATOM     21  C   UNL     1       9.649  11.288  20.695  0.00  0.00    +0.000 A 
ATOM     22  C   UNL     1      10.510  11.936  19.587  0.00  0.00    +0.000 A 
ATOM     23  C   UNL     1      10.210  16.176  18.237  0.00  0.00    +0.000 C 
ATOM     24  C   UNL     1       9.649  17.177  19.254  0.00  0.00    +0.000 C 
ATOM     25  C   UNL     1      10.605  17.291  20.427  0.00  0.00    +0.000 C 
ATOM     26  C   UNL     1       9.338  18.523  18.596  0.00  0.00    +0.000 C 
ATOM     27  C   UNL     1       6.177  16.823  22.599  0.00  0.00    +0.000 A 
ATOM     28  C   UNL     1       6.418  16.329  23.824  0.00  0.00    +0.000 A 
ATOM     29  H   UNL     1       8.721  15.294  22.201  0.00  0.00    +0.000 HD
ATOM     30  H   UNL     1      10.620  13.759  21.684  0.00  0.00    +0.000 HD
ENDROOT
BRANCH  22  31
ATOM     31  C   UNL     1      11.020  11.482  18.228  0.00  0.00    +0.000 C 
ATOM     32  O   UNL     1      10.379  10.813  17.437  0.00  0.00    +0.000 OA
BRANCH  31  33
ATOM     33  O   UNL     1      12.279  11.923  17.858  0.00  0.00    +0.000 OA
ATOM     34  H   UNL     1      12.520  12.842  18.067  0.00  0.00    +0.000 HD
ENDBRANCH  31  33
ENDBRANCH  22  31
BRANCH  28  35
ATOM     35  C   UNL     1       5.290  16.318  24.772  0.00  0.00    +0.000 C 
ATOM     36  O   UNL     1       5.037  17.264  25.508  0.00  0.00    +0.000 OA
BRANCH  35  37
ATOM     37  O   UNL     1       4.496  15.234  24.735  0.00  0.00    +0.000 OA
ATOM     38  H   UNL     1       3.992  15.249  23.890  0.00  0.00    +0.000 HD
ENDBRANCH  35  37
ENDBRANCH  28  35
TORSDOF 4
ENDMDL
MODEL 7
REMARK VINA RESULT:      -6.3      1.190      1.416
REMARK  Name = 
REMARK  8 active torsions:
REMARK  status: ('A' for Active; 'I' for Inactive)
REMARK    1  A    between atoms: C_1  and  C_2
REMARK    2  A    between atoms: C_2  and  C_3
REMARK    3  A    between atoms: C_22  and  C_23
REMARK    4  A    between atoms: C_23  and  O_25
REMARK    5  A    between atoms: C_27  and  C_28
REMARK    6  A    between atoms: C_27  and  C_29
REMARK    7  A    between atoms: C_31  and  C_32
REMARK    8  A    between atoms: C_32  and  O_34
REMARK                            x       y       z     vdW  Elec       q    Type
REMARK                         _______ _______ _______ _____ _____    ______ ____
ROOT
ATOM      1  C   UNL     1      -2.802  18.178  25.766  0.00  0.00    +0.000 C 
ATOM      2  C   UNL     1      -3.144  18.049  24.230  0.00  0.00    +0.000 C 
ATOM      3  C   UNL     1      -4.844  17.851  24.894  0.00  0.00    +0.000 C 
ATOM      4  C   UNL     1      -3.917  17.666  22.946  0.00  0.00    +0.000 C 
ATOM      5  C   UNL     1      -3.400  16.260  22.884  0.00  0.00    +0.000 C 
ATOM      6  C   UNL     1      -3.705  15.249  21.877  0.00  0.00    +0.000 C 
ATOM      7  C   UNL     1      -3.088  14.080  22.152  0.00  0.00    +0.000 A 
ATOM      8  N   UNL     1      -2.098  13.528  21.308  0.00  0.00    +0.000 N 
ATOM      9  C   UNL     1      -1.505  12.436  21.931  0.00  0.00    +0.000 A 
ATOM     10  C   UNL     1      -0.489  11.630  21.606  0.00  0.00    +0.000 C 
ATOM     11  C   UNL     1       0.456  11.938  20.540  0.00  0.00    +0.000 C 
ATOM     12  N   UNL     1       1.651  12.338  20.847  0.00  0.00    +0.000 NA
ATOM     13  C   UNL     1       2.051  13.002  19.720  0.00  0.00    +0.000 C 
ATOM     14  C   UNL     1       2.245  14.287  20.026  0.00  0.00    +0.000 C 
ATOM     15  C   UNL     1       1.521  15.437  19.588  0.00  0.00    +0.000 A 
ATOM     16  N   UNL     1       0.247  15.784  20.147  0.00  0.00    +0.000 N 
ATOM     17  C   UNL     1       0.361  16.837  21.165  0.00  0.00    +0.000 A 
ATOM     18  C   UNL     1      -0.579  16.733  22.529  0.00  0.00    +0.000 C 
ATOM     19  C   UNL     1      -1.704  17.339  23.262  0.00  0.00    +0.000 C 
ATOM     20  N   UNL     1      -2.313  16.116  23.570  0.00  0.00    +0.000 NA
ATOM     21  C   UNL     1       1.628  17.369  20.680  0.00  0.00    +0.000 A 
ATOM     22  C   UNL     1       2.210  16.621  19.459  0.00  0.00    +0.000 A 
ATOM     23  C   UNL     1       1.522  12.321  18.498  0.00  0.00    +0.000 C 
ATOM     24  C   UNL     1       0.237  11.695  19.056  0.00  0.00    +0.000 C 
ATOM     25  C   UNL     1      -0.966  12.356  18.408  0.00  0.00    +0.000 C 
ATOM     26  C   UNL     1       0.247  10.173  18.900  0.00  0.00    +0.000 C 
ATOM     27  C   UNL     1      -2.141  12.304  23.220  0.00  0.00    +0.000 A 
ATOM     28  C   UNL     1      -3.030  13.296  23.394  0.00  0.00    +0.000 A 
ATOM     29  H   UNL     1      -1.404  14.230  21.050  0.00  0.00    +0.000 HD
ATOM     30  H   UNL     1      -0.481  15.921  19.462  0.00  0.00    +0.000 HD
ENDROOT
BRANCH  22  31
ATOM     31  C   UNL     1       3.556  16.621  18.749  0.00  0.00    +0.000 C 
ATOM     32  O   UNL     1       3.814  15.962  17.757  0.00  0.00    +0.000 OA
BRANCH  31  33
ATOM     33  O   UNL     1       4.520  17.482  19.244  0.00  0.00    +0.000 OA
ATOM     34  H   UNL     1       4.712  18.291  18.737  0.00  0.00    +0.000 HD
ENDBRANCH  31  33
ENDBRANCH  22  31
BRANCH  28  35
ATOM     35  C   UNL     1      -3.727  13.347  24.691  0.00  0.00    +0.000 C 
ATOM     36  O   UNL     1      -4.478  12.459  25.071  0.00  0.00    +0.000 OA
BRANCH  35  37
ATOM     37  O   UNL     1      -3.433  14.396  25.479  0.00  0.00    +0.000 OA
ATOM     38  H   UNL     1      -2.953  15.063  24.940  0.00  0.00    +0.000 HD
ENDBRANCH  35  37
ENDBRANCH  28  35
TORSDOF 4
ENDMDL
MODEL 8
REMARK VINA RESULT:      -6.2      7.755     12.230
REMARK  Name = 
REMARK  8 active torsions:
REMARK  status: ('A' for Active; 'I' for Inactive)
REMARK    1  A    between atoms: C_1  and  C_2
REMARK    2  A    between atoms: C_2  and  C_3
REMARK    3  A    between atoms: C_22  and  C_23
REMARK    4  A    between atoms: C_23  and  O_25
REMARK    5  A    between atoms: C_27  and  C_28
REMARK    6  A    between atoms: C_27  and  C_29
REMARK    7  A    between atoms: C_31  and  C_32
REMARK    8  A    between atoms: C_32  and  O_34
REMARK                            x       y       z     vdW  Elec       q    Type
REMARK                         _______ _______ _______ _____ _____    ______ ____
ROOT
ATOM      1  C   UNL     1      12.332  12.582  18.549  0.00  0.00    +0.000 C 
ATOM      2  C   UNL     1      10.769  12.402  18.413  0.00  0.00    +0.000 C 
ATOM      3  C   UNL     1      11.112  13.003  16.712  0.00  0.00    +0.000 C 
ATOM      4  C   UNL     1       9.331  12.590  17.874  0.00  0.00    +0.000 C 
ATOM      5  C   UNL     1       9.057  13.850  18.639  0.00  0.00    +0.000 C 
ATOM      6  C   UNL     1       7.827  14.635  18.639  0.00  0.00    +0.000 C 
ATOM      7  C   UNL     1       7.943  15.729  19.421  0.00  0.00    +0.000 A 
ATOM      8  N   UNL     1       7.162  15.916  20.585  0.00  0.00    +0.000 N 
ATOM      9  C   UNL     1       7.626  17.021  21.290  0.00  0.00    +0.000 A 
ATOM     10  C   UNL     1       7.298  17.567  22.466  0.00  0.00    +0.000 C 
ATOM     11  C   UNL     1       6.476  16.882  23.455  0.00  0.00    +0.000 C 
ATOM     12  N   UNL     1       7.037  16.389  24.515  0.00  0.00    +0.000 NA
ATOM     13  C   UNL     1       6.146  15.429  24.914  0.00  0.00    +0.000 C 
ATOM     14  C   UNL     1       6.739  14.236  24.837  0.00  0.00    +0.000 C 
ATOM     15  C   UNL     1       6.447  13.138  23.972  0.00  0.00    +0.000 A 
ATOM     16  N   UNL     1       6.866  13.126  22.601  0.00  0.00    +0.000 N 
ATOM     17  C   UNL     1       8.086  12.332  22.406  0.00  0.00    +0.000 A 
ATOM     18  C   UNL     1       9.239  12.888  21.350  0.00  0.00    +0.000 C 
ATOM     19  C   UNL     1       9.903  12.645  20.058  0.00  0.00    +0.000 C 
ATOM     20  N   UNL     1       9.855  13.983  19.650  0.00  0.00    +0.000 NA
ATOM     21  C   UNL     1       7.920  11.517  23.603  0.00  0.00    +0.000 A 
ATOM     22  C   UNL     1       6.672  11.866  24.446  0.00  0.00    +0.000 A 
ATOM     23  C   UNL     1       4.744  15.882  24.660  0.00  0.00    +0.000 C 
ATOM     24  C   UNL     1       4.958  16.806  23.454  0.00  0.00    +0.000 C 
ATOM     25  C   UNL     1       4.287  16.203  22.233  0.00  0.00    +0.000 C 
ATOM     26  C   UNL     1       4.492  18.231  23.756  0.00  0.00    +0.000 C 
ATOM     27  C   UNL     1       8.748  17.541  20.545  0.00  0.00    +0.000 A 
ATOM     28  C   UNL     1       8.988  16.761  19.479  0.00  0.00    +0.000 A 
ATOM     29  H   UNL     1       7.164  15.077  21.166  0.00  0.00    +0.000 HD
ATOM     30  H   UNL     1       6.122  12.946  21.944  0.00  0.00    +0.000 HD
ENDROOT
BRANCH  22  31
ATOM     31  C   UNL     1       6.190  11.500  25.842  0.00  0.00    +0.000 C 
ATOM     32  O   UNL     1       6.900  11.459  26.830  0.00  0.00    +0.000 OA
BRANCH  31  33
ATOM     33  O   UNL     1       4.834  11.261  25.987  0.00  0.00    +0.000 OA
ATOM     34  H   UNL     1       4.263  12.010  26.234  0.00  0.00    +0.000 HD
ENDBRANCH  31  33
ENDBRANCH  22  31
BRANCH  28  35
ATOM     35  C   UNL     1      10.146  17.116  18.640  0.00  0.00    +0.000 C 
ATOM     36  O   UNL     1      10.101  17.997  17.791  0.00  0.00    +0.000 OA
BRANCH  35  37
ATOM     37  O   UNL     1      11.293  16.469  18.910  0.00  0.00    +0.000 OA
ATOM     38  H   UNL     1      11.466  15.831  18.182  0.00  0.00    +0.000 HD
ENDBRANCH  35  37
ENDBRANCH  28  35
TORSDOF 4
ENDMDL
MODEL 9
REMARK VINA RESULT:      -6.1      3.352      4.460
REMARK  Name = 
REMARK  8 active torsions:
REMARK  status: ('A' for Active; 'I' for Inactive)
REMARK    1  A    between atoms: C_1  and  C_2
REMARK    2  A    between atoms: C_2  and  C_3
REMARK    3  A    between atoms: C_22  and  C_23
REMARK    4  A    between atoms: C_23  and  O_25
REMARK    5  A    between atoms: C_27  and  C_28
REMARK    6  A    between atoms: C_27  and  C_29
REMARK    7  A    between atoms: C_31  and  C_32
REMARK    8  A    between atoms: C_32  and  O_34
REMARK                            x       y       z     vdW  Elec       q    Type
REMARK                         _______ _______ _______ _____ _____    ______ ____
ROOT
ATOM      1  C   UNL     1      -7.654  16.098  22.308  0.00  0.00    +0.000 C 
ATOM      2  C   UNL     1      -7.476  14.533  22.419  0.00  0.00    +0.000 C 
ATOM      3  C   UNL     1      -7.908  14.872  24.171  0.00  0.00    +0.000 C 
ATOM      4  C   UNL     1      -7.224  13.146  23.056  0.00  0.00    +0.000 C 
ATOM      5  C   UNL     1      -5.728  13.252  23.039  0.00  0.00    +0.000 C 
ATOM      6  C   UNL     1      -4.765  12.257  23.498  0.00  0.00    +0.000 C 
ATOM      7  C   UNL     1      -3.498  12.700  23.363  0.00  0.00    +0.000 A 
ATOM      8  N   UNL     1      -2.568  12.087  22.493  0.00  0.00    +0.000 N 
ATOM      9  C   UNL     1      -1.418  12.864  22.411  0.00  0.00    +0.000 A 
ATOM     10  C   UNL     1      -0.297  12.777  21.686  0.00  0.00    +0.000 C 
ATOM     11  C   UNL     1      -0.167  11.896  20.533  0.00  0.00    +0.000 C 
ATOM     12  N   UNL     1      -0.192  12.405  19.340  0.00  0.00    +0.000 NA
ATOM     13  C   UNL     1      -0.566  11.342  18.562  0.00  0.00    +0.000 C 
ATOM     14  C   UNL     1      -1.745  11.617  18.001  0.00  0.00    +0.000 C 
ATOM     15  C   UNL     1      -3.012  10.994  18.214  0.00  0.00    +0.000 A 
ATOM     16  N   UNL     1      -3.809  11.284  19.371  0.00  0.00    +0.000 N 
ATOM     17  C   UNL     1      -4.874  12.252  19.076  0.00  0.00    +0.000 A 
ATOM     18  C   UNL     1      -5.227  13.416  20.205  0.00  0.00    +0.000 C 
ATOM     19  C   UNL     1      -6.239  13.891  21.165  0.00  0.00    +0.000 C 
ATOM     20  N   UNL     1      -5.317  14.139  22.190  0.00  0.00    +0.000 NA
ATOM     21  C   UNL     1      -4.914  11.990  17.643  0.00  0.00    +0.000 A 
ATOM     22  C   UNL     1      -3.890  10.939  17.156  0.00  0.00    +0.000 A 
ATOM     23  C   UNL     1       0.038  10.077  19.083  0.00  0.00    +0.000 C 
ATOM     24  C   UNL     1       0.153  10.411  20.576  0.00  0.00    +0.000 C 
ATOM     25  C   UNL     1      -0.785   9.515  21.365  0.00  0.00    +0.000 C 
ATOM     26  C   UNL     1       1.604  10.335  21.053  0.00  0.00    +0.000 C 
ATOM     27  C   UNL     1      -1.639  14.014  23.255  0.00  0.00    +0.000 A 
ATOM     28  C   UNL     1      -2.876  13.967  23.774  0.00  0.00    +0.000 A 
ATOM     29  H   UNL     1      -2.977  11.931  21.571  0.00  0.00    +0.000 HD
ATOM     30  H   UNL     1      -4.097  10.466  19.888  0.00  0.00    +0.000 HD
ENDROOT
BRANCH  22  31
ATOM     31  C   UNL     1      -3.379  10.498  15.792  0.00  0.00    +0.000 C 
ATOM     32  O   UNL     1      -3.415  11.183  14.786  0.00  0.00    +0.000 OA
BRANCH  31  33
ATOM     33  O   UNL     1      -2.780   9.252  15.727  0.00  0.00    +0.000 OA
ATOM     34  H   UNL     1      -3.349   8.482  15.550  0.00  0.00    +0.000 HD
ENDBRANCH  31  33
ENDBRANCH  22  31
BRANCH  28  35
ATOM     35  C   UNL     1      -3.290  15.105  24.615  0.00  0.00    +0.000 C 
ATOM     36  O   UNL     1      -2.951  15.218  25.785  0.00  0.00    +0.000 OA
BRANCH  35  37
ATOM     37  O   UNL     1      -4.006  16.063  24.002  0.00  0.00    +0.000 OA
ATOM     38  H   UNL     1      -3.557  16.925  24.149  0.00  0.00    +0.000 HD
ENDBRANCH  35  37
ENDBRANCH  28  35
TORSDOF 4
ENDMDL
