MODEL 1
REMARK VINA RESULT:      -7.7      0.000      0.000
REMARK  Name = 
REMARK  8 active torsions:
REMARK  status: ('A' for Active; 'I' for Inactive)
REMARK    1  A    between atoms: C_1  and  C_2
REMARK    2  A    between atoms: C_2  and  O_3
REMARK    3  A    between atoms: O_3  and  C_4
REMARK    4  A    between atoms: C_4  and  C_6
REMARK    5  A    between atoms: C_6  and  C_7
REMARK    6  A    between atoms: C_6  and  N_17
REMARK    7  A    between atoms: C_7  and  C_8
REMARK    8  A    between atoms: C_18  and  C_19
REMARK                            x       y       z     vdW  Elec       q    Type
REMARK                         _______ _______ _______ _____ _____    ______ ____
ROOT
ATOM      1  C   UNL     1       5.866   5.150  16.005  0.00  0.00    +0.000 C 
ENDROOT
BRANCH   1   2
ATOM      2  N   UNL     1       6.742   5.334  17.168  0.00  0.00    +0.000 N 
ATOM      3  C   UNL     1       7.182   6.575  17.562  0.00  0.00    +0.000 C 
ATOM      4  C   UNL     1       8.128   6.558  18.731  0.00  0.00    +0.000 C 
ATOM      5  O   UNL     1       6.836   7.623  17.028  0.00  0.00    +0.000 OA
ATOM      6  H   UNL     1       7.233   4.515  17.508  0.00  0.00    +0.000 HD
ENDBRANCH   1   2
BRANCH   1   7
ATOM      7  C   UNL     1       6.688   4.781  14.759  0.00  0.00    +0.000 C 
ATOM      8  O   UNL     1       7.705   5.377  14.418  0.00  0.00    +0.000 OA
BRANCH   7   9
ATOM      9  O   UNL     1       6.197   3.671  14.144  0.00  0.00    +0.000 OA
BRANCH   9  11
ATOM     10  C   UNL     1       5.026   3.338  12.024  0.00  0.00    +0.000 C 
ATOM     11  C   UNL     1       6.354   3.587  12.724  0.00  0.00    +0.000 C 
ENDBRANCH   9  11
ENDBRANCH   7   9
ENDBRANCH   1   7
BRANCH   1  12
ATOM     12  C   UNL     1       4.661   4.217  16.217  0.00  0.00    +0.000 C 
BRANCH  12  13
ATOM     13  C   UNL     1       3.738   4.657  17.313  0.00  0.00    +0.000 A 
ATOM     14  C   UNL     1       3.568   5.962  17.734  0.00  0.00    +0.000 A 
ATOM     15  N   UNL     1       2.610   5.980  18.708  0.00  0.00    +0.000 N 
ATOM     16  C   UNL     1       2.175   4.703  18.968  0.00  0.00    +0.000 A 
ATOM     17  C   UNL     1       1.211   4.251  19.879  0.00  0.00    +0.000 A 
ATOM     18  C   UNL     1       1.001   2.873  19.968  0.00  0.00    +0.000 A 
ATOM     19  C   UNL     1       1.725   1.986  19.177  0.00  0.00    +0.000 A 
ATOM     20  C   UNL     1       2.667   2.456  18.253  0.00  0.00    +0.000 A 
ATOM     21  C   UNL     1       2.894   3.844  18.136  0.00  0.00    +0.000 A 
ATOM     22  H   UNL     1       2.280   6.806  19.184  0.00  0.00    +0.000 HD
ENDBRANCH  12  13
ENDBRANCH   1  12
TORSDOF 6
ENDMDL
MODEL 2
REMARK VINA RESULT:      -7.5      1.255      2.122
REMARK  Name = 
REMARK  8 active torsions:
REMARK  status: ('A' for Active; 'I' for Inactive)
REMARK    1  A    between atoms: C_1  and  C_2
REMARK    2  A    between atoms: C_2  and  O_3
REMARK    3  A    between atoms: O_3  and  C_4
REMARK    4  A    between atoms: C_4  and  C_6
REMARK    5  A    between atoms: C_6  and  C_7
REMARK    6  A    between atoms: C_6  and  N_17
REMARK    7  A    between atoms: C_7  and  C_8
REMARK    8  A    between atoms: C_18  and  C_19
REMARK                            x       y       z     vdW  Elec       q    Type
REMARK                         _______ _______ _______ _____ _____    ______ ____
ROOT
ATOM      1  C   UNL     1       5.905   5.111  15.938  0.00  0.00    +0.000 C 
ENDROOT
BRANCH   1   2
ATOM      2  N   UNL     1       6.719   5.263  17.149  0.00  0.00    +0.000 N 
ATOM      3  C   UNL     1       7.140   6.493  17.596  0.00  0.00    +0.000 C 
ATOM      4  C   UNL     1       8.024   6.445  18.812  0.00  0.00    +0.000 C 
ATOM      5  O   UNL     1       6.823   7.555  17.072  0.00  0.00    +0.000 OA
ATOM      6  H   UNL     1       7.192   4.435  17.493  0.00  0.00    +0.000 HD
ENDBRANCH   1   2
BRANCH   1   7
ATOM      7  C   UNL     1       6.793   4.796  14.722  0.00  0.00    +0.000 C 
ATOM      8  O   UNL     1       7.811   5.421  14.447  0.00  0.00    +0.000 OA
BRANCH   7   9
ATOM      9  O   UNL     1       6.355   3.694  14.053  0.00  0.00    +0.000 OA
BRANCH   9  11
ATOM     10  C   UNL     1       5.194   3.181  11.963  0.00  0.00    +0.000 C 
ATOM     11  C   UNL     1       6.456   3.714  12.626  0.00  0.00    +0.000 C 
ENDBRANCH   9  11
ENDBRANCH   7   9
ENDBRANCH   1   7
BRANCH   1  12
ATOM     12  C   UNL     1       4.703   4.157  16.057  0.00  0.00    +0.000 C 
BRANCH  12  13
ATOM     13  C   UNL     1       4.047   4.172  17.405  0.00  0.00    +0.000 A 
ATOM     14  C   UNL     1       3.921   3.079  18.241  0.00  0.00    +0.000 A 
ATOM     15  N   UNL     1       3.322   3.489  19.398  0.00  0.00    +0.000 N 
ATOM     16  C   UNL     1       3.012   4.826  19.324  0.00  0.00    +0.000 A 
ATOM     17  C   UNL     1       2.397   5.658  20.268  0.00  0.00    +0.000 A 
ATOM     18  C   UNL     1       2.158   6.984  19.903  0.00  0.00    +0.000 A 
ATOM     19  C   UNL     1       2.520   7.457  18.645  0.00  0.00    +0.000 A 
ATOM     20  C   UNL     1       3.157   6.617  17.722  0.00  0.00    +0.000 A 
ATOM     21  C   UNL     1       3.418   5.275  18.067  0.00  0.00    +0.000 A 
ATOM     22  H   UNL     1       3.117   2.896  20.188  0.00  0.00    +0.000 HD
ENDBRANCH  12  13
ENDBRANCH   1  12
TORSDOF 6
ENDMDL
MODEL 3
REMARK VINA RESULT:      -7.3      1.667      2.182
REMARK  Name = 
REMARK  8 active torsions:
REMARK  status: ('A' for Active; 'I' for Inactive)
REMARK    1  A    between atoms: C_1  and  C_2
REMARK    2  A    between atoms: C_2  and  O_3
REMARK    3  A    between atoms: O_3  and  C_4
REMARK    4  A    between atoms: C_4  and  C_6
REMARK    5  A    between atoms: C_6  and  C_7
REMARK    6  A    between atoms: C_6  and  N_17
REMARK    7  A    between atoms: C_7  and  C_8
REMARK    8  A    between atoms: C_18  and  C_19
REMARK                            x       y       z     vdW  Elec       q    Type
REMARK                         _______ _______ _______ _____ _____    ______ ____
ROOT
ATOM      1  C   UNL     1       6.297   6.059  16.890  0.00  0.00    +0.000 C 
ENDROOT
BRANCH   1   2
ATOM      2  N   UNL     1       6.809   7.429  17.003  0.00  0.00    +0.000 N 
ATOM      3  C   UNL     1       7.769   7.777  17.923  0.00  0.00    +0.000 C 
ATOM      4  C   UNL     1       8.116   9.240  17.939  0.00  0.00    +0.000 C 
ATOM      5  O   UNL     1       8.319   6.976  18.671  0.00  0.00    +0.000 OA
ATOM      6  H   UNL     1       6.253   8.165  16.583  0.00  0.00    +0.000 HD
ENDBRANCH   1   2
BRANCH   1   7
ATOM      7  C   UNL     1       7.315   5.156  16.174  0.00  0.00    +0.000 C 
ATOM      8  O   UNL     1       7.830   4.171  16.693  0.00  0.00    +0.000 OA
BRANCH   7   9
ATOM      9  O   UNL     1       7.500   5.536  14.880  0.00  0.00    +0.000 OA
BRANCH   9  11
ATOM     10  C   UNL     1       5.762   4.105  13.927  0.00  0.00    +0.000 C 
ATOM     11  C   UNL     1       7.211   4.568  13.867  0.00  0.00    +0.000 C 
ENDBRANCH   9  11
ENDBRANCH   7   9
ENDBRANCH   1   7
BRANCH   1  12
ATOM     12  C   UNL     1       5.765   5.435  18.192  0.00  0.00    +0.000 C 
BRANCH  12  13
ATOM     13  C   UNL     1       4.473   4.692  18.026  0.00  0.00    +0.000 A 
ATOM     14  C   UNL     1       4.139   3.912  16.935  0.00  0.00    +0.000 A 
ATOM     15  N   UNL     1       2.914   3.353  17.165  0.00  0.00    +0.000 N 
ATOM     16  C   UNL     1       2.414   3.784  18.370  0.00  0.00    +0.000 A 
ATOM     17  C   UNL     1       1.205   3.471  19.003  0.00  0.00    +0.000 A 
ATOM     18  C   UNL     1       0.929   4.101  20.219  0.00  0.00    +0.000 A 
ATOM     19  C   UNL     1       1.829   5.005  20.777  0.00  0.00    +0.000 A 
ATOM     20  C   UNL     1       3.046   5.286  20.142  0.00  0.00    +0.000 A 
ATOM     21  C   UNL     1       3.353   4.659  18.917  0.00  0.00    +0.000 A 
ATOM     22  H   UNL     1       2.433   2.729  16.534  0.00  0.00    +0.000 HD
ENDBRANCH  12  13
ENDBRANCH   1  12
TORSDOF 6
ENDMDL
MODEL 4
REMARK VINA RESULT:      -7.3      1.739      3.642
REMARK  Name = 
REMARK  8 active torsions:
REMARK  status: ('A' for Active; 'I' for Inactive)
REMARK    1  A    between atoms: C_1  and  C_2
REMARK    2  A    between atoms: C_2  and  O_3
REMARK    3  A    between atoms: O_3  and  C_4
REMARK    4  A    between atoms: C_4  and  C_6
REMARK    5  A    between atoms: C_6  and  C_7
REMARK    6  A    between atoms: C_6  and  N_17
REMARK    7  A    between atoms: C_7  and  C_8
REMARK    8  A    between atoms: C_18  and  C_19
REMARK                            x       y       z     vdW  Elec       q    Type
REMARK                         _______ _______ _______ _____ _____    ______ ____
ROOT
ATOM      1  C   UNL     1       5.148   4.764  16.041  0.00  0.00    +0.000 C 
ENDROOT
BRANCH   1   2
ATOM      2  N   UNL     1       5.474   4.336  14.676  0.00  0.00    +0.000 N 
ATOM      3  C   UNL     1       6.713   4.549  14.120  0.00  0.00    +0.000 C 
ATOM      4  C   UNL     1       6.838   4.107  12.688  0.00  0.00    +0.000 C 
ATOM      5  O   UNL     1       7.656   5.046  14.725  0.00  0.00    +0.000 OA
ATOM      6  H   UNL     1       4.696   4.130  14.060  0.00  0.00    +0.000 HD
ENDBRANCH   1   2
BRANCH   1   7
ATOM      7  C   UNL     1       5.290   6.289  16.181  0.00  0.00    +0.000 C 
ATOM      8  O   UNL     1       5.014   7.080  15.285  0.00  0.00    +0.000 OA
BRANCH   7   9
ATOM      9  O   UNL     1       5.673   6.644  17.438  0.00  0.00    +0.000 OA
BRANCH   9  11
ATOM     10  C   UNL     1       7.730   7.962  17.545  0.00  0.00    +0.000 C 
ATOM     11  C   UNL     1       7.073   6.601  17.730  0.00  0.00    +0.000 C 
ENDBRANCH   9  11
ENDBRANCH   7   9
ENDBRANCH   1   7
BRANCH   1  12
ATOM     12  C   UNL     1       3.816   4.239  16.605  0.00  0.00    +0.000 C 
BRANCH  12  13
ATOM     13  C   UNL     1       3.928   3.655  17.981  0.00  0.00    +0.000 A 
ATOM     14  C   UNL     1       5.094   3.184  18.554  0.00  0.00    +0.000 A 
ATOM     15  N   UNL     1       4.816   2.783  19.829  0.00  0.00    +0.000 N 
ATOM     16  C   UNL     1       3.477   2.941  20.095  0.00  0.00    +0.000 A 
ATOM     17  C   UNL     1       2.756   2.663  21.263  0.00  0.00    +0.000 A 
ATOM     18  C   UNL     1       1.376   2.878  21.238  0.00  0.00    +0.000 A 
ATOM     19  C   UNL     1       0.747   3.353  20.091  0.00  0.00    +0.000 A 
ATOM     20  C   UNL     1       1.487   3.650  18.940  0.00  0.00    +0.000 A 
ATOM     21  C   UNL     1       2.884   3.449  18.939  0.00  0.00    +0.000 A 
ATOM     22  H   UNL     1       5.489   2.406  20.479  0.00  0.00    +0.000 HD
ENDBRANCH  12  13
ENDBRANCH   1  12
TORSDOF 6
ENDMDL
MODEL 5
REMARK VINA RESULT:      -7.3      1.641      3.869
REMARK  Name = 
REMARK  8 active torsions:
REMARK  status: ('A' for Active; 'I' for Inactive)
REMARK    1  A    between atoms: C_1  and  C_2
REMARK    2  A    between atoms: C_2  and  O_3
REMARK    3  A    between atoms: O_3  and  C_4
REMARK    4  A    between atoms: C_4  and  C_6
REMARK    5  A    between atoms: C_6  and  C_7
REMARK    6  A    between atoms: C_6  and  N_17
REMARK    7  A    between atoms: C_7  and  C_8
REMARK    8  A    between atoms: C_18  and  C_19
REMARK                            x       y       z     vdW  Elec       q    Type
REMARK                         _______ _______ _______ _____ _____    ______ ____
ROOT
ATOM      1  C   UNL     1       6.097   5.167  17.060  0.00  0.00    +0.000 C 
ENDROOT
BRANCH   1   2
ATOM      2  N   UNL     1       5.822   4.462  15.803  0.00  0.00    +0.000 N 
ATOM      3  C   UNL     1       6.624   4.601  14.696  0.00  0.00    +0.000 C 
ATOM      4  C   UNL     1       6.144   3.858  13.481  0.00  0.00    +0.000 C 
ATOM      5  O   UNL     1       7.658   5.261  14.681  0.00  0.00    +0.000 OA
ATOM      6  H   UNL     1       4.887   4.090  15.680  0.00  0.00    +0.000 HD
ENDBRANCH   1   2
BRANCH   1   7
ATOM      7  C   UNL     1       5.463   6.568  17.048  0.00  0.00    +0.000 C 
ATOM      8  O   UNL     1       4.273   6.774  17.263  0.00  0.00    +0.000 OA
BRANCH   7   9
ATOM      9  O   UNL     1       6.397   7.540  16.857  0.00  0.00    +0.000 OA
BRANCH   9  11
ATOM     10  C   UNL     1       8.183   8.782  17.972  0.00  0.00    +0.000 C 
ATOM     11  C   UNL     1       7.621   7.421  17.588  0.00  0.00    +0.000 C 
ENDBRANCH   9  11
ENDBRANCH   7   9
ENDBRANCH   1   7
BRANCH   1  12
ATOM     12  C   UNL     1       5.782   4.385  18.348  0.00  0.00    +0.000 C 
BRANCH  12  13
ATOM     13  C   UNL     1       4.438   3.721  18.341  0.00  0.00    +0.000 A 
ATOM     14  C   UNL     1       4.075   2.667  17.524  0.00  0.00    +0.000 A 
ATOM     15  N   UNL     1       2.799   2.296  17.841  0.00  0.00    +0.000 N 
ATOM     16  C   UNL     1       2.298   3.115  18.824  0.00  0.00    +0.000 A 
ATOM     17  C   UNL     1       1.045   3.101  19.449  0.00  0.00    +0.000 A 
ATOM     18  C   UNL     1       0.783   4.095  20.395  0.00  0.00    +0.000 A 
ATOM     19  C   UNL     1       1.738   5.060  20.701  0.00  0.00    +0.000 A 
ATOM     20  C   UNL     1       2.995   5.044  20.085  0.00  0.00    +0.000 A 
ATOM     21  C   UNL     1       3.290   4.047  19.131  0.00  0.00    +0.000 A 
ATOM     22  H   UNL     1       2.288   1.543  17.405  0.00  0.00    +0.000 HD
ENDBRANCH  12  13
ENDBRANCH   1  12
TORSDOF 6
ENDMDL
MODEL 6
REMARK VINA RESULT:      -7.3      2.259      6.039
REMARK  Name = 
REMARK  8 active torsions:
REMARK  status: ('A' for Active; 'I' for Inactive)
REMARK    1  A    between atoms: C_1  and  C_2
REMARK    2  A    between atoms: C_2  and  O_3
REMARK    3  A    between atoms: O_3  and  C_4
REMARK    4  A    between atoms: C_4  and  C_6
REMARK    5  A    between atoms: C_6  and  C_7
REMARK    6  A    between atoms: C_6  and  N_17
REMARK    7  A    between atoms: C_7  and  C_8
REMARK    8  A    between atoms: C_18  and  C_19
REMARK                            x       y       z     vdW  Elec       q    Type
REMARK                         _______ _______ _______ _____ _____    ______ ____
ROOT
ATOM      1  C   UNL     1       4.268   4.650  18.037  0.00  0.00    +0.000 C 
ENDROOT
BRANCH   1   2
ATOM      2  N   UNL     1       3.174   5.624  18.113  0.00  0.00    +0.000 N 
ATOM      3  C   UNL     1       3.369   6.963  17.871  0.00  0.00    +0.000 C 
ATOM      4  C   UNL     1       2.147   7.816  18.066  0.00  0.00    +0.000 C 
ATOM      5  O   UNL     1       4.440   7.442  17.513  0.00  0.00    +0.000 OA
ATOM      6  H   UNL     1       2.337   5.339  18.609  0.00  0.00    +0.000 HD
ENDBRANCH   1   2
BRANCH   1   7
ATOM      7  C   UNL     1       4.192   3.655  19.207  0.00  0.00    +0.000 C 
ATOM      8  O   UNL     1       5.170   3.075  19.667  0.00  0.00    +0.000 OA
BRANCH   7   9
ATOM      9  O   UNL     1       2.931   3.571  19.712  0.00  0.00    +0.000 OA
BRANCH   9  11
ATOM     10  C   UNL     1       0.948   2.518  18.744  0.00  0.00    +0.000 C 
ATOM     11  C   UNL     1       2.237   2.333  19.533  0.00  0.00    +0.000 C 
ENDBRANCH   9  11
ENDBRANCH   7   9
ENDBRANCH   1   7
BRANCH   1  12
ATOM     12  C   UNL     1       4.448   3.952  16.676  0.00  0.00    +0.000 C 
BRANCH  12  13
ATOM     13  C   UNL     1       5.603   4.475  15.875  0.00  0.00    +0.000 A 
ATOM     14  C   UNL     1       6.596   5.306  16.358  0.00  0.00    +0.000 A 
ATOM     15  N   UNL     1       7.501   5.522  15.358  0.00  0.00    +0.000 N 
ATOM     16  C   UNL     1       7.100   4.884  14.209  0.00  0.00    +0.000 A 
ATOM     17  C   UNL     1       7.712   4.832  12.951  0.00  0.00    +0.000 A 
ATOM     18  C   UNL     1       7.049   4.138  11.936  0.00  0.00    +0.000 A 
ATOM     19  C   UNL     1       5.823   3.522  12.174  0.00  0.00    +0.000 A 
ATOM     20  C   UNL     1       5.237   3.563  13.445  0.00  0.00    +0.000 A 
ATOM     21  C   UNL     1       5.889   4.250  14.490  0.00  0.00    +0.000 A 
ATOM     22  H   UNL     1       8.334   6.085  15.439  0.00  0.00    +0.000 HD
ENDBRANCH  12  13
ENDBRANCH   1  12
TORSDOF 6
ENDMDL
MODEL 7
REMARK VINA RESULT:      -7.2      1.611      1.905
REMARK  Name = 
REMARK  8 active torsions:
REMARK  status: ('A' for Active; 'I' for Inactive)
REMARK    1  A    between atoms: C_1  and  C_2
REMARK    2  A    between atoms: C_2  and  O_3
REMARK    3  A    between atoms: O_3  and  C_4
REMARK    4  A    between atoms: C_4  and  C_6
REMARK    5  A    between atoms: C_6  and  C_7
REMARK    6  A    between atoms: C_6  and  N_17
REMARK    7  A    between atoms: C_7  and  C_8
REMARK    8  A    between atoms: C_18  and  C_19
REMARK                            x       y       z     vdW  Elec       q    Type
REMARK                         _______ _______ _______ _____ _____    ______ ____
ROOT
ATOM      1  C   UNL     1       6.417   5.797  17.264  0.00  0.00    +0.000 C 
ENDROOT
BRANCH   1   2
ATOM      2  N   UNL     1       6.921   7.166  17.113  0.00  0.00    +0.000 N 
ATOM      3  C   UNL     1       7.840   7.706  17.982  0.00  0.00    +0.000 C 
ATOM      4  C   UNL     1       8.184   9.145  17.710  0.00  0.00    +0.000 C 
ATOM      5  O   UNL     1       8.359   7.082  18.901  0.00  0.00    +0.000 OA
ATOM      6  H   UNL     1       6.382   7.793  16.528  0.00  0.00    +0.000 HD
ENDBRANCH   1   2
BRANCH   1   7
ATOM      7  C   UNL     1       7.467   4.776  16.794  0.00  0.00    +0.000 C 
ATOM      8  O   UNL     1       8.199   4.157  17.559  0.00  0.00    +0.000 OA
BRANCH   7   9
ATOM      9  O   UNL     1       7.418   4.589  15.447  0.00  0.00    +0.000 OA
BRANCH   9  11
ATOM     10  C   UNL     1       6.296   3.865  13.399  0.00  0.00    +0.000 C 
ATOM     11  C   UNL     1       6.207   4.050  14.907  0.00  0.00    +0.000 C 
ENDBRANCH   9  11
ENDBRANCH   7   9
ENDBRANCH   1   7
BRANCH   1  12
ATOM     12  C   UNL     1       5.829   5.450  18.643  0.00  0.00    +0.000 C 
BRANCH  12  13
ATOM     13  C   UNL     1       4.336   5.304  18.647  0.00  0.00    +0.000 A 
ATOM     14  C   UNL     1       3.434   6.351  18.667  0.00  0.00    +0.000 A 
ATOM     15  N   UNL     1       2.172   5.833  18.607  0.00  0.00    +0.000 N 
ATOM     16  C   UNL     1       2.223   4.460  18.592  0.00  0.00    +0.000 A 
ATOM     17  C   UNL     1       1.182   3.524  18.536  0.00  0.00    +0.000 A 
ATOM     18  C   UNL     1       1.526   2.171  18.582  0.00  0.00    +0.000 A 
ATOM     19  C   UNL     1       2.856   1.773  18.681  0.00  0.00    +0.000 A 
ATOM     20  C   UNL     1       3.886   2.722  18.712  0.00  0.00    +0.000 A 
ATOM     21  C   UNL     1       3.568   4.096  18.658  0.00  0.00    +0.000 A 
ATOM     22  H   UNL     1       1.321   6.375  18.596  0.00  0.00    +0.000 HD
ENDBRANCH  12  13
ENDBRANCH   1  12
TORSDOF 6
ENDMDL
MODEL 8
REMARK VINA RESULT:      -7.2      1.087      1.094
REMARK  Name = 
REMARK  8 active torsions:
REMARK  status: ('A' for Active; 'I' for Inactive)
REMARK    1  A    between atoms: C_1  and  C_2
REMARK    2  A    between atoms: C_2  and  O_3
REMARK    3  A    between atoms: O_3  and  C_4
REMARK    4  A    between atoms: C_4  and  C_6
REMARK    5  A    between atoms: C_6  and  C_7
REMARK    6  A    between atoms: C_6  and  N_17
REMARK    7  A    between atoms: C_7  and  C_8
REMARK    8  A    between atoms: C_18  and  C_19
REMARK                            x       y       z     vdW  Elec       q    Type
REMARK                         _______ _______ _______ _____ _____    ______ ____
ROOT
ATOM      1  C   UNL     1       5.450   5.409  15.924  0.00  0.00    +0.000 C 
ENDROOT
BRANCH   1   2
ATOM      2  N   UNL     1       6.105   6.619  16.435  0.00  0.00    +0.000 N 
ATOM      3  C   UNL     1       7.252   6.565  17.190  0.00  0.00    +0.000 C 
ATOM      4  C   UNL     1       7.737   7.900  17.684  0.00  0.00    +0.000 C 
ATOM      5  O   UNL     1       7.854   5.527  17.443  0.00  0.00    +0.000 OA
ATOM      6  H   UNL     1       5.553   7.468  16.453  0.00  0.00    +0.000 HD
ENDBRANCH   1   2
BRANCH   1   7
ATOM      7  C   UNL     1       6.088   4.965  14.597  0.00  0.00    +0.000 C 
ATOM      8  O   UNL     1       7.140   5.424  14.165  0.00  0.00    +0.000 OA
BRANCH   7   9
ATOM      9  O   UNL     1       5.389   3.950  14.019  0.00  0.00    +0.000 OA
BRANCH   9  11
ATOM     10  C   UNL     1       4.673   3.319  11.768  0.00  0.00    +0.000 C 
ATOM     11  C   UNL     1       5.834   3.499  12.736  0.00  0.00    +0.000 C 
ENDBRANCH   9  11
ENDBRANCH   7   9
ENDBRANCH   1   7
BRANCH   1  12
ATOM     12  C   UNL     1       5.306   4.253  16.929  0.00  0.00    +0.000 C 
BRANCH  12  13
ATOM     13  C   UNL     1       4.411   4.566  18.090  0.00  0.00    +0.000 A 
ATOM     14  C   UNL     1       4.660   5.527  19.051  0.00  0.00    +0.000 A 
ATOM     15  N   UNL     1       3.600   5.561  19.911  0.00  0.00    +0.000 N 
ATOM     16  C   UNL     1       2.673   4.609  19.561  0.00  0.00    +0.000 A 
ATOM     17  C   UNL     1       1.445   4.291  20.154  0.00  0.00    +0.000 A 
ATOM     18  C   UNL     1       0.719   3.230  19.609  0.00  0.00    +0.000 A 
ATOM     19  C   UNL     1       1.204   2.518  18.515  0.00  0.00    +0.000 A 
ATOM     20  C   UNL     1       2.422   2.866  17.919  0.00  0.00    +0.000 A 
ATOM     21  C   UNL     1       3.173   3.939  18.444  0.00  0.00    +0.000 A 
ATOM     22  H   UNL     1       3.514   6.180  20.703  0.00  0.00    +0.000 HD
ENDBRANCH  12  13
ENDBRANCH   1  12
TORSDOF 6
ENDMDL
MODEL 9
REMARK VINA RESULT:      -7.2      1.586      2.038
REMARK  Name = 
REMARK  8 active torsions:
REMARK  status: ('A' for Active; 'I' for Inactive)
REMARK    1  A    between atoms: C_1  and  C_2
REMARK    2  A    between atoms: C_2  and  O_3
REMARK    3  A    between atoms: O_3  and  C_4
REMARK    4  A    between atoms: C_4  and  C_6
REMARK    5  A    between atoms: C_6  and  C_7
REMARK    6  A    between atoms: C_6  and  N_17
REMARK    7  A    between atoms: C_7  and  C_8
REMARK    8  A    between atoms: C_18  and  C_19
REMARK                            x       y       z     vdW  Elec       q    Type
REMARK                         _______ _______ _______ _____ _____    ______ ____
ROOT
ATOM      1  C   UNL     1       5.237   6.051  17.039  0.00  0.00    +0.000 C 
ENDROOT
BRANCH   1   2
ATOM      2  N   UNL     1       6.114   6.994  17.743  0.00  0.00    +0.000 N 
ATOM      3  C   UNL     1       7.402   7.240  17.332  0.00  0.00    +0.000 C 
ATOM      4  C   UNL     1       8.169   8.182  18.218  0.00  0.00    +0.000 C 
ATOM      5  O   UNL     1       7.901   6.754  16.323  0.00  0.00    +0.000 OA
ATOM      6  H   UNL     1       5.849   7.251  18.687  0.00  0.00    +0.000 HD
ENDBRANCH   1   2
BRANCH   1   7
ATOM      7  C   UNL     1       5.548   4.604  17.459  0.00  0.00    +0.000 C 
ATOM      8  O   UNL     1       5.867   4.283  18.599  0.00  0.00    +0.000 OA
BRANCH   7   9
ATOM      9  O   UNL     1       5.339   3.730  16.437  0.00  0.00    +0.000 OA
BRANCH   9  11
ATOM     10  C   UNL     1       5.618   4.117  14.039  0.00  0.00    +0.000 C 
ATOM     11  C   UNL     1       6.280   3.749  15.359  0.00  0.00    +0.000 C 
ENDBRANCH   9  11
ENDBRANCH   7   9
ENDBRANCH   1   7
BRANCH   1  12
ATOM     12  C   UNL     1       3.733   6.372  17.089  0.00  0.00    +0.000 C 
BRANCH  12  13
ATOM     13  C   UNL     1       3.067   5.963  18.368  0.00  0.00    +0.000 A 
ATOM     14  C   UNL     1       3.068   6.700  19.537  0.00  0.00    +0.000 A 
ATOM     15  N   UNL     1       2.315   6.038  20.465  0.00  0.00    +0.000 N 
ATOM     16  C   UNL     1       1.853   4.854  19.942  0.00  0.00    +0.000 A 
ATOM     17  C   UNL     1       1.052   3.867  20.530  0.00  0.00    +0.000 A 
ATOM     18  C   UNL     1       0.770   2.727  19.773  0.00  0.00    +0.000 A 
ATOM     19  C   UNL     1       1.269   2.585  18.481  0.00  0.00    +0.000 A 
ATOM     20  C   UNL     1       2.048   3.594  17.900  0.00  0.00    +0.000 A 
ATOM     21  C   UNL     1       2.342   4.759  18.639  0.00  0.00    +0.000 A 
ATOM     22  H   UNL     1       2.139   6.357  21.405  0.00  0.00    +0.000 HD
ENDBRANCH  12  13
ENDBRANCH   1  12
TORSDOF 6
ENDMDL
