MODEL 1
REMARK VINA RESULT:      -7.7      0.000      0.000
REMARK  Name = 
REMARK  3 active torsions:
REMARK  status: ('A' for Active; 'I' for Inactive)
REMARK    1  A    between atoms: C_1  and  C_2
REMARK    2  A    between atoms: C_6  and  N_7
REMARK    3  A    between atoms: C_17  and  O_18
REMARK                            x       y       z     vdW  Elec       q    Type
REMARK                         _______ _______ _______ _____ _____    ______ ____
ROOT
ATOM      1  N   UNL     1       5.591   4.884  18.096  0.00  0.00    +0.000 N 
ATOM      2  C   UNL     1       6.904   5.163  18.486  0.00  0.00    +0.000 A 
ATOM      3  N   UNL     1       7.277   5.411  19.762  0.00  0.00    +0.000 N 
ATOM      4  N   UNL     1       7.746   5.128  17.485  0.00  0.00    +0.000 NA
ATOM      5  C   UNL     1       6.993   4.823  16.389  0.00  0.00    +0.000 A 
ATOM      6  C   UNL     1       7.413   4.689  15.055  0.00  0.00    +0.000 A 
ATOM      7  C   UNL     1       6.464   4.411  14.067  0.00  0.00    +0.000 A 
ATOM      8  C   UNL     1       5.118   4.282  14.399  0.00  0.00    +0.000 A 
ATOM      9  C   UNL     1       4.682   4.416  15.723  0.00  0.00    +0.000 A 
ATOM     10  C   UNL     1       5.648   4.662  16.716  0.00  0.00    +0.000 A 
ATOM     11  H   UNL     1       6.798   4.906  20.509  0.00  0.00    +0.000 HD
ATOM     12  H   UNL     1       8.287   5.381  19.898  0.00  0.00    +0.000 HD
ENDROOT
BRANCH   1  18
ATOM     13  C   UNL     1       2.530   2.512  21.302  0.00  0.00    +0.000 C 
ATOM     14  C   UNL     1       2.912   3.719  20.490  0.00  0.00    +0.000 A 
ATOM     15  C   UNL     1       2.105   4.863  20.520  0.00  0.00    +0.000 A 
ATOM     16  C   UNL     1       2.441   5.979  19.761  0.00  0.00    +0.000 A 
ATOM     17  C   UNL     1       3.585   5.961  18.961  0.00  0.00    +0.000 A 
ATOM     18  C   UNL     1       4.427   4.835  18.927  0.00  0.00    +0.000 A 
ATOM     19  C   UNL     1       4.079   3.713  19.702  0.00  0.00    +0.000 A 
BRANCH  19  20
ATOM     20  O   UNL     1       4.839   2.579  19.819  0.00  0.00    +0.000 OA
ATOM     21  H   UNL     1       5.789   2.793  19.886  0.00  0.00    +0.000 HD
ENDBRANCH  19  20
ENDBRANCH   1  18
TORSDOF 2
ENDMDL
MODEL 2
REMARK VINA RESULT:      -7.4      1.145      1.826
REMARK  Name = 
REMARK  3 active torsions:
REMARK  status: ('A' for Active; 'I' for Inactive)
REMARK    1  A    between atoms: C_1  and  C_2
REMARK    2  A    between atoms: C_6  and  N_7
REMARK    3  A    between atoms: C_17  and  O_18
REMARK                            x       y       z     vdW  Elec       q    Type
REMARK                         _______ _______ _______ _____ _____    ______ ____
ROOT
ATOM      1  N   UNL     1       5.707   4.586  18.187  0.00  0.00    +0.000 N 
ATOM      2  C   UNL     1       6.954   5.104  18.552  0.00  0.00    +0.000 A 
ATOM      3  N   UNL     1       7.323   5.359  19.828  0.00  0.00    +0.000 N 
ATOM      4  N   UNL     1       7.744   5.287  17.525  0.00  0.00    +0.000 NA
ATOM      5  C   UNL     1       7.022   4.892  16.437  0.00  0.00    +0.000 A 
ATOM      6  C   UNL     1       7.405   4.910  15.086  0.00  0.00    +0.000 A 
ATOM      7  C   UNL     1       6.490   4.496  14.113  0.00  0.00    +0.000 A 
ATOM      8  C   UNL     1       5.212   4.083  14.479  0.00  0.00    +0.000 A 
ATOM      9  C   UNL     1       4.812   4.062  15.820  0.00  0.00    +0.000 A 
ATOM     10  C   UNL     1       5.750   4.448  16.796  0.00  0.00    +0.000 A 
ATOM     11  H   UNL     1       6.984   4.733  20.559  0.00  0.00    +0.000 HD
ATOM     12  H   UNL     1       8.323   5.526  19.931  0.00  0.00    +0.000 HD
ENDROOT
BRANCH   1  18
ATOM     13  C   UNL     1       1.535   5.824  20.703  0.00  0.00    +0.000 C 
ATOM     14  C   UNL     1       2.578   4.824  20.288  0.00  0.00    +0.000 A 
ATOM     15  C   UNL     1       2.507   3.507  20.760  0.00  0.00    +0.000 A 
ATOM     16  C   UNL     1       3.475   2.578  20.394  0.00  0.00    +0.000 A 
ATOM     17  C   UNL     1       4.526   2.956  19.557  0.00  0.00    +0.000 A 
ATOM     18  C   UNL     1       4.612   4.265  19.049  0.00  0.00    +0.000 A 
ATOM     19  C   UNL     1       3.625   5.196  19.424  0.00  0.00    +0.000 A 
BRANCH  19  20
ATOM     20  O   UNL     1       3.544   6.479  18.952  0.00  0.00    +0.000 OA
ATOM     21  H   UNL     1       3.176   7.084  19.624  0.00  0.00    +0.000 HD
ENDBRANCH  19  20
ENDBRANCH   1  18
TORSDOF 2
ENDMDL
MODEL 3
REMARK VINA RESULT:      -7.2      2.688      3.883
REMARK  Name = 
REMARK  3 active torsions:
REMARK  status: ('A' for Active; 'I' for Inactive)
REMARK    1  A    between atoms: C_1  and  C_2
REMARK    2  A    between atoms: C_6  and  N_7
REMARK    3  A    between atoms: C_17  and  O_18
REMARK                            x       y       z     vdW  Elec       q    Type
REMARK                         _______ _______ _______ _____ _____    ______ ____
ROOT
ATOM      1  N   UNL     1       3.287   5.911  17.845  0.00  0.00    +0.000 N 
ATOM      2  C   UNL     1       2.751   4.630  17.677  0.00  0.00    +0.000 A 
ATOM      3  N   UNL     1       1.478   4.296  17.988  0.00  0.00    +0.000 N 
ATOM      4  N   UNL     1       3.607   3.790  17.154  0.00  0.00    +0.000 NA
ATOM      5  C   UNL     1       4.752   4.509  16.966  0.00  0.00    +0.000 A 
ATOM      6  C   UNL     1       5.982   4.067  16.452  0.00  0.00    +0.000 A 
ATOM      7  C   UNL     1       7.052   4.964  16.380  0.00  0.00    +0.000 A 
ATOM      8  C   UNL     1       6.902   6.275  16.822  0.00  0.00    +0.000 A 
ATOM      9  C   UNL     1       5.685   6.732  17.340  0.00  0.00    +0.000 A 
ATOM     10  C   UNL     1       4.603   5.831  17.379  0.00  0.00    +0.000 A 
ATOM     11  H   UNL     1       0.749   4.995  17.839  0.00  0.00    +0.000 HD
ATOM     12  H   UNL     1       1.195   3.394  17.607  0.00  0.00    +0.000 HD
ENDROOT
BRANCH   1  18
ATOM     13  C   UNL     1       1.069   8.399  21.608  0.00  0.00    +0.000 C 
ATOM     14  C   UNL     1       1.549   8.312  20.185  0.00  0.00    +0.000 A 
ATOM     15  C   UNL     1       1.350   9.391  19.316  0.00  0.00    +0.000 A 
ATOM     16  C   UNL     1       1.776   9.314  17.994  0.00  0.00    +0.000 A 
ATOM     17  C   UNL     1       2.400   8.156  17.527  0.00  0.00    +0.000 A 
ATOM     18  C   UNL     1       2.633   7.064  18.381  0.00  0.00    +0.000 A 
ATOM     19  C   UNL     1       2.200   7.154  19.719  0.00  0.00    +0.000 A 
BRANCH  19  20
ATOM     20  O   UNL     1       2.422   6.200  20.676  0.00  0.00    +0.000 OA
ATOM     21  H   UNL     1       3.130   5.584  20.407  0.00  0.00    +0.000 HD
ENDBRANCH  19  20
ENDBRANCH   1  18
TORSDOF 2
ENDMDL
MODEL 4
REMARK VINA RESULT:      -7.2      1.826      5.505
REMARK  Name = 
REMARK  3 active torsions:
REMARK  status: ('A' for Active; 'I' for Inactive)
REMARK    1  A    between atoms: C_1  and  C_2
REMARK    2  A    between atoms: C_6  and  N_7
REMARK    3  A    between atoms: C_17  and  O_18
REMARK                            x       y       z     vdW  Elec       q    Type
REMARK                         _______ _______ _______ _____ _____    ______ ____
ROOT
ATOM      1  N   UNL     1       4.387   4.101  18.985  0.00  0.00    +0.000 N 
ATOM      2  C   UNL     1       4.108   2.939  19.711  0.00  0.00    +0.000 A 
ATOM      3  N   UNL     1       4.794   1.781  19.579  0.00  0.00    +0.000 N 
ATOM      4  N   UNL     1       3.127   3.100  20.562  0.00  0.00    +0.000 NA
ATOM      5  C   UNL     1       2.724   4.394  20.411  0.00  0.00    +0.000 A 
ATOM      6  C   UNL     1       1.684   5.066  21.075  0.00  0.00    +0.000 A 
ATOM      7  C   UNL     1       1.406   6.394  20.738  0.00  0.00    +0.000 A 
ATOM      8  C   UNL     1       2.144   7.039  19.750  0.00  0.00    +0.000 A 
ATOM      9  C   UNL     1       3.181   6.385  19.075  0.00  0.00    +0.000 A 
ATOM     10  C   UNL     1       3.476   5.058  19.443  0.00  0.00    +0.000 A 
ATOM     11  H   UNL     1       5.796   1.836  19.392  0.00  0.00    +0.000 HD
ATOM     12  H   UNL     1       4.603   1.114  20.325  0.00  0.00    +0.000 HD
ENDROOT
BRANCH   1  18
ATOM     13  C   UNL     1       5.944   4.001  14.206  0.00  0.00    +0.000 C 
ATOM     14  C   UNL     1       6.190   4.246  15.669  0.00  0.00    +0.000 A 
ATOM     15  C   UNL     1       7.455   4.661  16.103  0.00  0.00    +0.000 A 
ATOM     16  C   UNL     1       7.696   4.876  17.456  0.00  0.00    +0.000 A 
ATOM     17  C   UNL     1       6.677   4.674  18.389  0.00  0.00    +0.000 A 
ATOM     18  C   UNL     1       5.391   4.280  17.981  0.00  0.00    +0.000 A 
ATOM     19  C   UNL     1       5.157   4.068  16.609  0.00  0.00    +0.000 A 
BRANCH  19  20
ATOM     20  O   UNL     1       3.940   3.751  16.065  0.00  0.00    +0.000 OA
ATOM     21  H   UNL     1       3.350   3.341  16.726  0.00  0.00    +0.000 HD
ENDBRANCH  19  20
ENDBRANCH   1  18
TORSDOF 2
ENDMDL
MODEL 5
REMARK VINA RESULT:      -7.1      2.908      4.398
REMARK  Name = 
REMARK  3 active torsions:
REMARK  status: ('A' for Active; 'I' for Inactive)
REMARK    1  A    between atoms: C_1  and  C_2
REMARK    2  A    between atoms: C_6  and  N_7
REMARK    3  A    between atoms: C_17  and  O_18
REMARK                            x       y       z     vdW  Elec       q    Type
REMARK                         _______ _______ _______ _____ _____    ______ ____
ROOT
ATOM      1  N   UNL     1       3.194   6.009  18.217  0.00  0.00    +0.000 N 
ATOM      2  C   UNL     1       4.503   5.890  17.741  0.00  0.00    +0.000 A 
ATOM      3  N   UNL     1       5.347   6.934  17.577  0.00  0.00    +0.000 N 
ATOM      4  N   UNL     1       4.839   4.649  17.497  0.00  0.00    +0.000 NA
ATOM      5  C   UNL     1       3.738   3.906  17.809  0.00  0.00    +0.000 A 
ATOM      6  C   UNL     1       3.567   2.517  17.705  0.00  0.00    +0.000 A 
ATOM      7  C   UNL     1       2.332   1.954  18.040  0.00  0.00    +0.000 A 
ATOM      8  C   UNL     1       1.282   2.764  18.462  0.00  0.00    +0.000 A 
ATOM      9  C   UNL     1       1.433   4.152  18.570  0.00  0.00    +0.000 A 
ATOM     10  C   UNL     1       2.689   4.706  18.261  0.00  0.00    +0.000 A 
ATOM     11  H   UNL     1       5.296   7.702  18.247  0.00  0.00    +0.000 HD
ATOM     12  H   UNL     1       6.314   6.649  17.430  0.00  0.00    +0.000 HD
ENDROOT
BRANCH   1  18
ATOM     13  C   UNL     1       0.772   8.889  21.552  0.00  0.00    +0.000 C 
ATOM     14  C   UNL     1       1.325   8.644  20.175  0.00  0.00    +0.000 A 
ATOM     15  C   UNL     1       1.169   9.615  19.178  0.00  0.00    +0.000 A 
ATOM     16  C   UNL     1       1.664   9.393  17.898  0.00  0.00    +0.000 A 
ATOM     17  C   UNL     1       2.316   8.195  17.599  0.00  0.00    +0.000 A 
ATOM     18  C   UNL     1       2.508   7.210  18.584  0.00  0.00    +0.000 A 
ATOM     19  C   UNL     1       2.005   7.448  19.878  0.00  0.00    +0.000 A 
BRANCH  19  20
ATOM     20  O   UNL     1       2.180   6.611  20.948  0.00  0.00    +0.000 OA
ATOM     21  H   UNL     1       2.711   5.828  20.705  0.00  0.00    +0.000 HD
ENDBRANCH  19  20
ENDBRANCH   1  18
TORSDOF 2
ENDMDL
MODEL 6
REMARK VINA RESULT:      -7.1      1.700      1.879
REMARK  Name = 
REMARK  3 active torsions:
REMARK  status: ('A' for Active; 'I' for Inactive)
REMARK    1  A    between atoms: C_1  and  C_2
REMARK    2  A    between atoms: C_6  and  N_7
REMARK    3  A    between atoms: C_17  and  O_18
REMARK                            x       y       z     vdW  Elec       q    Type
REMARK                         _______ _______ _______ _____ _____    ______ ____
ROOT
ATOM      1  N   UNL     1       5.509   5.079  16.362  0.00  0.00    +0.000 N 
ATOM      2  C   UNL     1       6.670   5.760  16.742  0.00  0.00    +0.000 A 
ATOM      3  N   UNL     1       6.851   6.327  17.956  0.00  0.00    +0.000 N 
ATOM      4  N   UNL     1       7.582   5.763  15.804  0.00  0.00    +0.000 NA
ATOM      5  C   UNL     1       7.032   5.076  14.761  0.00  0.00    +0.000 A 
ATOM      6  C   UNL     1       7.592   4.813  13.500  0.00  0.00    +0.000 A 
ATOM      7  C   UNL     1       6.837   4.120  12.550  0.00  0.00    +0.000 A 
ATOM      8  C   UNL     1       5.542   3.706  12.846  0.00  0.00    +0.000 A 
ATOM      9  C   UNL     1       4.966   3.961  14.097  0.00  0.00    +0.000 A 
ATOM     10  C   UNL     1       5.746   4.630  15.059  0.00  0.00    +0.000 A 
ATOM     11  H   UNL     1       6.446   5.860  18.769  0.00  0.00    +0.000 HD
ATOM     12  H   UNL     1       7.820   6.588  18.137  0.00  0.00    +0.000 HD
ENDROOT
BRANCH   1  18
ATOM     13  C   UNL     1       2.239   2.126  18.784  0.00  0.00    +0.000 C 
ATOM     14  C   UNL     1       2.709   3.481  18.329  0.00  0.00    +0.000 A 
ATOM     15  C   UNL     1       1.965   4.622  18.656  0.00  0.00    +0.000 A 
ATOM     16  C   UNL     1       2.383   5.877  18.228  0.00  0.00    +0.000 A 
ATOM     17  C   UNL     1       3.544   6.005  17.464  0.00  0.00    +0.000 A 
ATOM     18  C   UNL     1       4.323   4.881  17.138  0.00  0.00    +0.000 A 
ATOM     19  C   UNL     1       3.893   3.615  17.580  0.00  0.00    +0.000 A 
BRANCH  19  20
ATOM     20  O   UNL     1       4.586   2.448  17.397  0.00  0.00    +0.000 OA
ATOM     21  H   UNL     1       4.954   2.116  18.239  0.00  0.00    +0.000 HD
ENDBRANCH  19  20
ENDBRANCH   1  18
TORSDOF 2
ENDMDL
MODEL 7
REMARK VINA RESULT:      -7.0      2.154      2.754
REMARK  Name = 
REMARK  3 active torsions:
REMARK  status: ('A' for Active; 'I' for Inactive)
REMARK    1  A    between atoms: C_1  and  C_2
REMARK    2  A    between atoms: C_6  and  N_7
REMARK    3  A    between atoms: C_17  and  O_18
REMARK                            x       y       z     vdW  Elec       q    Type
REMARK                         _______ _______ _______ _____ _____    ______ ____
ROOT
ATOM      1  N   UNL     1       3.364   5.249  17.875  0.00  0.00    +0.000 N 
ATOM      2  C   UNL     1       3.309   6.644  17.943  0.00  0.00    +0.000 A 
ATOM      3  N   UNL     1       2.446   7.331  18.726  0.00  0.00    +0.000 N 
ATOM      4  N   UNL     1       4.209   7.221  17.188  0.00  0.00    +0.000 NA
ATOM      5  C   UNL     1       4.888   6.201  16.589  0.00  0.00    +0.000 A 
ATOM      6  C   UNL     1       5.941   6.281  15.663  0.00  0.00    +0.000 A 
ATOM      7  C   UNL     1       6.475   5.103  15.134  0.00  0.00    +0.000 A 
ATOM      8  C   UNL     1       5.962   3.866  15.512  0.00  0.00    +0.000 A 
ATOM      9  C   UNL     1       4.911   3.766  16.431  0.00  0.00    +0.000 A 
ATOM     10  C   UNL     1       4.401   4.956  16.984  0.00  0.00    +0.000 A 
ATOM     11  H   UNL     1       2.204   6.934  19.635  0.00  0.00    +0.000 HD
ATOM     12  H   UNL     1       2.684   8.318  18.816  0.00  0.00    +0.000 HD
ENDROOT
BRANCH   1  18
ATOM     13  C   UNL     1       1.791   2.985  22.080  0.00  0.00    +0.000 C 
ATOM     14  C   UNL     1       1.740   3.186  20.590  0.00  0.00    +0.000 A 
ATOM     15  C   UNL     1       0.855   2.425  19.815  0.00  0.00    +0.000 A 
ATOM     16  C   UNL     1       0.810   2.592  18.435  0.00  0.00    +0.000 A 
ATOM     17  C   UNL     1       1.653   3.518  17.815  0.00  0.00    +0.000 A 
ATOM     18  C   UNL     1       2.535   4.311  18.569  0.00  0.00    +0.000 A 
ATOM     19  C   UNL     1       2.570   4.135  19.966  0.00  0.00    +0.000 A 
BRANCH  19  20
ATOM     20  O   UNL     1       3.326   4.885  20.827  0.00  0.00    +0.000 OA
ATOM     21  H   UNL     1       3.010   4.798  21.747  0.00  0.00    +0.000 HD
ENDBRANCH  19  20
ENDBRANCH   1  18
TORSDOF 2
ENDMDL
MODEL 8
REMARK VINA RESULT:      -6.9      2.478      3.304
REMARK  Name = 
REMARK  3 active torsions:
REMARK  status: ('A' for Active; 'I' for Inactive)
REMARK    1  A    between atoms: C_1  and  C_2
REMARK    2  A    between atoms: C_6  and  N_7
REMARK    3  A    between atoms: C_17  and  O_18
REMARK                            x       y       z     vdW  Elec       q    Type
REMARK                         _______ _______ _______ _____ _____    ______ ____
ROOT
ATOM      1  N   UNL     1       3.749   5.461  18.196  0.00  0.00    +0.000 N 
ATOM      2  C   UNL     1       3.246   6.722  17.861  0.00  0.00    +0.000 A 
ATOM      3  N   UNL     1       1.937   7.056  17.921  0.00  0.00    +0.000 N 
ATOM      4  N   UNL     1       4.187   7.562  17.511  0.00  0.00    +0.000 NA
ATOM      5  C   UNL     1       5.353   6.860  17.604  0.00  0.00    +0.000 A 
ATOM      6  C   UNL     1       6.656   7.297  17.315  0.00  0.00    +0.000 A 
ATOM      7  C   UNL     1       7.719   6.397  17.437  0.00  0.00    +0.000 A 
ATOM      8  C   UNL     1       7.487   5.082  17.830  0.00  0.00    +0.000 A 
ATOM      9  C   UNL     1       6.194   4.629  18.119  0.00  0.00    +0.000 A 
ATOM     10  C   UNL     1       5.134   5.550  18.025  0.00  0.00    +0.000 A 
ATOM     11  H   UNL     1       1.373   6.650  18.669  0.00  0.00    +0.000 HD
ATOM     12  H   UNL     1       1.775   8.059  17.853  0.00  0.00    +0.000 HD
ENDROOT
BRANCH   1  18
ATOM     13  C   UNL     1       1.402   2.764  21.730  0.00  0.00    +0.000 C 
ATOM     14  C   UNL     1       1.853   2.971  20.310  0.00  0.00    +0.000 A 
ATOM     15  C   UNL     1       1.558   2.008  19.338  0.00  0.00    +0.000 A 
ATOM     16  C   UNL     1       1.984   2.182  18.026  0.00  0.00    +0.000 A 
ATOM     17  C   UNL     1       2.714   3.319  17.673  0.00  0.00    +0.000 A 
ATOM     18  C   UNL     1       3.007   4.314  18.623  0.00  0.00    +0.000 A 
ATOM     19  C   UNL     1       2.568   4.128  19.948  0.00  0.00    +0.000 A 
BRANCH  19  20
ATOM     20  O   UNL     1       2.721   5.043  20.956  0.00  0.00    +0.000 OA
ATOM     21  H   UNL     1       2.879   5.939  20.602  0.00  0.00    +0.000 HD
ENDBRANCH  19  20
ENDBRANCH   1  18
TORSDOF 2
ENDMDL
MODEL 9
REMARK VINA RESULT:      -6.9      2.255      3.139
REMARK  Name = 
REMARK  3 active torsions:
REMARK  status: ('A' for Active; 'I' for Inactive)
REMARK    1  A    between atoms: C_1  and  C_2
REMARK    2  A    between atoms: C_6  and  N_7
REMARK    3  A    between atoms: C_17  and  O_18
REMARK                            x       y       z     vdW  Elec       q    Type
REMARK                         _______ _______ _______ _____ _____    ______ ____
ROOT
ATOM      1  N   UNL     1       5.855   4.919  15.604  0.00  0.00    +0.000 N 
ATOM      2  C   UNL     1       7.049   5.631  15.753  0.00  0.00    +0.000 A 
ATOM      3  N   UNL     1       7.400   6.294  16.878  0.00  0.00    +0.000 N 
ATOM      4  N   UNL     1       7.813   5.561  14.693  0.00  0.00    +0.000 NA
ATOM      5  C   UNL     1       7.125   4.792  13.800  0.00  0.00    +0.000 A 
ATOM      6  C   UNL     1       7.497   4.430  12.495  0.00  0.00    +0.000 A 
ATOM      7  C   UNL     1       6.620   3.661  11.725  0.00  0.00    +0.000 A 
ATOM      8  C   UNL     1       5.389   3.269  12.242  0.00  0.00    +0.000 A 
ATOM      9  C   UNL     1       5.000   3.622  13.539  0.00  0.00    +0.000 A 
ATOM     10  C   UNL     1       5.903   4.368  14.320  0.00  0.00    +0.000 A 
ATOM     11  H   UNL     1       7.125   5.893  17.776  0.00  0.00    +0.000 HD
ATOM     12  H   UNL     1       8.380   6.571  16.893  0.00  0.00    +0.000 HD
ENDROOT
BRANCH   1  18
ATOM     13  C   UNL     1       2.453   6.851  18.763  0.00  0.00    +0.000 C 
ATOM     14  C   UNL     1       3.130   5.678  18.107  0.00  0.00    +0.000 A 
ATOM     15  C   UNL     1       2.737   4.375  18.434  0.00  0.00    +0.000 A 
ATOM     16  C   UNL     1       3.366   3.284  17.845  0.00  0.00    +0.000 A 
ATOM     17  C   UNL     1       4.397   3.484  16.926  0.00  0.00    +0.000 A 
ATOM     18  C   UNL     1       4.799   4.781  16.560  0.00  0.00    +0.000 A 
ATOM     19  C   UNL     1       4.153   5.878  17.161  0.00  0.00    +0.000 A 
BRANCH  19  20
ATOM     20  O   UNL     1       4.392   7.190  16.849  0.00  0.00    +0.000 OA
ATOM     21  H   UNL     1       4.510   7.732  17.653  0.00  0.00    +0.000 HD
ENDBRANCH  19  20
ENDBRANCH   1  18
TORSDOF 2
ENDMDL
