MODEL 1
REMARK VINA RESULT:      -9.3      0.000      0.000
REMARK  Name = 
REMARK  10 active torsions:
REMARK  status: ('A' for Active; 'I' for Inactive)
REMARK    1  A    between atoms: C_1  and  C_2
REMARK    2  A    between atoms: C_2  and  C_3
REMARK    3  A    between atoms: C_2  and  C_4
REMARK    4  A    between atoms: C_4  and  C_5
REMARK    5  A    between atoms: C_5  and  C_6
REMARK    6  A    between atoms: C_5  and  C_31
REMARK    7  A    between atoms: C_11  and  N_12
REMARK    8  A    between atoms: C_11  and  C_23
REMARK    9  A    between atoms: C_16  and  C_17
REMARK   10  A    between atoms: N_19  and  O_20
REMARK                            x       y       z     vdW  Elec       q    Type
REMARK                         _______ _______ _______ _____ _____    ______ ____
ROOT
ATOM      1  C   UNL     1       2.074   6.720  19.378  0.00  0.00    +0.000 C 
ATOM      2  O   UNL     1       1.801   6.033  20.375  0.00  0.00    +0.000 OA
ATOM      3  N   UNL     1       1.838   8.094  19.405  0.00  0.00    +0.000 N 
ATOM      4  C   UNL     1       1.332   8.704  20.637  0.00  0.00    +0.000 C 
ATOM      5  C   UNL     1       0.054   9.516  20.418  0.00  0.00    +0.000 C 
ATOM      6  C   UNL     1       0.080  10.504  19.215  0.00  0.00    +0.000 C 
ATOM      7  C   UNL     1       0.692   9.744  17.993  0.00  0.00    +0.000 C 
ATOM      8  C   UNL     1       2.024   9.054  18.322  0.00  0.00    +0.000 C 
ENDROOT
BRANCH   6   9
ATOM      9  N   UNL     1      -1.337  10.817  18.875  0.00  0.00    +0.000 N 
ATOM     10  C   UNL     1      -1.858  10.571  17.615  0.00  0.00    +0.000 A 
ATOM     11  N   UNL     1      -1.346   9.624  16.817  0.00  0.00    +0.000 NA
ATOM     12  C   UNL     1      -1.947   9.384  15.634  0.00  0.00    +0.000 A 
ATOM     13  C   UNL     1      -3.025  10.103  15.179  0.00  0.00    +0.000 A 
ATOM     14  C   UNL     1      -3.482  11.061  16.054  0.00  0.00    +0.000 A 
ATOM     15  N   UNL     1      -2.914  11.318  17.258  0.00  0.00    +0.000 NA
ATOM     16  H   UNL     1      -1.673  11.728  19.160  0.00  0.00    +0.000 HD
BRANCH  13  17
ATOM     17  C   UNL     1      -3.678   9.880  13.872  0.00  0.00    +0.000 C 
ATOM     18  O   UNL     1      -4.897   9.887  13.777  0.00  0.00    +0.000 OA
ATOM     19  N   UNL     1      -2.847   9.722  12.787  0.00  0.00    +0.000 N 
ATOM     20  H   UNL     1      -1.885  10.047  12.765  0.00  0.00    +0.000 HD
BRANCH  19  21
ATOM     21  O   UNL     1      -3.500   9.686  11.532  0.00  0.00    +0.000 OA
ATOM     22  H   UNL     1      -4.442   9.558  11.782  0.00  0.00    +0.000 HD
ENDBRANCH  19  21
ENDBRANCH  13  17
ENDBRANCH   6   9
BRANCH   6  23
ATOM     23  C   UNL     1       0.831  11.846  19.408  0.00  0.00    +0.000 A 
ATOM     24  C   UNL     1       1.515  12.500  18.373  0.00  0.00    +0.000 A 
ATOM     25  C   UNL     1       2.357  13.589  18.635  0.00  0.00    +0.000 A 
ATOM     26  C   UNL     1       2.537  14.044  19.938  0.00  0.00    +0.000 A 
ATOM     27  C   UNL     1       1.838  13.444  20.978  0.00  0.00    +0.000 A 
ATOM     28  C   UNL     1       0.981  12.371  20.713  0.00  0.00    +0.000 A 
ENDBRANCH   6  23
BRANCH   1  29
ATOM     29  C   UNL     1       2.671   5.974  18.153  0.00  0.00    +0.000 C 
BRANCH  29  30
ATOM     30  C   UNL     1       4.208   5.855  18.169  0.00  0.00    +0.000 A 
ATOM     31  C   UNL     1       4.898   5.226  19.226  0.00  0.00    +0.000 A 
ATOM     32  C   UNL     1       6.292   5.168  19.256  0.00  0.00    +0.000 A 
ATOM     33  C   UNL     1       7.025   5.723  18.219  0.00  0.00    +0.000 A 
ATOM     34  C   UNL     1       6.366   6.305  17.137  0.00  0.00    +0.000 A 
ATOM     35  C   UNL     1       4.968   6.357  17.103  0.00  0.00    +0.000 A 
ENDBRANCH  29  30
BRANCH  29  36
ATOM     36  C   UNL     1       1.988   4.630  17.804  0.00  0.00    +0.000 C 
BRANCH  36  38
ATOM     37  C   UNL     1       0.756   2.843  19.194  0.00  0.00    +0.000 C 
ATOM     38  C   UNL     1       2.100   3.402  18.720  0.00  0.00    +0.000 C 
ATOM     39  C   UNL     1       2.826   2.301  17.919  0.00  0.00    +0.000 C 
ENDBRANCH  36  38
ENDBRANCH  29  36
ENDBRANCH   1  29
TORSDOF 8
ENDMDL
MODEL 2
REMARK VINA RESULT:      -9.1      3.060      3.917
REMARK  Name = 
REMARK  10 active torsions:
REMARK  status: ('A' for Active; 'I' for Inactive)
REMARK    1  A    between atoms: C_1  and  C_2
REMARK    2  A    between atoms: C_2  and  C_3
REMARK    3  A    between atoms: C_2  and  C_4
REMARK    4  A    between atoms: C_4  and  C_5
REMARK    5  A    between atoms: C_5  and  C_6
REMARK    6  A    between atoms: C_5  and  C_31
REMARK    7  A    between atoms: C_11  and  N_12
REMARK    8  A    between atoms: C_11  and  C_23
REMARK    9  A    between atoms: C_16  and  C_17
REMARK   10  A    between atoms: N_19  and  O_20
REMARK                            x       y       z     vdW  Elec       q    Type
REMARK                         _______ _______ _______ _____ _____    ______ ____
ROOT
ATOM      1  C   UNL     1       2.032   6.594  19.236  0.00  0.00    +0.000 C 
ATOM      2  O   UNL     1       1.533   5.975  20.189  0.00  0.00    +0.000 OA
ATOM      3  N   UNL     1       2.015   7.988  19.236  0.00  0.00    +0.000 N 
ATOM      4  C   UNL     1       1.463   8.690  20.398  0.00  0.00    +0.000 C 
ATOM      5  C   UNL     1       0.366   9.689  20.024  0.00  0.00    +0.000 C 
ATOM      6  C   UNL     1       0.696  10.641  18.836  0.00  0.00    +0.000 C 
ATOM      7  C   UNL     1       1.327   9.774  17.698  0.00  0.00    +0.000 C 
ATOM      8  C   UNL     1       2.482   8.888  18.188  0.00  0.00    +0.000 C 
ENDROOT
BRANCH   6   9
ATOM      9  N   UNL     1      -0.601  11.166  18.323  0.00  0.00    +0.000 N 
ATOM     10  C   UNL     1      -1.575  11.664  19.173  0.00  0.00    +0.000 A 
ATOM     11  N   UNL     1      -1.265  12.173  20.374  0.00  0.00    +0.000 NA
ATOM     12  C   UNL     1      -2.252  12.709  21.120  0.00  0.00    +0.000 A 
ATOM     13  C   UNL     1      -3.570  12.708  20.736  0.00  0.00    +0.000 A 
ATOM     14  C   UNL     1      -3.803  12.160  19.496  0.00  0.00    +0.000 A 
ATOM     15  N   UNL     1      -2.834  11.627  18.711  0.00  0.00    +0.000 NA
ATOM     16  H   UNL     1      -1.074  10.591  17.637  0.00  0.00    +0.000 HD
BRANCH  13  17
ATOM     17  C   UNL     1      -4.672  13.261  21.552  0.00  0.00    +0.000 C 
ATOM     18  O   UNL     1      -4.887  14.464  21.573  0.00  0.00    +0.000 OA
ATOM     19  N   UNL     1      -5.454  12.352  22.227  0.00  0.00    +0.000 N 
ATOM     20  H   UNL     1      -5.527  11.373  21.967  0.00  0.00    +0.000 HD
BRANCH  19  21
ATOM     21  O   UNL     1      -6.600  12.897  22.854  0.00  0.00    +0.000 OA
ATOM     22  H   UNL     1      -6.246  13.214  23.714  0.00  0.00    +0.000 HD
ENDBRANCH  19  21
ENDBRANCH  13  17
ENDBRANCH   6   9
BRANCH   6  23
ATOM     23  C   UNL     1       1.620  11.851  19.124  0.00  0.00    +0.000 A 
ATOM     24  C   UNL     1       1.818  12.379  20.409  0.00  0.00    +0.000 A 
ATOM     25  C   UNL     1       2.484  13.597  20.597  0.00  0.00    +0.000 A 
ATOM     26  C   UNL     1       2.961  14.316  19.506  0.00  0.00    +0.000 A 
ATOM     27  C   UNL     1       2.820  13.796  18.226  0.00  0.00    +0.000 A 
ATOM     28  C   UNL     1       2.175  12.570  18.039  0.00  0.00    +0.000 A 
ENDBRANCH   6  23
BRANCH   1  29
ATOM     29  C   UNL     1       2.650   5.743  18.092  0.00  0.00    +0.000 C 
BRANCH  29  30
ATOM     30  C   UNL     1       4.189   5.666  18.120  0.00  0.00    +0.000 A 
ATOM     31  C   UNL     1       4.903   5.363  19.298  0.00  0.00    +0.000 A 
ATOM     32  C   UNL     1       6.298   5.346  19.324  0.00  0.00    +0.000 A 
ATOM     33  C   UNL     1       7.009   5.613  18.165  0.00  0.00    +0.000 A 
ATOM     34  C   UNL     1       6.329   5.864  16.975  0.00  0.00    +0.000 A 
ATOM     35  C   UNL     1       4.930   5.875  16.947  0.00  0.00    +0.000 A 
ENDBRANCH  29  30
BRANCH  29  36
ATOM     36  C   UNL     1       2.003   4.353  17.882  0.00  0.00    +0.000 C 
BRANCH  36  38
ATOM     37  C   UNL     1       1.259   2.431  19.430  0.00  0.00    +0.000 C 
ATOM     38  C   UNL     1       2.418   3.131  18.716  0.00  0.00    +0.000 C 
ATOM     39  C   UNL     1       3.072   2.121  17.749  0.00  0.00    +0.000 C 
ENDBRANCH  36  38
ENDBRANCH  29  36
ENDBRANCH   1  29
TORSDOF 8
ENDMDL
MODEL 3
REMARK VINA RESULT:      -9.1      0.335      1.176
REMARK  Name = 
REMARK  10 active torsions:
REMARK  status: ('A' for Active; 'I' for Inactive)
REMARK    1  A    between atoms: C_1  and  C_2
REMARK    2  A    between atoms: C_2  and  C_3
REMARK    3  A    between atoms: C_2  and  C_4
REMARK    4  A    between atoms: C_4  and  C_5
REMARK    5  A    between atoms: C_5  and  C_6
REMARK    6  A    between atoms: C_5  and  C_31
REMARK    7  A    between atoms: C_11  and  N_12
REMARK    8  A    between atoms: C_11  and  C_23
REMARK    9  A    between atoms: C_16  and  C_17
REMARK   10  A    between atoms: N_19  and  O_20
REMARK                            x       y       z     vdW  Elec       q    Type
REMARK                         _______ _______ _______ _____ _____    ______ ____
ROOT
ATOM      1  C   UNL     1       2.146   6.658  19.491  0.00  0.00    +0.000 C 
ATOM      2  O   UNL     1       1.837   5.927  20.445  0.00  0.00    +0.000 OA
ATOM      3  N   UNL     1       1.939   8.034  19.584  0.00  0.00    +0.000 N 
ATOM      4  C   UNL     1       1.420   8.590  20.836  0.00  0.00    +0.000 C 
ATOM      5  C   UNL     1       0.165   9.441  20.634  0.00  0.00    +0.000 C 
ATOM      6  C   UNL     1       0.238  10.490  19.485  0.00  0.00    +0.000 C 
ATOM      7  C   UNL     1       0.861   9.781  18.238  0.00  0.00    +0.000 C 
ATOM      8  C   UNL     1       2.170   9.044  18.557  0.00  0.00    +0.000 C 
ENDROOT
BRANCH   6   9
ATOM      9  N   UNL     1      -1.164  10.852  19.133  0.00  0.00    +0.000 N 
ATOM     10  C   UNL     1      -1.684  10.618  17.871  0.00  0.00    +0.000 A 
ATOM     11  N   UNL     1      -1.201   9.648  17.081  0.00  0.00    +0.000 NA
ATOM     12  C   UNL     1      -1.802   9.423  15.895  0.00  0.00    +0.000 A 
ATOM     13  C   UNL     1      -2.849  10.178  15.429  0.00  0.00    +0.000 A 
ATOM     14  C   UNL     1      -3.278  11.158  16.295  0.00  0.00    +0.000 A 
ATOM     15  N   UNL     1      -2.709  11.401  17.502  0.00  0.00    +0.000 NA
ATOM     16  H   UNL     1      -1.468  11.777  19.410  0.00  0.00    +0.000 HD
BRANCH  13  17
ATOM     17  C   UNL     1      -3.501   9.971  14.118  0.00  0.00    +0.000 C 
ATOM     18  O   UNL     1      -4.704  10.143  13.988  0.00  0.00    +0.000 OA
ATOM     19  N   UNL     1      -2.678   9.634  13.067  0.00  0.00    +0.000 N 
ATOM     20  H   UNL     1      -1.681   9.820  13.055  0.00  0.00    +0.000 HD
BRANCH  19  21
ATOM     21  O   UNL     1      -3.305   9.615  11.799  0.00  0.00    +0.000 OA
ATOM     22  H   UNL     1      -2.734   9.003  11.284  0.00  0.00    +0.000 HD
ENDBRANCH  19  21
ENDBRANCH  13  17
ENDBRANCH   6   9
BRANCH   6  23
ATOM     23  C   UNL     1       1.014  11.802  19.763  0.00  0.00    +0.000 A 
ATOM     24  C   UNL     1       0.885  12.536  20.952  0.00  0.00    +0.000 A 
ATOM     25  C   UNL     1       1.432  13.819  21.076  0.00  0.00    +0.000 A 
ATOM     26  C   UNL     1       2.117  14.400  20.012  0.00  0.00    +0.000 A 
ATOM     27  C   UNL     1       2.300  13.679  18.839  0.00  0.00    +0.000 A 
ATOM     28  C   UNL     1       1.772  12.390  18.723  0.00  0.00    +0.000 A 
ENDBRANCH   6  23
BRANCH   1  29
ATOM     29  C   UNL     1       2.753   5.963  18.240  0.00  0.00    +0.000 C 
BRANCH  29  30
ATOM     30  C   UNL     1       4.292   6.009  18.174  0.00  0.00    +0.000 A 
ATOM     31  C   UNL     1       4.978   6.636  17.113  0.00  0.00    +0.000 A 
ATOM     32  C   UNL     1       6.371   6.627  17.037  0.00  0.00    +0.000 A 
ATOM     33  C   UNL     1       7.110   6.007  18.031  0.00  0.00    +0.000 A 
ATOM     34  C   UNL     1       6.459   5.424  19.118  0.00  0.00    +0.000 A 
ATOM     35  C   UNL     1       5.062   5.438  19.198  0.00  0.00    +0.000 A 
ENDBRANCH  29  30
BRANCH  29  36
ATOM     36  C   UNL     1       2.201   4.550  17.939  0.00  0.00    +0.000 C 
BRANCH  36  38
ATOM     37  C   UNL     1       0.800   2.787  19.194  0.00  0.00    +0.000 C 
ATOM     38  C   UNL     1       2.168   3.447  19.009  0.00  0.00    +0.000 C 
ATOM     39  C   UNL     1       3.174   2.361  18.572  0.00  0.00    +0.000 C 
ENDBRANCH  36  38
ENDBRANCH  29  36
ENDBRANCH   1  29
TORSDOF 8
ENDMDL
MODEL 4
REMARK VINA RESULT:      -9.0      0.590      1.072
REMARK  Name = 
REMARK  10 active torsions:
REMARK  status: ('A' for Active; 'I' for Inactive)
REMARK    1  A    between atoms: C_1  and  C_2
REMARK    2  A    between atoms: C_2  and  C_3
REMARK    3  A    between atoms: C_2  and  C_4
REMARK    4  A    between atoms: C_4  and  C_5
REMARK    5  A    between atoms: C_5  and  C_6
REMARK    6  A    between atoms: C_5  and  C_31
REMARK    7  A    between atoms: C_11  and  N_12
REMARK    8  A    between atoms: C_11  and  C_23
REMARK    9  A    between atoms: C_16  and  C_17
REMARK   10  A    between atoms: N_19  and  O_20
REMARK                            x       y       z     vdW  Elec       q    Type
REMARK                         _______ _______ _______ _____ _____    ______ ____
ROOT
ATOM      1  C   UNL     1       2.010   6.591  19.523  0.00  0.00    +0.000 C 
ATOM      2  O   UNL     1       1.666   5.869  20.471  0.00  0.00    +0.000 OA
ATOM      3  N   UNL     1       1.830   7.971  19.608  0.00  0.00    +0.000 N 
ATOM      4  C   UNL     1       1.295   8.542  20.847  0.00  0.00    +0.000 C 
ATOM      5  C   UNL     1       0.062   9.417  20.615  0.00  0.00    +0.000 C 
ATOM      6  C   UNL     1       0.181  10.461  19.465  0.00  0.00    +0.000 C 
ATOM      7  C   UNL     1       0.816   9.736  18.234  0.00  0.00    +0.000 C 
ATOM      8  C   UNL     1       2.103   8.973  18.583  0.00  0.00    +0.000 C 
ENDROOT
BRANCH   6   9
ATOM      9  N   UNL     1      -1.205  10.850  19.081  0.00  0.00    +0.000 N 
ATOM     10  C   UNL     1      -1.707  10.611  17.813  0.00  0.00    +0.000 A 
ATOM     11  N   UNL     1      -1.232   9.620  17.045  0.00  0.00    +0.000 NA
ATOM     12  C   UNL     1      -1.815   9.393  15.851  0.00  0.00    +0.000 A 
ATOM     13  C   UNL     1      -2.836  10.165  15.355  0.00  0.00    +0.000 A 
ATOM     14  C   UNL     1      -3.258  11.166  16.200  0.00  0.00    +0.000 A 
ATOM     15  N   UNL     1      -2.707  11.412  17.414  0.00  0.00    +0.000 NA
ATOM     16  H   UNL     1      -1.493  11.786  19.341  0.00  0.00    +0.000 HD
BRANCH  13  17
ATOM     17  C   UNL     1      -3.467   9.956  14.035  0.00  0.00    +0.000 C 
ATOM     18  O   UNL     1      -2.781   9.826  13.031  0.00  0.00    +0.000 OA
ATOM     19  N   UNL     1      -4.840   9.863  14.016  0.00  0.00    +0.000 N 
ATOM     20  H   UNL     1      -5.397   9.622  14.830  0.00  0.00    +0.000 HD
BRANCH  19  21
ATOM     21  O   UNL     1      -5.399   9.489  12.771  0.00  0.00    +0.000 OA
ATOM     22  H   UNL     1      -6.234   9.043  13.033  0.00  0.00    +0.000 HD
ENDBRANCH  19  21
ENDBRANCH  13  17
ENDBRANCH   6   9
BRANCH   6  23
ATOM     23  C   UNL     1       0.978  11.758  19.757  0.00  0.00    +0.000 A 
ATOM     24  C   UNL     1       0.888  12.461  20.968  0.00  0.00    +0.000 A 
ATOM     25  C   UNL     1       1.451  13.735  21.110  0.00  0.00    +0.000 A 
ATOM     26  C   UNL     1       2.112  14.338  20.044  0.00  0.00    +0.000 A 
ATOM     27  C   UNL     1       2.256  13.647  18.847  0.00  0.00    +0.000 A 
ATOM     28  C   UNL     1       1.713  12.366  18.711  0.00  0.00    +0.000 A 
ENDBRANCH   6  23
BRANCH   1  29
ATOM     29  C   UNL     1       2.630   5.880  18.287  0.00  0.00    +0.000 C 
BRANCH  29  30
ATOM     30  C   UNL     1       4.171   5.863  18.273  0.00  0.00    +0.000 A 
ATOM     31  C   UNL     1       4.924   5.318  19.334  0.00  0.00    +0.000 A 
ATOM     32  C   UNL     1       6.318   5.352  19.334  0.00  0.00    +0.000 A 
ATOM     33  C   UNL     1       6.992   5.917  18.263  0.00  0.00    +0.000 A 
ATOM     34  C   UNL     1       6.273   6.417  17.177  0.00  0.00    +0.000 A 
ATOM     35  C   UNL     1       4.875   6.377  17.174  0.00  0.00    +0.000 A 
ENDBRANCH  29  30
BRANCH  29  36
ATOM     36  C   UNL     1       2.031   4.492  17.957  0.00  0.00    +0.000 C 
BRANCH  36  38
ATOM     37  C   UNL     1       1.209   2.530  19.411  0.00  0.00    +0.000 C 
ATOM     38  C   UNL     1       2.401   3.237  18.761  0.00  0.00    +0.000 C 
ATOM     39  C   UNL     1       3.073   2.252  17.782  0.00  0.00    +0.000 C 
ENDBRANCH  36  38
ENDBRANCH  29  36
ENDBRANCH   1  29
TORSDOF 8
ENDMDL
MODEL 5
REMARK VINA RESULT:      -8.9      2.775      3.777
REMARK  Name = 
REMARK  10 active torsions:
REMARK  status: ('A' for Active; 'I' for Inactive)
REMARK    1  A    between atoms: C_1  and  C_2
REMARK    2  A    between atoms: C_2  and  C_3
REMARK    3  A    between atoms: C_2  and  C_4
REMARK    4  A    between atoms: C_4  and  C_5
REMARK    5  A    between atoms: C_5  and  C_6
REMARK    6  A    between atoms: C_5  and  C_31
REMARK    7  A    between atoms: C_11  and  N_12
REMARK    8  A    between atoms: C_11  and  C_23
REMARK    9  A    between atoms: C_16  and  C_17
REMARK   10  A    between atoms: N_19  and  O_20
REMARK                            x       y       z     vdW  Elec       q    Type
REMARK                         _______ _______ _______ _____ _____    ______ ____
ROOT
ATOM      1  C   UNL     1       2.076   6.432  19.740  0.00  0.00    +0.000 C 
ATOM      2  O   UNL     1       1.511   5.919  20.719  0.00  0.00    +0.000 OA
ATOM      3  N   UNL     1       2.034   7.814  19.568  0.00  0.00    +0.000 N 
ATOM      4  C   UNL     1       1.377   8.637  20.587  0.00  0.00    +0.000 C 
ATOM      5  C   UNL     1       0.297   9.553  20.007  0.00  0.00    +0.000 C 
ATOM      6  C   UNL     1       0.708  10.363  18.742  0.00  0.00    +0.000 C 
ATOM      7  C   UNL     1       1.445   9.382  17.773  0.00  0.00    +0.000 C 
ATOM      8  C   UNL     1       2.571   8.594  18.458  0.00  0.00    +0.000 C 
ENDROOT
BRANCH   6   9
ATOM      9  N   UNL     1      -0.552  10.787  18.067  0.00  0.00    +0.000 N 
ATOM     10  C   UNL     1      -1.608  11.340  18.771  0.00  0.00    +0.000 A 
ATOM     11  N   UNL     1      -1.417  11.985  19.931  0.00  0.00    +0.000 NA
ATOM     12  C   UNL     1      -2.477  12.565  20.528  0.00  0.00    +0.000 A 
ATOM     13  C   UNL     1      -3.757  12.479  20.036  0.00  0.00    +0.000 A 
ATOM     14  C   UNL     1      -3.867  11.794  18.848  0.00  0.00    +0.000 A 
ATOM     15  N   UNL     1      -2.821  11.212  18.212  0.00  0.00    +0.000 NA
ATOM     16  H   UNL     1      -0.949  10.126  17.410  0.00  0.00    +0.000 HD
BRANCH  13  17
ATOM     17  C   UNL     1      -4.938  13.079  20.691  0.00  0.00    +0.000 C 
ATOM     18  O   UNL     1      -5.494  14.051  20.201  0.00  0.00    +0.000 OA
ATOM     19  N   UNL     1      -5.394  12.456  21.830  0.00  0.00    +0.000 N 
ATOM     20  H   UNL     1      -5.189  11.489  22.060  0.00  0.00    +0.000 HD
BRANCH  19  21
ATOM     21  O   UNL     1      -6.623  12.948  22.331  0.00  0.00    +0.000 OA
ATOM     22  H   UNL     1      -6.988  12.171  22.811  0.00  0.00    +0.000 HD
ENDBRANCH  19  21
ENDBRANCH  13  17
ENDBRANCH   6   9
BRANCH   6  23
ATOM     23  C   UNL     1       1.584  11.623  18.953  0.00  0.00    +0.000 A 
ATOM     24  C   UNL     1       1.679  12.298  20.179  0.00  0.00    +0.000 A 
ATOM     25  C   UNL     1       2.304  13.548  20.272  0.00  0.00    +0.000 A 
ATOM     26  C   UNL     1       2.843  14.154  19.141  0.00  0.00    +0.000 A 
ATOM     27  C   UNL     1       2.803  13.489  17.922  0.00  0.00    +0.000 A 
ATOM     28  C   UNL     1       2.199  12.231  17.833  0.00  0.00    +0.000 A 
ENDBRANCH   6  23
BRANCH   1  29
ATOM     29  C   UNL     1       2.801   5.466  18.762  0.00  0.00    +0.000 C 
BRANCH  29  30
ATOM     30  C   UNL     1       4.271   5.834  18.480  0.00  0.00    +0.000 A 
ATOM     31  C   UNL     1       4.647   6.613  17.366  0.00  0.00    +0.000 A 
ATOM     32  C   UNL     1       5.985   6.899  17.092  0.00  0.00    +0.000 A 
ATOM     33  C   UNL     1       6.975   6.426  17.937  0.00  0.00    +0.000 A 
ATOM     34  C   UNL     1       6.628   5.698  19.075  0.00  0.00    +0.000 A 
ATOM     35  C   UNL     1       5.286   5.417  19.353  0.00  0.00    +0.000 A 
ENDBRANCH  29  30
BRANCH  29  36
ATOM     36  C   UNL     1       2.631   3.960  19.076  0.00  0.00    +0.000 C 
BRANCH  36  38
ATOM     37  C   UNL     1       3.010   1.796  17.729  0.00  0.00    +0.000 C 
ATOM     38  C   UNL     1       2.080   2.972  18.036  0.00  0.00    +0.000 C 
ATOM     39  C   UNL     1       0.758   2.410  18.598  0.00  0.00    +0.000 C 
ENDBRANCH  36  38
ENDBRANCH  29  36
ENDBRANCH   1  29
TORSDOF 8
ENDMDL
MODEL 6
REMARK VINA RESULT:      -8.9      3.456      9.007
REMARK  Name = 
REMARK  10 active torsions:
REMARK  status: ('A' for Active; 'I' for Inactive)
REMARK    1  A    between atoms: C_1  and  C_2
REMARK    2  A    between atoms: C_2  and  C_3
REMARK    3  A    between atoms: C_2  and  C_4
REMARK    4  A    between atoms: C_4  and  C_5
REMARK    5  A    between atoms: C_5  and  C_6
REMARK    6  A    between atoms: C_5  and  C_31
REMARK    7  A    between atoms: C_11  and  N_12
REMARK    8  A    between atoms: C_11  and  C_23
REMARK    9  A    between atoms: C_16  and  C_17
REMARK   10  A    between atoms: N_19  and  O_20
REMARK                            x       y       z     vdW  Elec       q    Type
REMARK                         _______ _______ _______ _____ _____    ______ ____
ROOT
ATOM      1  C   UNL     1       0.910  10.087  20.356  0.00  0.00    +0.000 C 
ATOM      2  O   UNL     1       0.979  10.500  21.525  0.00  0.00    +0.000 OA
ATOM      3  N   UNL     1       1.081   8.728  20.097  0.00  0.00    +0.000 N 
ATOM      4  C   UNL     1       1.272   7.809  21.222  0.00  0.00    +0.000 C 
ATOM      5  C   UNL     1       2.534   6.955  21.084  0.00  0.00    +0.000 C 
ATOM      6  C   UNL     1       2.741   6.274  19.698  0.00  0.00    +0.000 C 
ATOM      7  C   UNL     1       2.449   7.345  18.598  0.00  0.00    +0.000 C 
ATOM      8  C   UNL     1       1.105   8.062  18.799  0.00  0.00    +0.000 C 
ENDROOT
BRANCH   6   9
ATOM      9  N   UNL     1       4.185   5.919  19.597  0.00  0.00    +0.000 N 
ATOM     10  C   UNL     1       4.789   5.658  18.378  0.00  0.00    +0.000 A 
ATOM     11  N   UNL     1       4.316   6.174  17.235  0.00  0.00    +0.000 NA
ATOM     12  C   UNL     1       4.995   5.943  16.093  0.00  0.00    +0.000 A 
ATOM     13  C   UNL     1       6.117   5.153  16.033  0.00  0.00    +0.000 A 
ATOM     14  C   UNL     1       6.531   4.655  17.248  0.00  0.00    +0.000 A 
ATOM     15  N   UNL     1       5.883   4.881  18.417  0.00  0.00    +0.000 NA
ATOM     16  H   UNL     1       4.518   5.218  20.247  0.00  0.00    +0.000 HD
BRANCH  13  17
ATOM     17  C   UNL     1       6.857   4.859  14.789  0.00  0.00    +0.000 C 
ATOM     18  O   UNL     1       6.526   3.923  14.075  0.00  0.00    +0.000 OA
ATOM     19  N   UNL     1       7.884   5.716  14.464  0.00  0.00    +0.000 N 
ATOM     20  H   UNL     1       7.959   6.662  14.825  0.00  0.00    +0.000 HD
BRANCH  19  21
ATOM     21  O   UNL     1       8.455   5.511  13.186  0.00  0.00    +0.000 OA
ATOM     22  H   UNL     1       8.122   4.619  12.941  0.00  0.00    +0.000 HD
ENDBRANCH  19  21
ENDBRANCH  13  17
ENDBRANCH   6   9
BRANCH   6  23
ATOM     23  C   UNL     1       1.914   4.998  19.398  0.00  0.00    +0.000 A 
ATOM     24  C   UNL     1       1.344   4.197  20.399  0.00  0.00    +0.000 A 
ATOM     25  C   UNL     1       0.794   2.944  20.099  0.00  0.00    +0.000 A 
ATOM     26  C   UNL     1       0.804   2.463  18.793  0.00  0.00    +0.000 A 
ATOM     27  C   UNL     1       1.321   3.254  17.774  0.00  0.00    +0.000 A 
ATOM     28  C   UNL     1       1.851   4.514  18.070  0.00  0.00    +0.000 A 
ENDBRANCH   6  23
BRANCH   1  29
ATOM     29  C   UNL     1       0.634  11.145  19.252  0.00  0.00    +0.000 C 
BRANCH  29  30
ATOM     30  C   UNL     1      -0.828  11.187  18.766  0.00  0.00    +0.000 A 
ATOM     31  C   UNL     1      -1.269  10.444  17.652  0.00  0.00    +0.000 A 
ATOM     32  C   UNL     1      -2.582  10.528  17.190  0.00  0.00    +0.000 A 
ATOM     33  C   UNL     1      -3.490  11.345  17.845  0.00  0.00    +0.000 A 
ATOM     34  C   UNL     1      -3.094  12.051  18.981  0.00  0.00    +0.000 A 
ATOM     35  C   UNL     1      -1.779  11.961  19.448  0.00  0.00    +0.000 A 
ENDBRANCH  29  30
BRANCH  29  36
ATOM     36  C   UNL     1       1.191  12.559  19.541  0.00  0.00    +0.000 C 
BRANCH  36  38
ATOM     37  C   UNL     1       0.545  14.947  18.819  0.00  0.00    +0.000 C 
ATOM     38  C   UNL     1       1.256  13.643  18.454  0.00  0.00    +0.000 C 
ATOM     39  C   UNL     1       2.748  13.956  18.214  0.00  0.00    +0.000 C 
ENDBRANCH  36  38
ENDBRANCH  29  36
ENDBRANCH   1  29
TORSDOF 8
ENDMDL
MODEL 7
REMARK VINA RESULT:      -8.8      3.280      8.946
REMARK  Name = 
REMARK  10 active torsions:
REMARK  status: ('A' for Active; 'I' for Inactive)
REMARK    1  A    between atoms: C_1  and  C_2
REMARK    2  A    between atoms: C_2  and  C_3
REMARK    3  A    between atoms: C_2  and  C_4
REMARK    4  A    between atoms: C_4  and  C_5
REMARK    5  A    between atoms: C_5  and  C_6
REMARK    6  A    between atoms: C_5  and  C_31
REMARK    7  A    between atoms: C_11  and  N_12
REMARK    8  A    between atoms: C_11  and  C_23
REMARK    9  A    between atoms: C_16  and  C_17
REMARK   10  A    between atoms: N_19  and  O_20
REMARK                            x       y       z     vdW  Elec       q    Type
REMARK                         _______ _______ _______ _____ _____    ______ ____
ROOT
ATOM      1  C   UNL     1       0.630  10.133  20.000  0.00  0.00    +0.000 C 
ATOM      2  O   UNL     1       0.665  10.630  21.137  0.00  0.00    +0.000 OA
ATOM      3  N   UNL     1       0.878   8.771  19.838  0.00  0.00    +0.000 N 
ATOM      4  C   UNL     1       1.109   7.945  21.026  0.00  0.00    +0.000 C 
ATOM      5  C   UNL     1       2.418   7.155  20.956  0.00  0.00    +0.000 C 
ATOM      6  C   UNL     1       2.675   6.391  19.623  0.00  0.00    +0.000 C 
ATOM      7  C   UNL     1       2.335   7.366  18.448  0.00  0.00    +0.000 C 
ATOM      8  C   UNL     1       0.952   8.018  18.590  0.00  0.00    +0.000 C 
ENDROOT
BRANCH   6   9
ATOM      9  N   UNL     1       4.138   6.111  19.554  0.00  0.00    +0.000 N 
ATOM     10  C   UNL     1       4.764   5.787  18.363  0.00  0.00    +0.000 A 
ATOM     11  N   UNL     1       4.272   6.182  17.180  0.00  0.00    +0.000 NA
ATOM     12  C   UNL     1       4.971   5.898  16.063  0.00  0.00    +0.000 A 
ATOM     13  C   UNL     1       6.136   5.171  16.070  0.00  0.00    +0.000 A 
ATOM     14  C   UNL     1       6.568   4.797  17.322  0.00  0.00    +0.000 A 
ATOM     15  N   UNL     1       5.900   5.080  18.468  0.00  0.00    +0.000 NA
ATOM     16  H   UNL     1       4.504   5.485  20.261  0.00  0.00    +0.000 HD
BRANCH  13  17
ATOM     17  C   UNL     1       6.901   4.819  14.856  0.00  0.00    +0.000 C 
ATOM     18  O   UNL     1       6.638   3.804  14.228  0.00  0.00    +0.000 OA
ATOM     19  N   UNL     1       7.868   5.713  14.456  0.00  0.00    +0.000 N 
ATOM     20  H   UNL     1       7.876   6.690  14.731  0.00  0.00    +0.000 HD
BRANCH  19  21
ATOM     21  O   UNL     1       8.458   5.435  13.200  0.00  0.00    +0.000 OA
ATOM     22  H   UNL     1       9.172   6.108  13.142  0.00  0.00    +0.000 HD
ENDBRANCH  19  21
ENDBRANCH  13  17
ENDBRANCH   6   9
BRANCH   6  23
ATOM     23  C   UNL     1       1.923   5.054  19.408  0.00  0.00    +0.000 A 
ATOM     24  C   UNL     1       1.531   4.214  20.461  0.00  0.00    +0.000 A 
ATOM     25  C   UNL     1       1.051   2.921  20.217  0.00  0.00    +0.000 A 
ATOM     26  C   UNL     1       0.956   2.438  18.915  0.00  0.00    +0.000 A 
ATOM     27  C   UNL     1       1.294   3.263  17.850  0.00  0.00    +0.000 A 
ATOM     28  C   UNL     1       1.753   4.561  18.093  0.00  0.00    +0.000 A 
ENDBRANCH   6  23
BRANCH   1  29
ATOM     29  C   UNL     1       0.307  11.094  18.823  0.00  0.00    +0.000 C 
BRANCH  29  30
ATOM     30  C   UNL     1      -1.152  11.023  18.329  0.00  0.00    +0.000 A 
ATOM     31  C   UNL     1      -2.169  11.832  18.877  0.00  0.00    +0.000 A 
ATOM     32  C   UNL     1      -3.495  11.724  18.458  0.00  0.00    +0.000 A 
ATOM     33  C   UNL     1      -3.830  10.815  17.467  0.00  0.00    +0.000 A 
ATOM     34  C   UNL     1      -2.836  10.039  16.872  0.00  0.00    +0.000 A 
ATOM     35  C   UNL     1      -1.505  10.152  17.288  0.00  0.00    +0.000 A 
ENDBRANCH  29  30
BRANCH  29  36
ATOM     36  C   UNL     1       0.784  12.554  19.014  0.00  0.00    +0.000 C 
BRANCH  36  38
ATOM     37  C   UNL     1       2.798  13.852  18.066  0.00  0.00    +0.000 C 
ATOM     38  C   UNL     1       2.272  12.909  19.150  0.00  0.00    +0.000 C 
ATOM     39  C   UNL     1       2.450  13.598  20.520  0.00  0.00    +0.000 C 
ENDBRANCH  36  38
ENDBRANCH  29  36
ENDBRANCH   1  29
TORSDOF 8
ENDMDL
MODEL 8
REMARK VINA RESULT:      -8.8      3.073      4.184
REMARK  Name = 
REMARK  10 active torsions:
REMARK  status: ('A' for Active; 'I' for Inactive)
REMARK    1  A    between atoms: C_1  and  C_2
REMARK    2  A    between atoms: C_2  and  C_3
REMARK    3  A    between atoms: C_2  and  C_4
REMARK    4  A    between atoms: C_4  and  C_5
REMARK    5  A    between atoms: C_5  and  C_6
REMARK    6  A    between atoms: C_5  and  C_31
REMARK    7  A    between atoms: C_11  and  N_12
REMARK    8  A    between atoms: C_11  and  C_23
REMARK    9  A    between atoms: C_16  and  C_17
REMARK   10  A    between atoms: N_19  and  O_20
REMARK                            x       y       z     vdW  Elec       q    Type
REMARK                         _______ _______ _______ _____ _____    ______ ____
ROOT
ATOM      1  C   UNL     1       1.911   6.928  19.367  0.00  0.00    +0.000 C 
ATOM      2  O   UNL     1       1.490   6.314  20.360  0.00  0.00    +0.000 OA
ATOM      3  N   UNL     1       1.860   8.321  19.348  0.00  0.00    +0.000 N 
ATOM      4  C   UNL     1       1.367   9.029  20.533  0.00  0.00    +0.000 C 
ATOM      5  C   UNL     1       0.224   9.995  20.215  0.00  0.00    +0.000 C 
ATOM      6  C   UNL     1       0.454  10.935  18.995  0.00  0.00    +0.000 C 
ATOM      7  C   UNL     1       1.031  10.065  17.831  0.00  0.00    +0.000 C 
ATOM      8  C   UNL     1       2.237   9.215  18.259  0.00  0.00    +0.000 C 
ENDROOT
BRANCH   6   9
ATOM      9  N   UNL     1      -0.886  11.421  18.559  0.00  0.00    +0.000 N 
ATOM     10  C   UNL     1      -1.841  11.843  19.469  0.00  0.00    +0.000 A 
ATOM     11  N   UNL     1      -1.501  12.320  20.674  0.00  0.00    +0.000 NA
ATOM     12  C   UNL     1      -2.475  12.785  21.483  0.00  0.00    +0.000 A 
ATOM     13  C   UNL     1      -3.808  12.740  21.156  0.00  0.00    +0.000 A 
ATOM     14  C   UNL     1      -4.072  12.228  19.906  0.00  0.00    +0.000 A 
ATOM     15  N   UNL     1      -3.118  11.768  19.060  0.00  0.00    +0.000 NA
ATOM     16  H   UNL     1      -1.364  10.852  17.872  0.00  0.00    +0.000 HD
BRANCH  13  17
ATOM     17  C   UNL     1      -4.894  13.212  22.040  0.00  0.00    +0.000 C 
ATOM     18  O   UNL     1      -6.040  13.303  21.622  0.00  0.00    +0.000 OA
ATOM     19  N   UNL     1      -4.553  13.484  23.345  0.00  0.00    +0.000 N 
ATOM     20  H   UNL     1      -3.730  13.102  23.800  0.00  0.00    +0.000 HD
BRANCH  19  21
ATOM     21  O   UNL     1      -5.643  13.763  24.203  0.00  0.00    +0.000 OA
ATOM     22  H   UNL     1      -5.293  14.488  24.769  0.00  0.00    +0.000 HD
ENDBRANCH  19  21
ENDBRANCH  13  17
ENDBRANCH   6   9
BRANCH   6  23
ATOM     23  C   UNL     1       1.364  12.171  19.205  0.00  0.00    +0.000 A 
ATOM     24  C   UNL     1       2.027  12.827  18.157  0.00  0.00    +0.000 A 
ATOM     25  C   UNL     1       3.005  13.797  18.411  0.00  0.00    +0.000 A 
ATOM     26  C   UNL     1       3.345  14.130  19.719  0.00  0.00    +0.000 A 
ATOM     27  C   UNL     1       2.674  13.530  20.777  0.00  0.00    +0.000 A 
ATOM     28  C   UNL     1       1.682  12.577  20.523  0.00  0.00    +0.000 A 
ENDBRANCH   6  23
BRANCH   1  29
ATOM     29  C   UNL     1       2.475   6.073  18.199  0.00  0.00    +0.000 C 
BRANCH  29  30
ATOM     30  C   UNL     1       4.012   5.945  18.190  0.00  0.00    +0.000 A 
ATOM     31  C   UNL     1       4.795   6.403  17.111  0.00  0.00    +0.000 A 
ATOM     32  C   UNL     1       6.180   6.237  17.091  0.00  0.00    +0.000 A 
ATOM     33  C   UNL     1       6.814   5.625  18.160  0.00  0.00    +0.000 A 
ATOM     34  C   UNL     1       6.069   5.210  19.263  0.00  0.00    +0.000 A 
ATOM     35  C   UNL     1       4.681   5.382  19.286  0.00  0.00    +0.000 A 
ENDBRANCH  29  30
BRANCH  29  36
ATOM     36  C   UNL     1       1.778   4.708  17.985  0.00  0.00    +0.000 C 
BRANCH  36  38
ATOM     37  C   UNL     1       1.004   2.887  19.635  0.00  0.00    +0.000 C 
ATOM     38  C   UNL     1       2.154   3.468  18.810  0.00  0.00    +0.000 C 
ATOM     39  C   UNL     1       2.631   2.388  17.816  0.00  0.00    +0.000 C 
ENDBRANCH  36  38
ENDBRANCH  29  36
ENDBRANCH   1  29
TORSDOF 8
ENDMDL
MODEL 9
REMARK VINA RESULT:      -8.7      3.267      4.320
REMARK  Name = 
REMARK  10 active torsions:
REMARK  status: ('A' for Active; 'I' for Inactive)
REMARK    1  A    between atoms: C_1  and  C_2
REMARK    2  A    between atoms: C_2  and  C_3
REMARK    3  A    between atoms: C_2  and  C_4
REMARK    4  A    between atoms: C_4  and  C_5
REMARK    5  A    between atoms: C_5  and  C_6
REMARK    6  A    between atoms: C_5  and  C_31
REMARK    7  A    between atoms: C_11  and  N_12
REMARK    8  A    between atoms: C_11  and  C_23
REMARK    9  A    between atoms: C_16  and  C_17
REMARK   10  A    between atoms: N_19  and  O_20
REMARK                            x       y       z     vdW  Elec       q    Type
REMARK                         _______ _______ _______ _____ _____    ______ ____
ROOT
ATOM      1  C   UNL     1       1.779   6.905  20.042  0.00  0.00    +0.000 C 
ATOM      2  O   UNL     1       1.357   6.440  21.113  0.00  0.00    +0.000 OA
ATOM      3  N   UNL     1       1.824   8.286  19.863  0.00  0.00    +0.000 N 
ATOM      4  C   UNL     1       1.432   9.159  20.973  0.00  0.00    +0.000 C 
ATOM      5  C   UNL     1       0.347  10.166  20.584  0.00  0.00    +0.000 C 
ATOM      6  C   UNL     1       0.591  10.941  19.256  0.00  0.00    +0.000 C 
ATOM      7  C   UNL     1       1.058   9.904  18.183  0.00  0.00    +0.000 C 
ATOM      8  C   UNL     1       2.217   9.021  18.665  0.00  0.00    +0.000 C 
ENDROOT
BRANCH   6   9
ATOM      9  N   UNL     1      -0.728  11.473  18.811  0.00  0.00    +0.000 N 
ATOM     10  C   UNL     1      -1.701  11.863  19.717  0.00  0.00    +0.000 A 
ATOM     11  N   UNL     1      -1.386  12.268  20.955  0.00  0.00    +0.000 NA
ATOM     12  C   UNL     1      -2.375  12.706  21.761  0.00  0.00    +0.000 A 
ATOM     13  C   UNL     1      -3.699  12.701  21.396  0.00  0.00    +0.000 A 
ATOM     14  C   UNL     1      -3.937  12.262  20.114  0.00  0.00    +0.000 A 
ATOM     15  N   UNL     1      -2.967  11.831  19.271  0.00  0.00    +0.000 NA
ATOM     16  H   UNL     1      -1.196  10.950  18.082  0.00  0.00    +0.000 HD
BRANCH  13  17
ATOM     17  C   UNL     1      -4.802  13.145  22.275  0.00  0.00    +0.000 C 
ATOM     18  O   UNL     1      -5.703  13.845  21.837  0.00  0.00    +0.000 OA
ATOM     19  N   UNL     1      -4.779  12.685  23.572  0.00  0.00    +0.000 N 
ATOM     20  H   UNL     1      -4.268  11.858  23.865  0.00  0.00    +0.000 HD
BRANCH  19  21
ATOM     21  O   UNL     1      -5.934  12.983  24.333  0.00  0.00    +0.000 OA
ATOM     22  H   UNL     1      -5.990  12.218  24.949  0.00  0.00    +0.000 HD
ENDBRANCH  19  21
ENDBRANCH  13  17
ENDBRANCH   6   9
BRANCH   6  23
ATOM     23  C   UNL     1       1.594  12.122  19.291  0.00  0.00    +0.000 A 
ATOM     24  C   UNL     1       1.949  12.796  20.470  0.00  0.00    +0.000 A 
ATOM     25  C   UNL     1       2.685  13.987  20.430  0.00  0.00    +0.000 A 
ATOM     26  C   UNL     1       3.078  14.533  19.212  0.00  0.00    +0.000 A 
ATOM     27  C   UNL     1       2.781  13.865  18.032  0.00  0.00    +0.000 A 
ATOM     28  C   UNL     1       2.065  12.664  18.072  0.00  0.00    +0.000 A 
ENDBRANCH   6  23
BRANCH   1  29
ATOM     29  C   UNL     1       2.233   5.883  18.962  0.00  0.00    +0.000 C 
BRANCH  29  30
ATOM     30  C   UNL     1       3.730   5.964  18.603  0.00  0.00    +0.000 A 
ATOM     31  C   UNL     1       4.725   5.366  19.403  0.00  0.00    +0.000 A 
ATOM     32  C   UNL     1       6.080   5.487  19.096  0.00  0.00    +0.000 A 
ATOM     33  C   UNL     1       6.469   6.195  17.970  0.00  0.00    +0.000 A 
ATOM     34  C   UNL     1       5.503   6.753  17.133  0.00  0.00    +0.000 A 
ATOM     35  C   UNL     1       4.143   6.625  17.437  0.00  0.00    +0.000 A 
ENDBRANCH  29  30
BRANCH  29  36
ATOM     36  C   UNL     1       1.770   4.426  19.199  0.00  0.00    +0.000 C 
BRANCH  36  38
ATOM     37  C   UNL     1       2.640   3.017  17.224  0.00  0.00    +0.000 C 
ATOM     38  C   UNL     1       1.429   3.484  18.034  0.00  0.00    +0.000 C 
ATOM     39  C   UNL     1       0.744   2.241  18.641  0.00  0.00    +0.000 C 
ENDBRANCH  36  38
ENDBRANCH  29  36
ENDBRANCH   1  29
TORSDOF 8
ENDMDL
