MODEL 1
REMARK VINA RESULT:      -8.0      0.000      0.000
REMARK  Name = 
REMARK  6 active torsions:
REMARK  status: ('A' for Active; 'I' for Inactive)
REMARK    1  A    between atoms: C_1  and  O_2
REMARK    2  A    between atoms: O_2  and  C_3
REMARK    3  A    between atoms: C_6  and  C_7
REMARK    4  A    between atoms: C_10  and  C_11
REMARK    5  A    between atoms: C_22  and  O_23
REMARK    6  A    between atoms: O_23  and  C_24
REMARK                            x       y       z     vdW  Elec       q    Type
REMARK                         _______ _______ _______ _____ _____    ______ ____
ROOT
ATOM      1  C   UNL     1       2.964   7.049  18.513  0.00  0.00    +0.000 A 
ATOM      2  N   UNL     1       2.571   6.819  19.747  0.00  0.00    +0.000 NA
ATOM      3  N   UNL     1       1.718   7.778  20.205  0.00  0.00    +0.000 NA
ATOM      4  C   UNL     1       1.483   8.737  19.324  0.00  0.00    +0.000 A 
ATOM      5  S   UNL     1       2.244   8.465  17.820  0.00  0.00    +0.000 S 
ENDROOT
BRANCH   4   6
ATOM      6  C   UNL     1       0.604   9.874  19.734  0.00  0.00    +0.000 A 
ATOM      7  C   UNL     1       0.193  10.749  18.749  0.00  0.00    +0.000 A 
ATOM      8  N   UNL     1      -0.450  11.780  19.336  0.00  0.00    +0.000 N 
ATOM      9  C   UNL     1      -0.726  11.465  20.642  0.00  0.00    +0.000 A 
ATOM     10  C   UNL     1      -1.551  12.147  21.539  0.00  0.00    +0.000 A 
ATOM     11  C   UNL     1      -1.697  11.615  22.807  0.00  0.00    +0.000 A 
ATOM     12  C   UNL     1      -0.978  10.486  23.189  0.00  0.00    +0.000 A 
ATOM     13  C   UNL     1      -0.115   9.830  22.288  0.00  0.00    +0.000 A 
ATOM     14  C   UNL     1      -0.017  10.293  20.959  0.00  0.00    +0.000 A 
ATOM     15  H   UNL     1      -0.737  12.625  18.870  0.00  0.00    +0.000 HD
ENDBRANCH   4   6
BRANCH   1  19
ATOM     16  C   UNL     1       5.600   4.501  16.272  0.00  0.00    +0.000 A 
ATOM     17  C   UNL     1       4.351   4.043  16.720  0.00  0.00    +0.000 A 
ATOM     18  C   UNL     1       3.516   4.876  17.461  0.00  0.00    +0.000 A 
ATOM     19  C   UNL     1       3.914   6.176  17.815  0.00  0.00    +0.000 A 
ATOM     20  C   UNL     1       5.203   6.579  17.458  0.00  0.00    +0.000 A 
ATOM     21  C   UNL     1       6.052   5.758  16.700  0.00  0.00    +0.000 A 
BRANCH  16  23
ATOM     22  C   UNL     1       6.208   3.968  14.067  0.00  0.00    +0.000 C 
ATOM     23  O   UNL     1       6.369   3.716  15.464  0.00  0.00    +0.000 OA
ENDBRANCH  16  23
BRANCH  21  24
ATOM     24  O   UNL     1       7.248   6.377  16.457  0.00  0.00    +0.000 OA
ATOM     25  C   UNL     1       7.726   7.344  17.374  0.00  0.00    +0.000 C 
ENDBRANCH  21  24
ENDBRANCH   1  19
TORSDOF 4
ENDMDL
MODEL 2
REMARK VINA RESULT:      -7.9      1.098      1.843
REMARK  Name = 
REMARK  6 active torsions:
REMARK  status: ('A' for Active; 'I' for Inactive)
REMARK    1  A    between atoms: C_1  and  O_2
REMARK    2  A    between atoms: O_2  and  C_3
REMARK    3  A    between atoms: C_6  and  C_7
REMARK    4  A    between atoms: C_10  and  C_11
REMARK    5  A    between atoms: C_22  and  O_23
REMARK    6  A    between atoms: O_23  and  C_24
REMARK                            x       y       z     vdW  Elec       q    Type
REMARK                         _______ _______ _______ _____ _____    ______ ____
ROOT
ATOM      1  C   UNL     1       3.029   7.012  18.537  0.00  0.00    +0.000 A 
ATOM      2  N   UNL     1       2.621   6.719  19.754  0.00  0.00    +0.000 NA
ATOM      3  N   UNL     1       1.730   7.631  20.235  0.00  0.00    +0.000 NA
ATOM      4  C   UNL     1       1.481   8.618  19.389  0.00  0.00    +0.000 A 
ATOM      5  S   UNL     1       2.276   8.432  17.889  0.00  0.00    +0.000 S 
ENDROOT
BRANCH   4   6
ATOM      6  C   UNL     1       0.559   9.709  19.828  0.00  0.00    +0.000 A 
ATOM      7  C   UNL     1       0.907  10.420  20.958  0.00  0.00    +0.000 A 
ATOM      8  N   UNL     1      -0.116  11.241  21.277  0.00  0.00    +0.000 N 
ATOM      9  C   UNL     1      -1.000  11.301  20.230  0.00  0.00    +0.000 A 
ATOM     10  C   UNL     1      -2.071  12.179  20.053  0.00  0.00    +0.000 A 
ATOM     11  C   UNL     1      -2.810  12.063  18.890  0.00  0.00    +0.000 A 
ATOM     12  C   UNL     1      -2.537  11.050  17.975  0.00  0.00    +0.000 A 
ATOM     13  C   UNL     1      -1.480  10.143  18.184  0.00  0.00    +0.000 A 
ATOM     14  C   UNL     1      -0.648  10.293  19.315  0.00  0.00    +0.000 A 
ATOM     15  H   UNL     1      -0.187  11.775  22.127  0.00  0.00    +0.000 HD
ENDBRANCH   4   6
BRANCH   1  19
ATOM     16  C   UNL     1       5.784   4.643  16.243  0.00  0.00    +0.000 A 
ATOM     17  C   UNL     1       4.537   4.131  16.638  0.00  0.00    +0.000 A 
ATOM     18  C   UNL     1       3.663   4.906  17.397  0.00  0.00    +0.000 A 
ATOM     19  C   UNL     1       4.018   6.197  17.822  0.00  0.00    +0.000 A 
ATOM     20  C   UNL     1       5.303   6.650  17.517  0.00  0.00    +0.000 A 
ATOM     21  C   UNL     1       6.192   5.888  16.742  0.00  0.00    +0.000 A 
BRANCH  16  23
ATOM     22  C   UNL     1       6.260   4.012  14.032  0.00  0.00    +0.000 C 
ATOM     23  O   UNL     1       6.592   3.918  15.419  0.00  0.00    +0.000 OA
ENDBRANCH  16  23
BRANCH  21  24
ATOM     24  O   UNL     1       7.376   6.549  16.559  0.00  0.00    +0.000 OA
ATOM     25  C   UNL     1       7.730   7.595  17.444  0.00  0.00    +0.000 C 
ENDBRANCH  21  24
ENDBRANCH   1  19
TORSDOF 4
ENDMDL
MODEL 3
REMARK VINA RESULT:      -7.7      1.078      2.059
REMARK  Name = 
REMARK  6 active torsions:
REMARK  status: ('A' for Active; 'I' for Inactive)
REMARK    1  A    between atoms: C_1  and  O_2
REMARK    2  A    between atoms: O_2  and  C_3
REMARK    3  A    between atoms: C_6  and  C_7
REMARK    4  A    between atoms: C_10  and  C_11
REMARK    5  A    between atoms: C_22  and  O_23
REMARK    6  A    between atoms: O_23  and  C_24
REMARK                            x       y       z     vdW  Elec       q    Type
REMARK                         _______ _______ _______ _____ _____    ______ ____
ROOT
ATOM      1  C   UNL     1       2.594   7.345  18.554  0.00  0.00    +0.000 A 
ATOM      2  N   UNL     1       2.281   7.158  19.818  0.00  0.00    +0.000 NA
ATOM      3  N   UNL     1       1.572   8.201  20.335  0.00  0.00    +0.000 NA
ATOM      4  C   UNL     1       1.366   9.177  19.466  0.00  0.00    +0.000 A 
ATOM      5  S   UNL     1       1.970   8.827  17.908  0.00  0.00    +0.000 S 
ENDROOT
BRANCH   4   6
ATOM      6  C   UNL     1       0.645  10.400  19.935  0.00  0.00    +0.000 A 
ATOM      7  C   UNL     1       0.535  11.453  19.050  0.00  0.00    +0.000 A 
ATOM      8  N   UNL     1       0.001  12.505  19.705  0.00  0.00    +0.000 N 
ATOM      9  C   UNL     1      -0.508  12.088  20.908  0.00  0.00    +0.000 A 
ATOM     10  C   UNL     1      -1.323  12.795  21.794  0.00  0.00    +0.000 A 
ATOM     11  C   UNL     1      -1.736  12.147  22.943  0.00  0.00    +0.000 A 
ATOM     12  C   UNL     1      -1.283  10.863  23.234  0.00  0.00    +0.000 A 
ATOM     13  C   UNL     1      -0.426  10.174  22.353  0.00  0.00    +0.000 A 
ATOM     14  C   UNL     1      -0.062  10.772  21.128  0.00  0.00    +0.000 A 
ATOM     15  H   UNL     1      -0.069  13.441  19.339  0.00  0.00    +0.000 HD
ENDBRANCH   4   6
BRANCH   1  19
ATOM     16  C   UNL     1       5.110   4.557  16.464  0.00  0.00    +0.000 A 
ATOM     17  C   UNL     1       5.309   5.943  16.353  0.00  0.00    +0.000 A 
ATOM     18  C   UNL     1       4.473   6.833  17.023  0.00  0.00    +0.000 A 
ATOM     19  C   UNL     1       3.389   6.376  17.789  0.00  0.00    +0.000 A 
ATOM     20  C   UNL     1       3.136   5.003  17.800  0.00  0.00    +0.000 A 
ATOM     21  C   UNL     1       3.975   4.090  17.143  0.00  0.00    +0.000 A 
BRANCH  16  23
ATOM     22  C   UNL     1       6.214   3.914  14.494  0.00  0.00    +0.000 C 
ATOM     23  O   UNL     1       5.989   3.690  15.887  0.00  0.00    +0.000 OA
ENDBRANCH  16  23
BRANCH  21  24
ATOM     24  O   UNL     1       3.536   2.805  17.316  0.00  0.00    +0.000 OA
ATOM     25  C   UNL     1       3.641   2.203  18.592  0.00  0.00    +0.000 C 
ENDBRANCH  21  24
ENDBRANCH   1  19
TORSDOF 4
ENDMDL
MODEL 4
REMARK VINA RESULT:      -7.7      1.691      2.880
REMARK  Name = 
REMARK  6 active torsions:
REMARK  status: ('A' for Active; 'I' for Inactive)
REMARK    1  A    between atoms: C_1  and  O_2
REMARK    2  A    between atoms: O_2  and  C_3
REMARK    3  A    between atoms: C_6  and  C_7
REMARK    4  A    between atoms: C_10  and  C_11
REMARK    5  A    between atoms: C_22  and  O_23
REMARK    6  A    between atoms: O_23  and  C_24
REMARK                            x       y       z     vdW  Elec       q    Type
REMARK                         _______ _______ _______ _____ _____    ______ ____
ROOT
ATOM      1  C   UNL     1       2.492   7.409  18.674  0.00  0.00    +0.000 A 
ATOM      2  N   UNL     1       2.154   8.578  18.173  0.00  0.00    +0.000 NA
ATOM      3  N   UNL     1       1.445   9.334  19.057  0.00  0.00    +0.000 NA
ATOM      4  C   UNL     1       1.234   8.730  20.215  0.00  0.00    +0.000 A 
ATOM      5  S   UNL     1       1.985   7.200  20.319  0.00  0.00    +0.000 S 
ENDROOT
BRANCH   4   6
ATOM      6  C   UNL     1       0.419   9.441  21.246  0.00  0.00    +0.000 A 
ATOM      7  C   UNL     1       0.626   9.103  22.567  0.00  0.00    +0.000 A 
ATOM      8  N   UNL     1      -0.303   9.730  23.319  0.00  0.00    +0.000 N 
ATOM      9  C   UNL     1      -0.929  10.692  22.568  0.00  0.00    +0.000 A 
ATOM     10  C   UNL     1      -1.792  11.700  23.000  0.00  0.00    +0.000 A 
ATOM     11  C   UNL     1      -2.280  12.578  22.050  0.00  0.00    +0.000 A 
ATOM     12  C   UNL     1      -1.979  12.403  20.703  0.00  0.00    +0.000 A 
ATOM     13  C   UNL     1      -1.140  11.356  20.272  0.00  0.00    +0.000 A 
ATOM     14  C   UNL     1      -0.551  10.500  21.226  0.00  0.00    +0.000 A 
ATOM     15  H   UNL     1      -0.469   9.559  24.297  0.00  0.00    +0.000 HD
ENDBRANCH   4   6
BRANCH   1  19
ATOM     16  C   UNL     1       4.842   4.505  16.551  0.00  0.00    +0.000 A 
ATOM     17  C   UNL     1       5.111   5.879  16.443  0.00  0.00    +0.000 A 
ATOM     18  C   UNL     1       4.327   6.808  17.124  0.00  0.00    +0.000 A 
ATOM     19  C   UNL     1       3.229   6.404  17.899  0.00  0.00    +0.000 A 
ATOM     20  C   UNL     1       2.906   5.045  17.908  0.00  0.00    +0.000 A 
ATOM     21  C   UNL     1       3.691   4.093  17.239  0.00  0.00    +0.000 A 
BRANCH  16  23
ATOM     22  C   UNL     1       6.239   4.028  14.725  0.00  0.00    +0.000 C 
ATOM     23  O   UNL     1       5.671   3.596  15.963  0.00  0.00    +0.000 OA
ENDBRANCH  16  23
BRANCH  21  24
ATOM     24  O   UNL     1       3.190   2.832  17.412  0.00  0.00    +0.000 OA
ATOM     25  C   UNL     1       1.955   2.663  18.082  0.00  0.00    +0.000 C 
ENDBRANCH  21  24
ENDBRANCH   1  19
TORSDOF 4
ENDMDL
MODEL 5
REMARK VINA RESULT:      -7.6      1.397      2.645
REMARK  Name = 
REMARK  6 active torsions:
REMARK  status: ('A' for Active; 'I' for Inactive)
REMARK    1  A    between atoms: C_1  and  O_2
REMARK    2  A    between atoms: O_2  and  C_3
REMARK    3  A    between atoms: C_6  and  C_7
REMARK    4  A    between atoms: C_10  and  C_11
REMARK    5  A    between atoms: C_22  and  O_23
REMARK    6  A    between atoms: O_23  and  C_24
REMARK                            x       y       z     vdW  Elec       q    Type
REMARK                         _______ _______ _______ _____ _____    ______ ____
ROOT
ATOM      1  C   UNL     1       2.667   7.140  18.594  0.00  0.00    +0.000 A 
ATOM      2  N   UNL     1       2.406   6.901  19.862  0.00  0.00    +0.000 NA
ATOM      3  N   UNL     1       1.613   7.861  20.417  0.00  0.00    +0.000 NA
ATOM      4  C   UNL     1       1.291   8.828  19.573  0.00  0.00    +0.000 A 
ATOM      5  S   UNL     1       1.885   8.566  17.994  0.00  0.00    +0.000 S 
ENDROOT
BRANCH   4   6
ATOM      6  C   UNL     1       0.468   9.966  20.084  0.00  0.00    +0.000 A 
ATOM      7  C   UNL     1       0.949  10.661  21.174  0.00  0.00    +0.000 A 
ATOM      8  N   UNL     1       0.001  11.534  21.576  0.00  0.00    +0.000 N 
ATOM      9  C   UNL     1      -0.968  11.636  20.610  0.00  0.00    +0.000 A 
ATOM     10  C   UNL     1      -2.004  12.567  20.522  0.00  0.00    +0.000 A 
ATOM     11  C   UNL     1      -2.848  12.485  19.430  0.00  0.00    +0.000 A 
ATOM     12  C   UNL     1      -2.708  11.458  18.501  0.00  0.00    +0.000 A 
ATOM     13  C   UNL     1      -1.683  10.498  18.623  0.00  0.00    +0.000 A 
ATOM     14  C   UNL     1      -0.749  10.609  19.675  0.00  0.00    +0.000 A 
ATOM     15  H   UNL     1       0.032  12.073  22.426  0.00  0.00    +0.000 HD
ENDBRANCH   4   6
BRANCH   1  19
ATOM     16  C   UNL     1       5.388   4.660  16.378  0.00  0.00    +0.000 A 
ATOM     17  C   UNL     1       5.397   6.057  16.238  0.00  0.00    +0.000 A 
ATOM     18  C   UNL     1       4.496   6.846  16.950  0.00  0.00    +0.000 A 
ATOM     19  C   UNL     1       3.531   6.268  17.791  0.00  0.00    +0.000 A 
ATOM     20  C   UNL     1       3.461   4.874  17.835  0.00  0.00    +0.000 A 
ATOM     21  C   UNL     1       4.369   4.064  17.135  0.00  0.00    +0.000 A 
BRANCH  16  23
ATOM     22  C   UNL     1       6.275   3.936  14.328  0.00  0.00    +0.000 C 
ATOM     23  O   UNL     1       6.335   3.903  15.755  0.00  0.00    +0.000 OA
ENDBRANCH  16  23
BRANCH  21  24
ATOM     24  O   UNL     1       4.114   2.737  17.352  0.00  0.00    +0.000 OA
ATOM     25  C   UNL     1       2.825   2.340  17.782  0.00  0.00    +0.000 C 
ENDBRANCH  21  24
ENDBRANCH   1  19
TORSDOF 4
ENDMDL
MODEL 6
REMARK VINA RESULT:      -7.6      3.605      8.959
REMARK  Name = 
REMARK  6 active torsions:
REMARK  status: ('A' for Active; 'I' for Inactive)
REMARK    1  A    between atoms: C_1  and  O_2
REMARK    2  A    between atoms: O_2  and  C_3
REMARK    3  A    between atoms: C_6  and  C_7
REMARK    4  A    between atoms: C_10  and  C_11
REMARK    5  A    between atoms: C_22  and  O_23
REMARK    6  A    between atoms: O_23  and  C_24
REMARK                            x       y       z     vdW  Elec       q    Type
REMARK                         _______ _______ _______ _____ _____    ______ ____
ROOT
ATOM      1  C   UNL     1       1.498   7.648  20.473  0.00  0.00    +0.000 A 
ATOM      2  N   UNL     1       1.549   6.477  21.070  0.00  0.00    +0.000 NA
ATOM      3  N   UNL     1       2.279   5.568  20.365  0.00  0.00    +0.000 NA
ATOM      4  C   UNL     1       2.762   6.049  19.231  0.00  0.00    +0.000 A 
ATOM      5  S   UNL     1       2.413   7.704  19.002  0.00  0.00    +0.000 S 
ENDROOT
BRANCH   4   6
ATOM      6  C   UNL     1       3.534   5.126  18.343  0.00  0.00    +0.000 A 
ATOM      7  C   UNL     1       3.405   3.771  18.567  0.00  0.00    +0.000 A 
ATOM      8  N   UNL     1       4.290   3.123  17.780  0.00  0.00    +0.000 N 
ATOM      9  C   UNL     1       4.790   3.989  16.841  0.00  0.00    +0.000 A 
ATOM     10  C   UNL     1       5.560   3.692  15.716  0.00  0.00    +0.000 A 
ATOM     11  C   UNL     1       5.926   4.741  14.894  0.00  0.00    +0.000 A 
ATOM     12  C   UNL     1       5.601   6.052  15.231  0.00  0.00    +0.000 A 
ATOM     13  C   UNL     1       4.859   6.345  16.393  0.00  0.00    +0.000 A 
ATOM     14  C   UNL     1       4.391   5.288  17.202  0.00  0.00    +0.000 A 
ATOM     15  H   UNL     1       4.503   2.141  17.835  0.00  0.00    +0.000 HD
ENDBRANCH   4   6
BRANCH   1  19
ATOM     16  C   UNL     1      -0.525  11.015  22.216  0.00  0.00    +0.000 A 
ATOM     17  C   UNL     1      -0.252   9.861  22.967  0.00  0.00    +0.000 A 
ATOM     18  C   UNL     1       0.389   8.771  22.382  0.00  0.00    +0.000 A 
ATOM     19  C   UNL     1       0.740   8.778  21.022  0.00  0.00    +0.000 A 
ATOM     20  C   UNL     1       0.363   9.887  20.261  0.00  0.00    +0.000 A 
ATOM     21  C   UNL     1      -0.270  10.999  20.837  0.00  0.00    +0.000 A 
BRANCH  16  23
ATOM     22  C   UNL     1      -2.455  12.004  23.116  0.00  0.00    +0.000 C 
ATOM     23  O   UNL     1      -1.062  12.114  22.818  0.00  0.00    +0.000 OA
ENDBRANCH  16  23
BRANCH  21  24
ATOM     24  O   UNL     1      -0.518  11.965  19.899  0.00  0.00    +0.000 OA
ATOM     25  C   UNL     1      -1.642  11.833  19.049  0.00  0.00    +0.000 C 
ENDBRANCH  21  24
ENDBRANCH   1  19
TORSDOF 4
ENDMDL
MODEL 7
REMARK VINA RESULT:      -7.6      1.394      1.944
REMARK  Name = 
REMARK  6 active torsions:
REMARK  status: ('A' for Active; 'I' for Inactive)
REMARK    1  A    between atoms: C_1  and  O_2
REMARK    2  A    between atoms: O_2  and  C_3
REMARK    3  A    between atoms: C_6  and  C_7
REMARK    4  A    between atoms: C_10  and  C_11
REMARK    5  A    between atoms: C_22  and  O_23
REMARK    6  A    between atoms: O_23  and  C_24
REMARK                            x       y       z     vdW  Elec       q    Type
REMARK                         _______ _______ _______ _____ _____    ______ ____
ROOT
ATOM      1  C   UNL     1       2.577   7.506  18.902  0.00  0.00    +0.000 A 
ATOM      2  N   UNL     1       2.128   7.361  20.131  0.00  0.00    +0.000 NA
ATOM      3  N   UNL     1       1.249   8.343  20.480  0.00  0.00    +0.000 NA
ATOM      4  C   UNL     1       1.051   9.234  19.523  0.00  0.00    +0.000 A 
ATOM      5  S   UNL     1       1.882   8.864  18.078  0.00  0.00    +0.000 S 
ENDROOT
BRANCH   4   6
ATOM      6  C   UNL     1       0.148  10.391  19.810  0.00  0.00    +0.000 A 
ATOM      7  C   UNL     1      -0.257  11.164  18.741  0.00  0.00    +0.000 A 
ATOM      8  N   UNL     1      -0.926  12.234  19.219  0.00  0.00    +0.000 N 
ATOM      9  C   UNL     1      -1.222  12.038  20.544  0.00  0.00    +0.000 A 
ATOM     10  C   UNL     1      -2.073  12.786  21.359  0.00  0.00    +0.000 A 
ATOM     11  C   UNL     1      -2.235  12.372  22.668  0.00  0.00    +0.000 A 
ATOM     12  C   UNL     1      -1.507  11.294  23.166  0.00  0.00    +0.000 A 
ATOM     13  C   UNL     1      -0.618  10.572  22.345  0.00  0.00    +0.000 A 
ATOM     14  C   UNL     1      -0.501  10.911  20.980  0.00  0.00    +0.000 A 
ATOM     15  H   UNL     1      -1.216  13.028  18.672  0.00  0.00    +0.000 HD
ENDBRANCH   4   6
BRANCH   1  19
ATOM     16  C   UNL     1       5.628   5.012  17.191  0.00  0.00    +0.000 A 
ATOM     17  C   UNL     1       5.071   6.080  16.469  0.00  0.00    +0.000 A 
ATOM     18  C   UNL     1       4.070   6.868  17.032  0.00  0.00    +0.000 A 
ATOM     19  C   UNL     1       3.562   6.593  18.312  0.00  0.00    +0.000 A 
ATOM     20  C   UNL     1       4.046   5.462  18.973  0.00  0.00    +0.000 A 
ATOM     21  C   UNL     1       5.065   4.665  18.427  0.00  0.00    +0.000 A 
BRANCH  16  23
ATOM     22  C   UNL     1       7.027   4.666  15.336  0.00  0.00    +0.000 C 
ATOM     23  O   UNL     1       6.675   4.307  16.674  0.00  0.00    +0.000 OA
ENDBRANCH  16  23
BRANCH  21  24
ATOM     24  O   UNL     1       5.385   3.632  19.266  0.00  0.00    +0.000 OA
ATOM     25  C   UNL     1       4.371   2.735  19.679  0.00  0.00    +0.000 C 
ENDBRANCH  21  24
ENDBRANCH   1  19
TORSDOF 4
ENDMDL
MODEL 8
REMARK VINA RESULT:      -7.5      3.669      8.989
REMARK  Name = 
REMARK  6 active torsions:
REMARK  status: ('A' for Active; 'I' for Inactive)
REMARK    1  A    between atoms: C_1  and  O_2
REMARK    2  A    between atoms: O_2  and  C_3
REMARK    3  A    between atoms: C_6  and  C_7
REMARK    4  A    between atoms: C_10  and  C_11
REMARK    5  A    between atoms: C_22  and  O_23
REMARK    6  A    between atoms: O_23  and  C_24
REMARK                            x       y       z     vdW  Elec       q    Type
REMARK                         _______ _______ _______ _____ _____    ______ ____
ROOT
ATOM      1  C   UNL     1       1.725   8.323  19.389  0.00  0.00    +0.000 A 
ATOM      2  N   UNL     1       1.857   7.377  20.294  0.00  0.00    +0.000 NA
ATOM      3  N   UNL     1       2.609   6.332  19.844  0.00  0.00    +0.000 NA
ATOM      4  C   UNL     1       3.026   6.485  18.597  0.00  0.00    +0.000 A 
ATOM      5  S   UNL     1       2.584   7.989  17.921  0.00  0.00    +0.000 S 
ENDROOT
BRANCH   4   6
ATOM      6  C   UNL     1       3.814   5.377  17.976  0.00  0.00    +0.000 A 
ATOM      7  C   UNL     1       3.677   4.116  18.518  0.00  0.00    +0.000 A 
ATOM      8  N   UNL     1       4.576   3.299  17.929  0.00  0.00    +0.000 N 
ATOM      9  C   UNL     1       5.097   3.913  16.819  0.00  0.00    +0.000 A 
ATOM     10  C   UNL     1       5.890   3.354  15.815  0.00  0.00    +0.000 A 
ATOM     11  C   UNL     1       6.275   4.175  14.771  0.00  0.00    +0.000 A 
ATOM     12  C   UNL     1       5.946   5.528  14.775  0.00  0.00    +0.000 A 
ATOM     13  C   UNL     1       5.182   6.091  15.815  0.00  0.00    +0.000 A 
ATOM     14  C   UNL     1       4.694   5.260  16.847  0.00  0.00    +0.000 A 
ATOM     15  H   UNL     1       4.786   2.359  18.224  0.00  0.00    +0.000 HD
ENDBRANCH   4   6
BRANCH   1  19
ATOM     16  C   UNL     1      -0.804  11.740  20.015  0.00  0.00    +0.000 A 
ATOM     17  C   UNL     1      -0.500  11.286  18.722  0.00  0.00    +0.000 A 
ATOM     18  C   UNL     1       0.336  10.188  18.536  0.00  0.00    +0.000 A 
ATOM     19  C   UNL     1       0.929   9.532  19.627  0.00  0.00    +0.000 A 
ATOM     20  C   UNL     1       0.707  10.062  20.900  0.00  0.00    +0.000 A 
ATOM     21  C   UNL     1      -0.143  11.160  21.108  0.00  0.00    +0.000 A 
BRANCH  16  23
ATOM     22  C   UNL     1      -3.039  12.431  19.809  0.00  0.00    +0.000 C 
ATOM     23  O   UNL     1      -1.700  12.752  20.194  0.00  0.00    +0.000 OA
ENDBRANCH  16  23
BRANCH  21  24
ATOM     24  O   UNL     1      -0.219  11.479  22.436  0.00  0.00    +0.000 OA
ATOM     25  C   UNL     1      -1.321  11.022  23.197  0.00  0.00    +0.000 C 
ENDBRANCH  21  24
ENDBRANCH   1  19
TORSDOF 4
ENDMDL
MODEL 9
REMARK VINA RESULT:      -7.4      3.730      9.065
REMARK  Name = 
REMARK  6 active torsions:
REMARK  status: ('A' for Active; 'I' for Inactive)
REMARK    1  A    between atoms: C_1  and  O_2
REMARK    2  A    between atoms: O_2  and  C_3
REMARK    3  A    between atoms: C_6  and  C_7
REMARK    4  A    between atoms: C_10  and  C_11
REMARK    5  A    between atoms: C_22  and  O_23
REMARK    6  A    between atoms: O_23  and  C_24
REMARK                            x       y       z     vdW  Elec       q    Type
REMARK                         _______ _______ _______ _____ _____    ______ ____
ROOT
ATOM      1  C   UNL     1       1.470   8.459  19.748  0.00  0.00    +0.000 A 
ATOM      2  N   UNL     1       1.858   8.809  18.540  0.00  0.00    +0.000 NA
ATOM      3  N   UNL     1       2.591   7.836  17.929  0.00  0.00    +0.000 NA
ATOM      4  C   UNL     1       2.768   6.762  18.682  0.00  0.00    +0.000 A 
ATOM      5  S   UNL     1       1.956   6.853  20.181  0.00  0.00    +0.000 S 
ENDROOT
BRANCH   4   6
ATOM      6  C   UNL     1       3.603   5.648  18.138  0.00  0.00    +0.000 A 
ATOM      7  C   UNL     1       3.478   4.409  18.732  0.00  0.00    +0.000 A 
ATOM      8  N   UNL     1       4.416   3.591  18.212  0.00  0.00    +0.000 N 
ATOM      9  C   UNL     1       4.962   4.167  17.094  0.00  0.00    +0.000 A 
ATOM     10  C   UNL     1       5.802   3.585  16.144  0.00  0.00    +0.000 A 
ATOM     11  C   UNL     1       6.204   4.368  15.077  0.00  0.00    +0.000 A 
ATOM     12  C   UNL     1       5.842   5.710  15.008  0.00  0.00    +0.000 A 
ATOM     13  C   UNL     1       5.028   6.299  15.995  0.00  0.00    +0.000 A 
ATOM     14  C   UNL     1       4.525   5.504  17.046  0.00  0.00    +0.000 A 
ATOM     15  H   UNL     1       4.639   2.671  18.557  0.00  0.00    +0.000 HD
ENDBRANCH   4   6
BRANCH   1  19
ATOM     16  C   UNL     1      -0.582  11.124  22.421  0.00  0.00    +0.000 A 
ATOM     17  C   UNL     1      -0.167   9.850  22.840  0.00  0.00    +0.000 A 
ATOM     18  C   UNL     1       0.481   8.991  21.955  0.00  0.00    +0.000 A 
ATOM     19  C   UNL     1       0.700   9.355  20.617  0.00  0.00    +0.000 A 
ATOM     20  C   UNL     1       0.184  10.580  20.186  0.00  0.00    +0.000 A 
ATOM     21  C   UNL     1      -0.460  11.463  21.066  0.00  0.00    +0.000 A 
BRANCH  16  23
ATOM     22  C   UNL     1      -2.554  12.004  23.343  0.00  0.00    +0.000 C 
ATOM     23  O   UNL     1      -1.126  11.996  23.317  0.00  0.00    +0.000 OA
ENDBRANCH  16  23
BRANCH  21  24
ATOM     24  O   UNL     1      -0.856  12.602  20.419  0.00  0.00    +0.000 OA
ATOM     25  C   UNL     1      -0.703  12.690  19.014  0.00  0.00    +0.000 C 
ENDBRANCH  21  24
ENDBRANCH   1  19
TORSDOF 4
ENDMDL
