MODEL 1
REMARK VINA RESULT:      -7.4      0.000      0.000
REMARK  Name = 
REMARK  5 active torsions:
REMARK  status: ('A' for Active; 'I' for Inactive)
REMARK    1  A    between atoms: C_1  and  O_2
REMARK    2  A    between atoms: O_2  and  C_3
REMARK    3  A    between atoms: C_6  and  C_7
REMARK    4  A    between atoms: C_7  and  N_9
REMARK    5  A    between atoms: N_18  and  C_19
REMARK                            x       y       z     vdW  Elec       q    Type
REMARK                         _______ _______ _______ _____ _____    ______ ____
ROOT
ATOM      1  N   UNL     1       5.364   6.494  17.173  0.00  0.00    +0.000 NA
ATOM      2  C   UNL     1       4.713   5.787  18.044  0.00  0.00    +0.000 A 
ATOM      3  S   UNL     1       5.382   4.419  18.991  0.00  0.00    +0.000 S 
ATOM      4  C   UNL     1       3.762   3.995  19.572  0.00  0.00    +0.000 A 
ATOM      5  C   UNL     1       3.414   2.881  20.319  0.00  0.00    +0.000 A 
ATOM      6  C   UNL     1       2.065   2.652  20.571  0.00  0.00    +0.000 A 
ATOM      7  C   UNL     1       1.098   3.536  20.075  0.00  0.00    +0.000 A 
ATOM      8  C   UNL     1       1.472   4.683  19.361  0.00  0.00    +0.000 A 
ATOM      9  C   UNL     1       2.819   4.934  19.122  0.00  0.00    +0.000 A 
ATOM     10  N   UNL     1       3.379   5.986  18.387  0.00  0.00    +0.000 N 
ATOM     11  C   UNL     1       2.728   7.273  18.285  0.00  0.00    +0.000 C 
ENDROOT
BRANCH   1  12
ATOM     12  C   UNL     1       6.520   5.962  16.638  0.00  0.00    +0.000 C 
ATOM     13  O   UNL     1       7.610   5.947  17.212  0.00  0.00    +0.000 OA
BRANCH  12  17
ATOM     14  C   UNL     1       6.045   3.740  13.002  0.00  0.00    +0.000 A 
ATOM     15  C   UNL     1       5.083   3.680  14.009  0.00  0.00    +0.000 A 
ATOM     16  C   UNL     1       5.262   4.392  15.191  0.00  0.00    +0.000 A 
ATOM     17  C   UNL     1       6.409   5.183  15.372  0.00  0.00    +0.000 A 
ATOM     18  C   UNL     1       7.390   5.220  14.379  0.00  0.00    +0.000 A 
ATOM     19  C   UNL     1       7.202   4.494  13.193  0.00  0.00    +0.000 A 
BRANCH  14  21
ATOM     20  C   UNL     1       4.424   3.094  11.413  0.00  0.00    +0.000 C 
ATOM     21  O   UNL     1       5.759   2.996  11.886  0.00  0.00    +0.000 OA
ENDBRANCH  14  21
ENDBRANCH  12  17
ENDBRANCH   1  12
TORSDOF 3
ENDMDL
MODEL 2
REMARK VINA RESULT:      -7.3      0.417      1.131
REMARK  Name = 
REMARK  5 active torsions:
REMARK  status: ('A' for Active; 'I' for Inactive)
REMARK    1  A    between atoms: C_1  and  O_2
REMARK    2  A    between atoms: O_2  and  C_3
REMARK    3  A    between atoms: C_6  and  C_7
REMARK    4  A    between atoms: C_7  and  N_9
REMARK    5  A    between atoms: N_18  and  C_19
REMARK                            x       y       z     vdW  Elec       q    Type
REMARK                         _______ _______ _______ _____ _____    ______ ____
ROOT
ATOM      1  N   UNL     1       5.360   6.443  17.202  0.00  0.00    +0.000 NA
ATOM      2  C   UNL     1       4.698   5.730  18.059  0.00  0.00    +0.000 A 
ATOM      3  S   UNL     1       5.350   4.345  18.994  0.00  0.00    +0.000 S 
ATOM      4  C   UNL     1       3.723   3.926  19.557  0.00  0.00    +0.000 A 
ATOM      5  C   UNL     1       3.361   2.804  20.286  0.00  0.00    +0.000 A 
ATOM      6  C   UNL     1       2.009   2.582  20.525  0.00  0.00    +0.000 A 
ATOM      7  C   UNL     1       1.052   3.478  20.033  0.00  0.00    +0.000 A 
ATOM      8  C   UNL     1       1.439   4.632  19.337  0.00  0.00    +0.000 A 
ATOM      9  C   UNL     1       2.790   4.876  19.112  0.00  0.00    +0.000 A 
ATOM     10  N   UNL     1       3.363   5.934  18.394  0.00  0.00    +0.000 N 
ATOM     11  C   UNL     1       2.722   7.227  18.303  0.00  0.00    +0.000 C 
ENDROOT
BRANCH   1  12
ATOM     12  C   UNL     1       6.517   5.909  16.669  0.00  0.00    +0.000 C 
ATOM     13  O   UNL     1       7.594   5.850  17.263  0.00  0.00    +0.000 OA
BRANCH  12  17
ATOM     14  C   UNL     1       6.385   3.810  12.934  0.00  0.00    +0.000 A 
ATOM     15  C   UNL     1       7.436   4.675  13.232  0.00  0.00    +0.000 A 
ATOM     16  C   UNL     1       7.454   5.363  14.441  0.00  0.00    +0.000 A 
ATOM     17  C   UNL     1       6.417   5.184  15.371  0.00  0.00    +0.000 A 
ATOM     18  C   UNL     1       5.346   4.343  15.062  0.00  0.00    +0.000 A 
ATOM     19  C   UNL     1       5.335   3.657  13.838  0.00  0.00    +0.000 A 
BRANCH  14  21
ATOM     20  C   UNL     1       5.652   2.045  11.548  0.00  0.00    +0.000 C 
ATOM     21  O   UNL     1       6.477   3.189  11.714  0.00  0.00    +0.000 OA
ENDBRANCH  14  21
ENDBRANCH  12  17
ENDBRANCH   1  12
TORSDOF 3
ENDMDL
MODEL 3
REMARK VINA RESULT:      -7.1      1.973      3.472
REMARK  Name = 
REMARK  5 active torsions:
REMARK  status: ('A' for Active; 'I' for Inactive)
REMARK    1  A    between atoms: C_1  and  O_2
REMARK    2  A    between atoms: O_2  and  C_3
REMARK    3  A    between atoms: C_6  and  C_7
REMARK    4  A    between atoms: C_7  and  N_9
REMARK    5  A    between atoms: N_18  and  C_19
REMARK                            x       y       z     vdW  Elec       q    Type
REMARK                         _______ _______ _______ _____ _____    ______ ____
ROOT
ATOM      1  N   UNL     1       4.692   5.131  19.056  0.00  0.00    +0.000 NA
ATOM      2  C   UNL     1       3.749   6.020  19.024  0.00  0.00    +0.000 A 
ATOM      3  S   UNL     1       3.571   7.311  17.791  0.00  0.00    +0.000 S 
ATOM      4  C   UNL     1       2.295   8.084  18.748  0.00  0.00    +0.000 A 
ATOM      5  C   UNL     1       1.690   9.304  18.491  0.00  0.00    +0.000 A 
ATOM      6  C   UNL     1       0.796   9.806  19.431  0.00  0.00    +0.000 A 
ATOM      7  C   UNL     1       0.528   9.085  20.602  0.00  0.00    +0.000 A 
ATOM      8  C   UNL     1       1.114   7.831  20.823  0.00  0.00    +0.000 A 
ATOM      9  C   UNL     1       1.992   7.308  19.879  0.00  0.00    +0.000 A 
ATOM     10  N   UNL     1       2.714   6.110  19.948  0.00  0.00    +0.000 N 
ATOM     11  C   UNL     1       2.220   4.967  20.684  0.00  0.00    +0.000 C 
ENDROOT
BRANCH   1  12
ATOM     12  C   UNL     1       5.850   5.384  18.348  0.00  0.00    +0.000 C 
ATOM     13  O   UNL     1       6.885   5.833  18.845  0.00  0.00    +0.000 OA
BRANCH  12  17
ATOM     14  C   UNL     1       6.222   4.018  14.302  0.00  0.00    +0.000 A 
ATOM     15  C   UNL     1       7.132   4.929  14.837  0.00  0.00    +0.000 A 
ATOM     16  C   UNL     1       6.985   5.376  16.146  0.00  0.00    +0.000 A 
ATOM     17  C   UNL     1       5.925   4.907  16.939  0.00  0.00    +0.000 A 
ATOM     18  C   UNL     1       4.993   4.020  16.396  0.00  0.00    +0.000 A 
ATOM     19  C   UNL     1       5.147   3.578  15.073  0.00  0.00    +0.000 A 
BRANCH  14  21
ATOM     20  C   UNL     1       5.321   3.318  12.236  0.00  0.00    +0.000 C 
ATOM     21  O   UNL     1       6.468   3.651  13.004  0.00  0.00    +0.000 OA
ENDBRANCH  14  21
ENDBRANCH  12  17
ENDBRANCH   1  12
TORSDOF 3
ENDMDL
MODEL 4
REMARK VINA RESULT:      -7.1      2.370      4.541
REMARK  Name = 
REMARK  5 active torsions:
REMARK  status: ('A' for Active; 'I' for Inactive)
REMARK    1  A    between atoms: C_1  and  O_2
REMARK    2  A    between atoms: O_2  and  C_3
REMARK    3  A    between atoms: C_6  and  C_7
REMARK    4  A    between atoms: C_7  and  N_9
REMARK    5  A    between atoms: N_18  and  C_19
REMARK                            x       y       z     vdW  Elec       q    Type
REMARK                         _______ _______ _______ _____ _____    ______ ____
ROOT
ATOM      1  N   UNL     1       5.322   3.206  16.526  0.00  0.00    +0.000 NA
ATOM      2  C   UNL     1       4.408   3.567  17.371  0.00  0.00    +0.000 A 
ATOM      3  S   UNL     1       3.648   5.189  17.459  0.00  0.00    +0.000 S 
ATOM      4  C   UNL     1       2.862   4.767  18.990  0.00  0.00    +0.000 A 
ATOM      5  C   UNL     1       2.138   5.616  19.812  0.00  0.00    +0.000 A 
ATOM      6  C   UNL     1       1.706   5.130  21.042  0.00  0.00    +0.000 A 
ATOM      7  C   UNL     1       2.004   3.816  21.424  0.00  0.00    +0.000 A 
ATOM      8  C   UNL     1       2.698   2.957  20.559  0.00  0.00    +0.000 A 
ATOM      9  C   UNL     1       3.116   3.425  19.318  0.00  0.00    +0.000 A 
ATOM     10  N   UNL     1       3.864   2.742  18.350  0.00  0.00    +0.000 N 
ATOM     11  C   UNL     1       3.797   1.304  18.213  0.00  0.00    +0.000 C 
ENDROOT
BRANCH   1  12
ATOM     12  C   UNL     1       6.050   4.193  15.893  0.00  0.00    +0.000 C 
ATOM     13  O   UNL     1       6.011   4.419  14.682  0.00  0.00    +0.000 OA
BRANCH  12  17
ATOM     14  C   UNL     1       8.041   7.128  18.301  0.00  0.00    +0.000 A 
ATOM     15  C   UNL     1       7.389   7.491  17.124  0.00  0.00    +0.000 A 
ATOM     16  C   UNL     1       6.763   6.523  16.344  0.00  0.00    +0.000 A 
ATOM     17  C   UNL     1       6.780   5.176  16.743  0.00  0.00    +0.000 A 
ATOM     18  C   UNL     1       7.460   4.805  17.905  0.00  0.00    +0.000 A 
ATOM     19  C   UNL     1       8.092   5.788  18.681  0.00  0.00    +0.000 A 
BRANCH  14  21
ATOM     20  C   UNL     1       8.556   9.431  18.340  0.00  0.00    +0.000 C 
ATOM     21  O   UNL     1       8.620   8.168  18.983  0.00  0.00    +0.000 OA
ENDBRANCH  14  21
ENDBRANCH  12  17
ENDBRANCH   1  12
TORSDOF 3
ENDMDL
MODEL 5
REMARK VINA RESULT:      -7.0      1.900      3.444
REMARK  Name = 
REMARK  5 active torsions:
REMARK  status: ('A' for Active; 'I' for Inactive)
REMARK    1  A    between atoms: C_1  and  O_2
REMARK    2  A    between atoms: O_2  and  C_3
REMARK    3  A    between atoms: C_6  and  C_7
REMARK    4  A    between atoms: C_7  and  N_9
REMARK    5  A    between atoms: N_18  and  C_19
REMARK                            x       y       z     vdW  Elec       q    Type
REMARK                         _______ _______ _______ _____ _____    ______ ____
ROOT
ATOM      1  N   UNL     1       4.699   4.968  19.268  0.00  0.00    +0.000 NA
ATOM      2  C   UNL     1       3.840   5.913  19.048  0.00  0.00    +0.000 A 
ATOM      3  S   UNL     1       3.880   7.063  17.672  0.00  0.00    +0.000 S 
ATOM      4  C   UNL     1       2.592   8.032  18.411  0.00  0.00    +0.000 A 
ATOM      5  C   UNL     1       2.116   9.254  17.966  0.00  0.00    +0.000 A 
ATOM      6  C   UNL     1       1.187   9.925  18.755  0.00  0.00    +0.000 A 
ATOM      7  C   UNL     1       0.756   9.365  19.964  0.00  0.00    +0.000 A 
ATOM      8  C   UNL     1       1.215   8.106  20.375  0.00  0.00    +0.000 A 
ATOM      9  C   UNL     1       2.127   7.415  19.583  0.00  0.00    +0.000 A 
ATOM     10  N   UNL     1       2.737   6.184  19.852  0.00  0.00    +0.000 N 
ATOM     11  C   UNL     1       2.087   5.172  20.654  0.00  0.00    +0.000 C 
ENDROOT
BRANCH   1  12
ATOM     12  C   UNL     1       5.933   5.054  18.653  0.00  0.00    +0.000 C 
ATOM     13  O   UNL     1       6.991   5.274  19.244  0.00  0.00    +0.000 OA
BRANCH  12  17
ATOM     14  C   UNL     1       6.044   3.927  14.519  0.00  0.00    +0.000 A 
ATOM     15  C   UNL     1       5.056   3.434  15.369  0.00  0.00    +0.000 A 
ATOM     16  C   UNL     1       5.046   3.795  16.712  0.00  0.00    +0.000 A 
ATOM     17  C   UNL     1       6.026   4.664  17.218  0.00  0.00    +0.000 A 
ATOM     18  C   UNL     1       7.037   5.134  16.377  0.00  0.00    +0.000 A 
ATOM     19  C   UNL     1       7.041   4.760  15.024  0.00  0.00    +0.000 A 
BRANCH  14  21
ATOM     20  C   UNL     1       6.898   4.066  12.323  0.00  0.00    +0.000 C 
ATOM     21  O   UNL     1       5.952   3.501  13.218  0.00  0.00    +0.000 OA
ENDBRANCH  14  21
ENDBRANCH  12  17
ENDBRANCH   1  12
TORSDOF 3
ENDMDL
MODEL 6
REMARK VINA RESULT:      -6.9      3.958      8.018
REMARK  Name = 
REMARK  5 active torsions:
REMARK  status: ('A' for Active; 'I' for Inactive)
REMARK    1  A    between atoms: C_1  and  O_2
REMARK    2  A    between atoms: O_2  and  C_3
REMARK    3  A    between atoms: C_6  and  C_7
REMARK    4  A    between atoms: C_7  and  N_9
REMARK    5  A    between atoms: N_18  and  C_19
REMARK                            x       y       z     vdW  Elec       q    Type
REMARK                         _______ _______ _______ _____ _____    ______ ____
ROOT
ATOM      1  N   UNL     1       2.132   6.886  18.304  0.00  0.00    +0.000 NA
ATOM      2  C   UNL     1       3.256   6.381  17.901  0.00  0.00    +0.000 A 
ATOM      3  S   UNL     1       4.826   7.245  17.832  0.00  0.00    +0.000 S 
ATOM      4  C   UNL     1       5.555   5.904  16.933  0.00  0.00    +0.000 A 
ATOM      5  C   UNL     1       6.819   5.876  16.365  0.00  0.00    +0.000 A 
ATOM      6  C   UNL     1       7.165   4.778  15.584  0.00  0.00    +0.000 A 
ATOM      7  C   UNL     1       6.248   3.738  15.386  0.00  0.00    +0.000 A 
ATOM      8  C   UNL     1       4.991   3.762  16.006  0.00  0.00    +0.000 A 
ATOM      9  C   UNL     1       4.642   4.844  16.808  0.00  0.00    +0.000 A 
ATOM     10  N   UNL     1       3.422   5.073  17.458  0.00  0.00    +0.000 N 
ATOM     11  C   UNL     1       2.580   3.984  17.900  0.00  0.00    +0.000 C 
ENDROOT
BRANCH   1  12
ATOM     12  C   UNL     1       2.009   8.261  18.331  0.00  0.00    +0.000 C 
ATOM     13  O   UNL     1       2.221   8.997  17.366  0.00  0.00    +0.000 OA
BRANCH  12  17
ATOM     14  C   UNL     1       0.362   9.994  21.889  0.00  0.00    +0.000 A 
ATOM     15  C   UNL     1       1.033   8.774  21.932  0.00  0.00    +0.000 A 
ATOM     16  C   UNL     1       1.545   8.216  20.765  0.00  0.00    +0.000 A 
ATOM     17  C   UNL     1       1.396   8.883  19.538  0.00  0.00    +0.000 A 
ATOM     18  C   UNL     1       0.696  10.091  19.487  0.00  0.00    +0.000 A 
ATOM     19  C   UNL     1       0.179  10.642  20.669  0.00  0.00    +0.000 A 
BRANCH  14  21
ATOM     20  C   UNL     1      -1.179  11.360  23.041  0.00  0.00    +0.000 C 
ATOM     21  O   UNL     1      -0.098  10.443  23.101  0.00  0.00    +0.000 OA
ENDBRANCH  14  21
ENDBRANCH  12  17
ENDBRANCH   1  12
TORSDOF 3
ENDMDL
MODEL 7
REMARK VINA RESULT:      -6.6      3.999      5.326
REMARK  Name = 
REMARK  5 active torsions:
REMARK  status: ('A' for Active; 'I' for Inactive)
REMARK    1  A    between atoms: C_1  and  O_2
REMARK    2  A    between atoms: O_2  and  C_3
REMARK    3  A    between atoms: C_6  and  C_7
REMARK    4  A    between atoms: C_7  and  N_9
REMARK    5  A    between atoms: N_18  and  C_19
REMARK                            x       y       z     vdW  Elec       q    Type
REMARK                         _______ _______ _______ _____ _____    ______ ____
ROOT
ATOM      1  N   UNL     1       2.248   7.844  18.596  0.00  0.00    +0.000 NA
ATOM      2  C   UNL     1       1.736   8.501  19.589  0.00  0.00    +0.000 A 
ATOM      3  S   UNL     1       1.736   7.973  21.304  0.00  0.00    +0.000 S 
ATOM      4  C   UNL     1       0.626   9.286  21.735  0.00  0.00    +0.000 A 
ATOM      5  C   UNL     1       0.016   9.485  22.963  0.00  0.00    +0.000 A 
ATOM      6  C   UNL     1      -0.928  10.501  23.072  0.00  0.00    +0.000 A 
ATOM      7  C   UNL     1      -1.241  11.292  21.958  0.00  0.00    +0.000 A 
ATOM      8  C   UNL     1      -0.580  11.106  20.737  0.00  0.00    +0.000 A 
ATOM      9  C   UNL     1       0.382  10.107  20.623  0.00  0.00    +0.000 A 
ATOM     10  N   UNL     1       1.102   9.735  19.480  0.00  0.00    +0.000 N 
ATOM     11  C   UNL     1       1.412  10.684  18.434  0.00  0.00    +0.000 C 
ENDROOT
BRANCH   1  12
ATOM     12  C   UNL     1       2.478   6.493  18.759  0.00  0.00    +0.000 C 
ATOM     13  O   UNL     1       1.806   5.755  19.482  0.00  0.00    +0.000 OA
BRANCH  12  17
ATOM     14  C   UNL     1       5.235   4.503  16.149  0.00  0.00    +0.000 A 
ATOM     15  C   UNL     1       4.340   3.777  16.932  0.00  0.00    +0.000 A 
ATOM     16  C   UNL     1       3.464   4.438  17.788  0.00  0.00    +0.000 A 
ATOM     17  C   UNL     1       3.472   5.840  17.862  0.00  0.00    +0.000 A 
ATOM     18  C   UNL     1       4.391   6.570  17.103  0.00  0.00    +0.000 A 
ATOM     19  C   UNL     1       5.273   5.894  16.247  0.00  0.00    +0.000 A 
BRANCH  14  21
ATOM     20  C   UNL     1       6.567   4.406  14.203  0.00  0.00    +0.000 C 
ATOM     21  O   UNL     1       6.048   3.744  15.346  0.00  0.00    +0.000 OA
ENDBRANCH  14  21
ENDBRANCH  12  17
ENDBRANCH   1  12
TORSDOF 3
ENDMDL
MODEL 8
REMARK VINA RESULT:      -6.6      3.846      5.261
REMARK  Name = 
REMARK  5 active torsions:
REMARK  status: ('A' for Active; 'I' for Inactive)
REMARK    1  A    between atoms: C_1  and  O_2
REMARK    2  A    between atoms: O_2  and  C_3
REMARK    3  A    between atoms: C_6  and  C_7
REMARK    4  A    between atoms: C_7  and  N_9
REMARK    5  A    between atoms: N_18  and  C_19
REMARK                            x       y       z     vdW  Elec       q    Type
REMARK                         _______ _______ _______ _____ _____    ______ ____
ROOT
ATOM      1  N   UNL     1       2.280   7.720  18.396  0.00  0.00    +0.000 NA
ATOM      2  C   UNL     1       1.795   8.367  19.410  0.00  0.00    +0.000 A 
ATOM      3  S   UNL     1       1.786   7.792  21.109  0.00  0.00    +0.000 S 
ATOM      4  C   UNL     1       0.723   9.130  21.583  0.00  0.00    +0.000 A 
ATOM      5  C   UNL     1       0.126   9.316  22.819  0.00  0.00    +0.000 A 
ATOM      6  C   UNL     1      -0.782  10.361  22.961  0.00  0.00    +0.000 A 
ATOM      7  C   UNL     1      -1.073  11.192  21.871  0.00  0.00    +0.000 A 
ATOM      8  C   UNL     1      -0.424  11.016  20.641  0.00  0.00    +0.000 A 
ATOM      9  C   UNL     1       0.502   9.989  20.495  0.00  0.00    +0.000 A 
ATOM     10  N   UNL     1       1.203   9.624  19.338  0.00  0.00    +0.000 N 
ATOM     11  C   UNL     1       1.541  10.590  18.317  0.00  0.00    +0.000 C 
ENDROOT
BRANCH   1  12
ATOM     12  C   UNL     1       2.464   6.358  18.521  0.00  0.00    +0.000 C 
ATOM     13  O   UNL     1       1.713   5.609  19.148  0.00  0.00    +0.000 OA
BRANCH  12  17
ATOM     14  C   UNL     1       5.607   4.626  16.176  0.00  0.00    +0.000 A 
ATOM     15  C   UNL     1       5.521   6.006  16.351  0.00  0.00    +0.000 A 
ATOM     16  C   UNL     1       4.484   6.553  17.100  0.00  0.00    +0.000 A 
ATOM     17  C   UNL     1       3.522   5.717  17.690  0.00  0.00    +0.000 A 
ATOM     18  C   UNL     1       3.586   4.337  17.490  0.00  0.00    +0.000 A 
ATOM     19  C   UNL     1       4.633   3.795  16.729  0.00  0.00    +0.000 A 
BRANCH  14  21
ATOM     20  C   UNL     1       6.482   4.267  14.014  0.00  0.00    +0.000 C 
ATOM     21  O   UNL     1       6.671   4.205  15.420  0.00  0.00    +0.000 OA
ENDBRANCH  14  21
ENDBRANCH  12  17
ENDBRANCH   1  12
TORSDOF 3
ENDMDL
MODEL 9
REMARK VINA RESULT:      -6.6      3.292      6.937
REMARK  Name = 
REMARK  5 active torsions:
REMARK  status: ('A' for Active; 'I' for Inactive)
REMARK    1  A    between atoms: C_1  and  O_2
REMARK    2  A    between atoms: O_2  and  C_3
REMARK    3  A    between atoms: C_6  and  C_7
REMARK    4  A    between atoms: C_7  and  N_9
REMARK    5  A    between atoms: N_18  and  C_19
REMARK                            x       y       z     vdW  Elec       q    Type
REMARK                         _______ _______ _______ _____ _____    ______ ____
ROOT
ATOM      1  N   UNL     1       2.266   4.605  19.239  0.00  0.00    +0.000 NA
ATOM      2  C   UNL     1       3.411   4.475  18.647  0.00  0.00    +0.000 A 
ATOM      3  S   UNL     1       4.998   4.975  19.317  0.00  0.00    +0.000 S 
ATOM      4  C   UNL     1       5.780   4.686  17.753  0.00  0.00    +0.000 A 
ATOM      5  C   UNL     1       7.090   4.985  17.413  0.00  0.00    +0.000 A 
ATOM      6  C   UNL     1       7.485   4.802  16.092  0.00  0.00    +0.000 A 
ATOM      7  C   UNL     1       6.569   4.329  15.143  0.00  0.00    +0.000 A 
ATOM      8  C   UNL     1       5.261   3.989  15.515  0.00  0.00    +0.000 A 
ATOM      9  C   UNL     1       4.861   4.146  16.838  0.00  0.00    +0.000 A 
ATOM     10  N   UNL     1       3.592   3.917  17.385  0.00  0.00    +0.000 N 
ATOM     11  C   UNL     1       2.692   2.931  16.830  0.00  0.00    +0.000 C 
ENDROOT
BRANCH   1  12
ATOM     12  C   UNL     1       2.168   5.513  20.275  0.00  0.00    +0.000 C 
ATOM     13  O   UNL     1       2.448   5.263  21.448  0.00  0.00    +0.000 OA
BRANCH  12  17
ATOM     14  C   UNL     1       1.357   9.566  19.139  0.00  0.00    +0.000 A 
ATOM     15  C   UNL     1       1.964   8.682  18.250  0.00  0.00    +0.000 A 
ATOM     16  C   UNL     1       2.237   7.375  18.641  0.00  0.00    +0.000 A 
ATOM     17  C   UNL     1       1.896   6.937  19.931  0.00  0.00    +0.000 A 
ATOM     18  C   UNL     1       1.317   7.830  20.836  0.00  0.00    +0.000 A 
ATOM     19  C   UNL     1       1.050   9.148  20.434  0.00  0.00    +0.000 A 
BRANCH  14  21
ATOM     20  C   UNL     1       0.624  11.768  19.571  0.00  0.00    +0.000 C 
ATOM     21  O   UNL     1       1.138  10.826  18.642  0.00  0.00    +0.000 OA
ENDBRANCH  14  21
ENDBRANCH  12  17
ENDBRANCH   1  12
TORSDOF 3
ENDMDL
