MODEL 1
REMARK VINA RESULT:      -6.9      0.000      0.000
REMARK  Name = 
REMARK  11 active torsions:
REMARK  status: ('A' for Active; 'I' for Inactive)
REMARK    1  A    between atoms: C_1  and  C_2
REMARK    2  A    between atoms: N_4  and  C_5
REMARK    3  A    between atoms: C_6  and  C_7
REMARK    4  A    between atoms: C_8  and  C_9
REMARK    5  A    between atoms: C_9  and  N_10
REMARK    6  A    between atoms: N_10  and  C_11
REMARK    7  A    between atoms: N_10  and  C_21
REMARK    8  A    between atoms: C_11  and  C_12
REMARK    9  A    between atoms: C_12  and  C_13
REMARK   10  A    between atoms: C_21  and  C_22
REMARK   11  A    between atoms: C_21  and  C_23
REMARK                            x       y       z     vdW  Elec       q    Type
REMARK                         _______ _______ _______ _____ _____    ______ ____
ROOT
ATOM      1  N   UNL     1       2.229   5.200  20.230  0.00  0.00    +0.000 NA
ENDROOT
BRANCH   1   2
ATOM      2  C   UNL     1       1.238   4.161  20.624  0.00  0.00    +0.000 C 
ATOM      3  C   UNL     1       0.796   3.267  19.448  0.00  0.00    +0.000 C 
ATOM      4  C   UNL     1       1.765   3.207  21.717  0.00  0.00    +0.000 C 
ENDBRANCH   1   2
BRANCH   1   5
ATOM      5  C   UNL     1       2.634   5.084  18.813  0.00  0.00    +0.000 C 
BRANCH   5  13
ATOM      6  C   UNL     1       4.583   2.595  19.771  0.00  0.00    +0.000 C 
ATOM      7  C   UNL     1       4.954   3.863  19.097  0.00  0.00    +0.000 A 
ATOM      8  N   UNL     1       6.248   4.116  18.870  0.00  0.00    +0.000 NA
ATOM      9  N   UNL     1       6.250   5.307  18.254  0.00  0.00    +0.000 N 
ATOM     10  C   UNL     1       7.515   5.961  18.011  0.00  0.00    +0.000 C 
ATOM     11  C   UNL     1       4.995   5.786  17.987  0.00  0.00    +0.000 A 
ATOM     12  C   UNL     1       4.724   7.005  17.185  0.00  0.00    +0.000 C 
ATOM     13  C   UNL     1       4.117   4.917  18.623  0.00  0.00    +0.000 A 
ENDBRANCH   5  13
ENDBRANCH   1   5
BRANCH   1  14
ATOM     14  C   UNL     1       1.800   6.580  20.568  0.00  0.00    +0.000 C 
BRANCH  14  15
ATOM     15  C   UNL     1       2.063   7.640  19.490  0.00  0.00    +0.000 C 
BRANCH  15  16
ATOM     16  C   UNL     1       1.254   8.895  19.748  0.00  0.00    +0.000 C 
ATOM     17  O   UNL     1       1.262   9.841  18.965  0.00  0.00    +0.000 OA
ATOM     18  N   UNL     1       0.580   8.825  20.950  0.00  0.00    +0.000 N 
ATOM     19  C   UNL     1      -0.159   9.882  21.402  0.00  0.00    +0.000 A 
ATOM     20  N   UNL     1      -0.591  10.926  20.747  0.00  0.00    +0.000 NA
ATOM     21  C   UNL     1      -1.180  11.807  21.627  0.00  0.00    +0.000 A 
ATOM     22  C   UNL     1      -1.189  11.406  22.947  0.00  0.00    +0.000 A 
ATOM     23  S   UNL     1      -0.517   9.829  23.070  0.00  0.00    +0.000 S 
ATOM     24  H   UNL     1       0.771   8.087  21.608  0.00  0.00    +0.000 HD
ENDBRANCH  15  16
ENDBRANCH  14  15
ENDBRANCH   1  14
TORSDOF 6
ENDMDL
MODEL 2
REMARK VINA RESULT:      -6.8      1.843      2.862
REMARK  Name = 
REMARK  11 active torsions:
REMARK  status: ('A' for Active; 'I' for Inactive)
REMARK    1  A    between atoms: C_1  and  C_2
REMARK    2  A    between atoms: N_4  and  C_5
REMARK    3  A    between atoms: C_6  and  C_7
REMARK    4  A    between atoms: C_8  and  C_9
REMARK    5  A    between atoms: C_9  and  N_10
REMARK    6  A    between atoms: N_10  and  C_11
REMARK    7  A    between atoms: N_10  and  C_21
REMARK    8  A    between atoms: C_11  and  C_12
REMARK    9  A    between atoms: C_12  and  C_13
REMARK   10  A    between atoms: C_21  and  C_22
REMARK   11  A    between atoms: C_21  and  C_23
REMARK                            x       y       z     vdW  Elec       q    Type
REMARK                         _______ _______ _______ _____ _____    ______ ____
ROOT
ATOM      1  N   UNL     1       3.713   5.731  19.083  0.00  0.00    +0.000 NA
ENDROOT
BRANCH   1   2
ATOM      2  C   UNL     1       2.799   4.642  19.526  0.00  0.00    +0.000 C 
ATOM      3  C   UNL     1       2.082   4.953  20.855  0.00  0.00    +0.000 C 
ATOM      4  C   UNL     1       1.689   4.330  18.500  0.00  0.00    +0.000 C 
ENDBRANCH   1   2
BRANCH   1   5
ATOM      5  C   UNL     1       5.136   5.339  19.164  0.00  0.00    +0.000 C 
BRANCH   5  13
ATOM      6  C   UNL     1       7.605   7.133  17.899  0.00  0.00    +0.000 C 
ATOM      7  C   UNL     1       6.829   6.037  17.267  0.00  0.00    +0.000 A 
ATOM      8  N   UNL     1       7.080   5.725  15.990  0.00  0.00    +0.000 NA
ATOM      9  N   UNL     1       6.240   4.715  15.725  0.00  0.00    +0.000 N 
ATOM     10  C   UNL     1       6.132   4.241  14.365  0.00  0.00    +0.000 C 
ATOM     11  C   UNL     1       5.524   4.299  16.815  0.00  0.00    +0.000 A 
ATOM     12  C   UNL     1       4.640   3.107  16.824  0.00  0.00    +0.000 C 
ATOM     13  C   UNL     1       5.804   5.214  17.822  0.00  0.00    +0.000 A 
ENDBRANCH   5  13
ENDBRANCH   1   5
BRANCH   1  14
ATOM     14  C   UNL     1       3.369   6.282  17.748  0.00  0.00    +0.000 C 
BRANCH  14  15
ATOM     15  C   UNL     1       3.637   7.780  17.560  0.00  0.00    +0.000 C 
BRANCH  15  16
ATOM     16  C   UNL     1       2.466   8.611  18.046  0.00  0.00    +0.000 C 
ATOM     17  O   UNL     1       1.962   9.487  17.350  0.00  0.00    +0.000 OA
ATOM     18  N   UNL     1       2.107   8.272  19.335  0.00  0.00    +0.000 N 
ATOM     19  C   UNL     1       1.112   8.946  19.985  0.00  0.00    +0.000 A 
ATOM     20  N   UNL     1       0.196   9.738  19.496  0.00  0.00    +0.000 NA
ATOM     21  C   UNL     1      -0.516  10.308  20.528  0.00  0.00    +0.000 A 
ATOM     22  C   UNL     1      -0.125   9.928  21.795  0.00  0.00    +0.000 A 
ATOM     23  S   UNL     1       1.117   8.746  21.681  0.00  0.00    +0.000 S 
ATOM     24  H   UNL     1       2.687   7.666  19.892  0.00  0.00    +0.000 HD
ENDBRANCH  15  16
ENDBRANCH  14  15
ENDBRANCH   1  14
TORSDOF 6
ENDMDL
MODEL 3
REMARK VINA RESULT:      -6.7      1.122      1.128
REMARK  Name = 
REMARK  11 active torsions:
REMARK  status: ('A' for Active; 'I' for Inactive)
REMARK    1  A    between atoms: C_1  and  C_2
REMARK    2  A    between atoms: N_4  and  C_5
REMARK    3  A    between atoms: C_6  and  C_7
REMARK    4  A    between atoms: C_8  and  C_9
REMARK    5  A    between atoms: C_9  and  N_10
REMARK    6  A    between atoms: N_10  and  C_11
REMARK    7  A    between atoms: N_10  and  C_21
REMARK    8  A    between atoms: C_11  and  C_12
REMARK    9  A    between atoms: C_12  and  C_13
REMARK   10  A    between atoms: C_21  and  C_22
REMARK   11  A    between atoms: C_21  and  C_23
REMARK                            x       y       z     vdW  Elec       q    Type
REMARK                         _______ _______ _______ _____ _____    ______ ____
ROOT
ATOM      1  N   UNL     1       2.348   5.401  19.881  0.00  0.00    +0.000 NA
ENDROOT
BRANCH   1   2
ATOM      2  C   UNL     1       1.564   4.414  20.674  0.00  0.00    +0.000 C 
ATOM      3  C   UNL     1       0.569   3.603  19.820  0.00  0.00    +0.000 C 
ATOM      4  C   UNL     1       2.451   3.381  21.400  0.00  0.00    +0.000 C 
ENDBRANCH   1   2
BRANCH   1   5
ATOM      5  C   UNL     1       2.171   5.221  18.424  0.00  0.00    +0.000 C 
BRANCH   5  13
ATOM      6  C   UNL     1       3.009   2.078  17.844  0.00  0.00    +0.000 C 
ATOM      7  C   UNL     1       3.768   3.317  17.543  0.00  0.00    +0.000 A 
ATOM      8  N   UNL     1       4.993   3.208  17.016  0.00  0.00    +0.000 NA
ATOM      9  N   UNL     1       5.400   4.475  16.857  0.00  0.00    +0.000 N 
ATOM     10  C   UNL     1       6.766   4.720  16.456  0.00  0.00    +0.000 C 
ATOM     11  C   UNL     1       4.442   5.400  17.173  0.00  0.00    +0.000 A 
ATOM     12  C   UNL     1       4.587   6.859  16.945  0.00  0.00    +0.000 C 
ATOM     13  C   UNL     1       3.392   4.681  17.732  0.00  0.00    +0.000 A 
ENDBRANCH   5  13
ENDBRANCH   1   5
BRANCH   1  14
ATOM     14  C   UNL     1       2.114   6.807  20.294  0.00  0.00    +0.000 C 
BRANCH  14  15
ATOM     15  C   UNL     1       2.092   7.837  19.159  0.00  0.00    +0.000 C 
BRANCH  15  16
ATOM     16  C   UNL     1       1.205   9.017  19.506  0.00  0.00    +0.000 C 
ATOM     17  O   UNL     1       1.053   9.960  18.736  0.00  0.00    +0.000 OA
ATOM     18  N   UNL     1       0.663   8.886  20.768  0.00  0.00    +0.000 N 
ATOM     19  C   UNL     1      -0.119   9.873  21.300  0.00  0.00    +0.000 A 
ATOM     20  N   UNL     1      -0.703  10.875  20.701  0.00  0.00    +0.000 NA
ATOM     21  C   UNL     1      -1.278  11.700  21.642  0.00  0.00    +0.000 A 
ATOM     22  C   UNL     1      -1.121  11.299  22.953  0.00  0.00    +0.000 A 
ATOM     23  S   UNL     1      -0.304   9.788  22.995  0.00  0.00    +0.000 S 
ATOM     24  H   UNL     1       0.982   8.167  21.398  0.00  0.00    +0.000 HD
ENDBRANCH  15  16
ENDBRANCH  14  15
ENDBRANCH   1  14
TORSDOF 6
ENDMDL
MODEL 4
REMARK VINA RESULT:      -6.7      4.245      7.141
REMARK  Name = 
REMARK  11 active torsions:
REMARK  status: ('A' for Active; 'I' for Inactive)
REMARK    1  A    between atoms: C_1  and  C_2
REMARK    2  A    between atoms: N_4  and  C_5
REMARK    3  A    between atoms: C_6  and  C_7
REMARK    4  A    between atoms: C_8  and  C_9
REMARK    5  A    between atoms: C_9  and  N_10
REMARK    6  A    between atoms: N_10  and  C_11
REMARK    7  A    between atoms: N_10  and  C_21
REMARK    8  A    between atoms: C_11  and  C_12
REMARK    9  A    between atoms: C_12  and  C_13
REMARK   10  A    between atoms: C_21  and  C_22
REMARK   11  A    between atoms: C_21  and  C_23
REMARK                            x       y       z     vdW  Elec       q    Type
REMARK                         _______ _______ _______ _____ _____    ______ ____
ROOT
ATOM      1  N   UNL     1       6.079   5.809  17.804  0.00  0.00    +0.000 NA
ENDROOT
BRANCH   1   2
ATOM      2  C   UNL     1       5.528   5.057  16.644  0.00  0.00    +0.000 C 
ATOM      3  C   UNL     1       5.188   5.959  15.441  0.00  0.00    +0.000 C 
ATOM      4  C   UNL     1       6.491   3.974  16.113  0.00  0.00    +0.000 C 
ENDBRANCH   1   2
BRANCH   1   5
ATOM      5  C   UNL     1       5.680   5.217  19.099  0.00  0.00    +0.000 C 
BRANCH   5  13
ATOM      6  C   UNL     1       2.995   7.037  18.474  0.00  0.00    +0.000 C 
ATOM      7  C   UNL     1       3.081   5.631  18.942  0.00  0.00    +0.000 A 
ATOM      8  N   UNL     1       1.948   4.976  19.222  0.00  0.00    +0.000 NA
ATOM      9  N   UNL     1       2.355   3.757  19.601  0.00  0.00    +0.000 N 
ATOM     10  C   UNL     1       1.381   2.835  20.137  0.00  0.00    +0.000 C 
ATOM     11  C   UNL     1       3.707   3.571  19.484  0.00  0.00    +0.000 A 
ATOM     12  C   UNL     1       4.389   2.271  19.696  0.00  0.00    +0.000 C 
ATOM     13  C   UNL     1       4.232   4.815  19.157  0.00  0.00    +0.000 A 
ENDBRANCH   5  13
ENDBRANCH   1   5
BRANCH   1  14
ATOM     14  C   UNL     1       7.545   6.022  17.725  0.00  0.00    +0.000 C 
BRANCH  14  15
ATOM     15  C   UNL     1       8.134   6.980  18.768  0.00  0.00    +0.000 C 
BRANCH  15  16
ATOM     16  C   UNL     1       8.189   8.399  18.239  0.00  0.00    +0.000 C 
ATOM     17  O   UNL     1       7.620   8.725  17.201  0.00  0.00    +0.000 OA
ATOM     18  N   UNL     1       8.967   9.208  19.042  0.00  0.00    +0.000 N 
ATOM     19  C   UNL     1       9.199  10.513  18.707  0.00  0.00    +0.000 A 
ATOM     20  N   UNL     1       8.570  11.268  17.847  0.00  0.00    +0.000 NA
ATOM     21  C   UNL     1       9.225  12.474  17.731  0.00  0.00    +0.000 A 
ATOM     22  C   UNL     1      10.347  12.614  18.521  0.00  0.00    +0.000 A 
ATOM     23  S   UNL     1      10.531  11.219  19.507  0.00  0.00    +0.000 S 
ATOM     24  H   UNL     1       9.538   8.816  19.773  0.00  0.00    +0.000 HD
ENDBRANCH  15  16
ENDBRANCH  14  15
ENDBRANCH   1  14
TORSDOF 6
ENDMDL
MODEL 5
REMARK VINA RESULT:      -6.6      4.123      7.773
REMARK  Name = 
REMARK  11 active torsions:
REMARK  status: ('A' for Active; 'I' for Inactive)
REMARK    1  A    between atoms: C_1  and  C_2
REMARK    2  A    between atoms: N_4  and  C_5
REMARK    3  A    between atoms: C_6  and  C_7
REMARK    4  A    between atoms: C_8  and  C_9
REMARK    5  A    between atoms: C_9  and  N_10
REMARK    6  A    between atoms: N_10  and  C_11
REMARK    7  A    between atoms: N_10  and  C_21
REMARK    8  A    between atoms: C_11  and  C_12
REMARK    9  A    between atoms: C_12  and  C_13
REMARK   10  A    between atoms: C_21  and  C_22
REMARK   11  A    between atoms: C_21  and  C_23
REMARK                            x       y       z     vdW  Elec       q    Type
REMARK                         _______ _______ _______ _____ _____    ______ ____
ROOT
ATOM      1  N   UNL     1       3.618   4.383  18.343  0.00  0.00    +0.000 NA
ENDROOT
BRANCH   1   2
ATOM      2  C   UNL     1       2.812   3.276  18.927  0.00  0.00    +0.000 C 
ATOM      3  C   UNL     1       2.880   3.222  20.467  0.00  0.00    +0.000 C 
ATOM      4  C   UNL     1       1.314   3.362  18.565  0.00  0.00    +0.000 C 
ENDBRANCH   1   2
BRANCH   1   5
ATOM      5  C   UNL     1       3.821   5.495  19.296  0.00  0.00    +0.000 C 
BRANCH   5  13
ATOM      6  C   UNL     1       4.038   7.396  16.603  0.00  0.00    +0.000 C 
ATOM      7  C   UNL     1       3.190   7.579  17.807  0.00  0.00    +0.000 A 
ATOM      8  N   UNL     1       2.430   8.676  17.899  0.00  0.00    +0.000 NA
ATOM      9  N   UNL     1       1.794   8.542  19.071  0.00  0.00    +0.000 N 
ATOM     10  C   UNL     1       1.007   9.648  19.563  0.00  0.00    +0.000 C 
ATOM     11  C   UNL     1       2.044   7.349  19.695  0.00  0.00    +0.000 A 
ATOM     12  C   UNL     1       1.352   6.894  20.926  0.00  0.00    +0.000 C 
ATOM     13  C   UNL     1       3.042   6.734  18.948  0.00  0.00    +0.000 A 
ENDBRANCH   5  13
ENDBRANCH   1   5
BRANCH   1  14
ATOM     14  C   UNL     1       4.899   3.927  17.748  0.00  0.00    +0.000 C 
BRANCH  14  15
ATOM     15  C   UNL     1       6.117   4.814  18.038  0.00  0.00    +0.000 C 
BRANCH  15  16
ATOM     16  C   UNL     1       6.809   5.230  16.755  0.00  0.00    +0.000 C 
ATOM     17  O   UNL     1       7.487   6.251  16.688  0.00  0.00    +0.000 OA
ATOM     18  N   UNL     1       6.536   4.352  15.726  0.00  0.00    +0.000 N 
ATOM     19  C   UNL     1       7.013   4.580  14.466  0.00  0.00    +0.000 A 
ATOM     20  N   UNL     1       7.959   5.392  14.075  0.00  0.00    +0.000 NA
ATOM     21  C   UNL     1       8.017   5.400  12.700  0.00  0.00    +0.000 A 
ATOM     22  C   UNL     1       7.107   4.580  12.065  0.00  0.00    +0.000 A 
ATOM     23  S   UNL     1       6.212   3.701  13.240  0.00  0.00    +0.000 S 
ATOM     24  H   UNL     1       5.829   3.641  15.825  0.00  0.00    +0.000 HD
ENDBRANCH  15  16
ENDBRANCH  14  15
ENDBRANCH   1  14
TORSDOF 6
ENDMDL
MODEL 6
REMARK VINA RESULT:      -6.6      1.877      1.960
REMARK  Name = 
REMARK  11 active torsions:
REMARK  status: ('A' for Active; 'I' for Inactive)
REMARK    1  A    between atoms: C_1  and  C_2
REMARK    2  A    between atoms: N_4  and  C_5
REMARK    3  A    between atoms: C_6  and  C_7
REMARK    4  A    between atoms: C_8  and  C_9
REMARK    5  A    between atoms: C_9  and  N_10
REMARK    6  A    between atoms: N_10  and  C_11
REMARK    7  A    between atoms: N_10  and  C_21
REMARK    8  A    between atoms: C_11  and  C_12
REMARK    9  A    between atoms: C_12  and  C_13
REMARK   10  A    between atoms: C_21  and  C_22
REMARK   11  A    between atoms: C_21  and  C_23
REMARK                            x       y       z     vdW  Elec       q    Type
REMARK                         _______ _______ _______ _____ _____    ______ ____
ROOT
ATOM      1  N   UNL     1       2.408   5.635  19.752  0.00  0.00    +0.000 NA
ENDROOT
BRANCH   1   2
ATOM      2  C   UNL     1       1.627   4.759  20.668  0.00  0.00    +0.000 C 
ATOM      3  C   UNL     1       0.684   3.792  19.926  0.00  0.00    +0.000 C 
ATOM      4  C   UNL     1       2.520   3.883  21.572  0.00  0.00    +0.000 C 
ENDBRANCH   1   2
BRANCH   1   5
ATOM      5  C   UNL     1       2.179   5.307  18.328  0.00  0.00    +0.000 C 
BRANCH   5  13
ATOM      6  C   UNL     1       2.933   2.153  17.698  0.00  0.00    +0.000 C 
ATOM      7  C   UNL     1       3.730   3.375  17.427  0.00  0.00    +0.000 A 
ATOM      8  N   UNL     1       4.956   3.240  16.909  0.00  0.00    +0.000 NA
ATOM      9  N   UNL     1       5.400   4.498  16.777  0.00  0.00    +0.000 N 
ATOM     10  C   UNL     1       6.776   4.712  16.394  0.00  0.00    +0.000 C 
ATOM     11  C   UNL     1       4.465   5.444  17.102  0.00  0.00    +0.000 A 
ATOM     12  C   UNL     1       4.654   6.902  16.902  0.00  0.00    +0.000 C 
ATOM     13  C   UNL     1       3.391   4.745  17.637  0.00  0.00    +0.000 A 
ENDBRANCH   5  13
ENDBRANCH   1   5
BRANCH   1  14
ATOM     14  C   UNL     1       2.221   7.083  20.020  0.00  0.00    +0.000 C 
BRANCH  14  15
ATOM     15  C   UNL     1       1.150   7.432  21.060  0.00  0.00    +0.000 C 
BRANCH  15  16
ATOM     16  C   UNL     1       1.166   8.912  21.387  0.00  0.00    +0.000 C 
ATOM     17  O   UNL     1       1.681   9.341  22.416  0.00  0.00    +0.000 OA
ATOM     18  N   UNL     1       0.514   9.651  20.421  0.00  0.00    +0.000 N 
ATOM     19  C   UNL     1       0.361  11.002  20.557  0.00  0.00    +0.000 A 
ATOM     20  N   UNL     1       0.981  11.826  21.358  0.00  0.00    +0.000 NA
ATOM     21  C   UNL     1       0.415  13.077  21.256  0.00  0.00    +0.000 A 
ATOM     22  C   UNL     1      -0.632  13.181  20.363  0.00  0.00    +0.000 A 
ATOM     23  S   UNL     1      -0.851  11.677  19.562  0.00  0.00    +0.000 S 
ATOM     24  H   UNL     1      -0.030   9.200  19.704  0.00  0.00    +0.000 HD
ENDBRANCH  15  16
ENDBRANCH  14  15
ENDBRANCH   1  14
TORSDOF 6
ENDMDL
MODEL 7
REMARK VINA RESULT:      -6.6      4.391      7.270
REMARK  Name = 
REMARK  11 active torsions:
REMARK  status: ('A' for Active; 'I' for Inactive)
REMARK    1  A    between atoms: C_1  and  C_2
REMARK    2  A    between atoms: N_4  and  C_5
REMARK    3  A    between atoms: C_6  and  C_7
REMARK    4  A    between atoms: C_8  and  C_9
REMARK    5  A    between atoms: C_9  and  N_10
REMARK    6  A    between atoms: N_10  and  C_11
REMARK    7  A    between atoms: N_10  and  C_21
REMARK    8  A    between atoms: C_11  and  C_12
REMARK    9  A    between atoms: C_12  and  C_13
REMARK   10  A    between atoms: C_21  and  C_22
REMARK   11  A    between atoms: C_21  and  C_23
REMARK                            x       y       z     vdW  Elec       q    Type
REMARK                         _______ _______ _______ _____ _____    ______ ____
ROOT
ATOM      1  N   UNL     1       5.987   5.974  17.836  0.00  0.00    +0.000 NA
ENDROOT
BRANCH   1   2
ATOM      2  C   UNL     1       5.848   5.060  16.669  0.00  0.00    +0.000 C 
ATOM      3  C   UNL     1       5.308   5.763  15.408  0.00  0.00    +0.000 C 
ATOM      4  C   UNL     1       7.180   4.398  16.258  0.00  0.00    +0.000 C 
ENDBRANCH   1   2
BRANCH   1   5
ATOM      5  C   UNL     1       5.638   5.315  19.113  0.00  0.00    +0.000 C 
BRANCH   5  13
ATOM      6  C   UNL     1       2.940   7.080  18.393  0.00  0.00    +0.000 C 
ATOM      7  C   UNL     1       3.036   5.707  18.949  0.00  0.00    +0.000 A 
ATOM      8  N   UNL     1       1.908   5.067  19.278  0.00  0.00    +0.000 NA
ATOM      9  N   UNL     1       2.323   3.876  19.731  0.00  0.00    +0.000 N 
ATOM     10  C   UNL     1       1.357   2.986  20.332  0.00  0.00    +0.000 C 
ATOM     11  C   UNL     1       3.675   3.689  19.616  0.00  0.00    +0.000 A 
ATOM     12  C   UNL     1       4.364   2.407  19.906  0.00  0.00    +0.000 C 
ATOM     13  C   UNL     1       4.192   4.912  19.206  0.00  0.00    +0.000 A 
ENDBRANCH   5  13
ENDBRANCH   1   5
BRANCH   1  14
ATOM     14  C   UNL     1       7.310   6.643  17.906  0.00  0.00    +0.000 C 
BRANCH  14  15
ATOM     15  C   UNL     1       7.350   8.089  17.397  0.00  0.00    +0.000 C 
BRANCH  15  16
ATOM     16  C   UNL     1       8.335   8.923  18.193  0.00  0.00    +0.000 C 
ATOM     17  O   UNL     1       8.923   8.470  19.170  0.00  0.00    +0.000 OA
ATOM     18  N   UNL     1       8.427  10.207  17.696  0.00  0.00    +0.000 N 
ATOM     19  C   UNL     1       9.214  11.140  18.309  0.00  0.00    +0.000 A 
ATOM     20  N   UNL     1      10.164  10.969  19.189  0.00  0.00    +0.000 NA
ATOM     21  C   UNL     1      10.600  12.196  19.638  0.00  0.00    +0.000 A 
ATOM     22  C   UNL     1       9.968  13.287  19.080  0.00  0.00    +0.000 A 
ATOM     23  S   UNL     1       8.855  12.755  17.884  0.00  0.00    +0.000 S 
ATOM     24  H   UNL     1       7.777  10.542  17.003  0.00  0.00    +0.000 HD
ENDBRANCH  15  16
ENDBRANCH  14  15
ENDBRANCH   1  14
TORSDOF 6
ENDMDL
MODEL 8
REMARK VINA RESULT:      -6.6      3.841      7.467
REMARK  Name = 
REMARK  11 active torsions:
REMARK  status: ('A' for Active; 'I' for Inactive)
REMARK    1  A    between atoms: C_1  and  C_2
REMARK    2  A    between atoms: N_4  and  C_5
REMARK    3  A    between atoms: C_6  and  C_7
REMARK    4  A    between atoms: C_8  and  C_9
REMARK    5  A    between atoms: C_9  and  N_10
REMARK    6  A    between atoms: N_10  and  C_11
REMARK    7  A    between atoms: N_10  and  C_21
REMARK    8  A    between atoms: C_11  and  C_12
REMARK    9  A    between atoms: C_12  and  C_13
REMARK   10  A    between atoms: C_21  and  C_22
REMARK   11  A    between atoms: C_21  and  C_23
REMARK                            x       y       z     vdW  Elec       q    Type
REMARK                         _______ _______ _______ _____ _____    ______ ____
ROOT
ATOM      1  N   UNL     1       3.902   4.614  18.770  0.00  0.00    +0.000 NA
ENDROOT
BRANCH   1   2
ATOM      2  C   UNL     1       2.756   3.667  18.855  0.00  0.00    +0.000 C 
ATOM      3  C   UNL     1       1.820   3.735  17.631  0.00  0.00    +0.000 C 
ATOM      4  C   UNL     1       3.197   2.194  18.979  0.00  0.00    +0.000 C 
ENDBRANCH   1   2
BRANCH   1   5
ATOM      5  C   UNL     1       3.738   5.778  19.668  0.00  0.00    +0.000 C 
BRANCH   5  13
ATOM      6  C   UNL     1       4.114   7.046  16.641  0.00  0.00    +0.000 C 
ATOM      7  C   UNL     1       3.232   7.506  17.742  0.00  0.00    +0.000 A 
ATOM      8  N   UNL     1       2.508   8.617  17.564  0.00  0.00    +0.000 NA
ATOM      9  N   UNL     1       1.827   8.756  18.710  0.00  0.00    +0.000 N 
ATOM     10  C   UNL     1       1.062   9.963  18.921  0.00  0.00    +0.000 C 
ATOM     11  C   UNL     1       2.014   7.720  19.585  0.00  0.00    +0.000 A 
ATOM     12  C   UNL     1       1.265   7.560  20.856  0.00  0.00    +0.000 C 
ATOM     13  C   UNL     1       3.015   6.933  19.030  0.00  0.00    +0.000 A 
ENDBRANCH   5  13
ENDBRANCH   1   5
BRANCH   1  14
ATOM     14  C   UNL     1       5.221   3.960  18.953  0.00  0.00    +0.000 C 
BRANCH  14  15
ATOM     15  C   UNL     1       6.426   4.905  19.026  0.00  0.00    +0.000 C 
BRANCH  15  16
ATOM     16  C   UNL     1       6.951   5.232  17.642  0.00  0.00    +0.000 C 
ATOM     17  O   UNL     1       7.644   6.223  17.431  0.00  0.00    +0.000 OA
ATOM     18  N   UNL     1       6.518   4.314  16.708  0.00  0.00    +0.000 N 
ATOM     19  C   UNL     1       6.828   4.461  15.385  0.00  0.00    +0.000 A 
ATOM     20  N   UNL     1       7.735   5.218  14.829  0.00  0.00    +0.000 NA
ATOM     21  C   UNL     1       7.608   5.156  13.460  0.00  0.00    +0.000 A 
ATOM     22  C   UNL     1       6.599   4.338  12.997  0.00  0.00    +0.000 A 
ATOM     23  S   UNL     1       5.845   3.552  14.326  0.00  0.00    +0.000 S 
ATOM     24  H   UNL     1       5.810   3.635  16.938  0.00  0.00    +0.000 HD
ENDBRANCH  15  16
ENDBRANCH  14  15
ENDBRANCH   1  14
TORSDOF 6
ENDMDL
MODEL 9
REMARK VINA RESULT:      -6.6      3.529      7.186
REMARK  Name = 
REMARK  11 active torsions:
REMARK  status: ('A' for Active; 'I' for Inactive)
REMARK    1  A    between atoms: C_1  and  C_2
REMARK    2  A    between atoms: N_4  and  C_5
REMARK    3  A    between atoms: C_6  and  C_7
REMARK    4  A    between atoms: C_8  and  C_9
REMARK    5  A    between atoms: C_9  and  N_10
REMARK    6  A    between atoms: N_10  and  C_11
REMARK    7  A    between atoms: N_10  and  C_21
REMARK    8  A    between atoms: C_11  and  C_12
REMARK    9  A    between atoms: C_12  and  C_13
REMARK   10  A    between atoms: C_21  and  C_22
REMARK   11  A    between atoms: C_21  and  C_23
REMARK                            x       y       z     vdW  Elec       q    Type
REMARK                         _______ _______ _______ _____ _____    ______ ____
ROOT
ATOM      1  N   UNL     1       2.500   4.560  19.167  0.00  0.00    +0.000 NA
ENDROOT
BRANCH   1   2
ATOM      2  C   UNL     1       1.348   3.896  19.837  0.00  0.00    +0.000 C 
ATOM      3  C   UNL     1       0.888   2.611  19.122  0.00  0.00    +0.000 C 
ATOM      4  C   UNL     1       1.648   3.494  21.297  0.00  0.00    +0.000 C 
ENDBRANCH   1   2
BRANCH   1   5
ATOM      5  C   UNL     1       2.968   5.755  19.902  0.00  0.00    +0.000 C 
BRANCH   5  13
ATOM      6  C   UNL     1       3.722   7.090  16.977  0.00  0.00    +0.000 C 
ATOM      7  C   UNL     1       2.878   7.643  18.064  0.00  0.00    +0.000 A 
ATOM      8  N   UNL     1       2.372   8.873  17.923  0.00  0.00    +0.000 NA
ATOM      9  N   UNL     1       1.666   9.073  19.045  0.00  0.00    +0.000 N 
ATOM     10  C   UNL     1       1.115  10.384  19.294  0.00  0.00    +0.000 C 
ATOM     11  C   UNL     1       1.620   7.976  19.863  0.00  0.00    +0.000 A 
ATOM     12  C   UNL     1       0.787   7.887  21.088  0.00  0.00    +0.000 C 
ATOM     13  C   UNL     1       2.495   7.052  19.305  0.00  0.00    +0.000 A 
ENDBRANCH   5  13
ENDBRANCH   1   5
BRANCH   1  14
ATOM     14  C   UNL     1       3.617   3.631  18.860  0.00  0.00    +0.000 C 
BRANCH  14  15
ATOM     15  C   UNL     1       4.984   4.024  19.435  0.00  0.00    +0.000 C 
BRANCH  15  16
ATOM     16  C   UNL     1       5.930   4.474  18.339  0.00  0.00    +0.000 C 
ATOM     17  O   UNL     1       6.832   5.278  18.555  0.00  0.00    +0.000 OA
ATOM     18  N   UNL     1       5.608   3.901  17.126  0.00  0.00    +0.000 N 
ATOM     19  C   UNL     1       6.300   4.224  15.993  0.00  0.00    +0.000 A 
ATOM     20  N   UNL     1       7.456   4.820  15.874  0.00  0.00    +0.000 NA
ATOM     21  C   UNL     1       7.710   5.066  14.543  0.00  0.00    +0.000 A 
ATOM     22  C   UNL     1       6.733   4.640  13.667  0.00  0.00    +0.000 A 
ATOM     23  S   UNL     1       5.498   3.825  14.540  0.00  0.00    +0.000 S 
ATOM     24  H   UNL     1       4.746   3.393  17.006  0.00  0.00    +0.000 HD
ENDBRANCH  15  16
ENDBRANCH  14  15
ENDBRANCH   1  14
TORSDOF 6
ENDMDL
