MODEL 1
REMARK VINA RESULT:      -8.0      0.000      0.000
REMARK  Name = 
REMARK  9 active torsions:
REMARK  status: ('A' for Active; 'I' for Inactive)
REMARK    1  A    between atoms: C_1  and  N_2
REMARK    2  A    between atoms: N_2  and  C_3
REMARK    3  A    between atoms: C_3  and  C_4
REMARK    4  A    between atoms: C_5  and  C_6
REMARK    5  A    between atoms: C_9  and  C_10
REMARK    6  A    between atoms: C_10  and  C_11
REMARK    7  A    between atoms: C_11  and  C_12
REMARK    8  A    between atoms: C_11  and  N_15
REMARK    9  A    between atoms: C_12  and  O_14
REMARK                            x       y       z     vdW  Elec       q    Type
REMARK                         _______ _______ _______ _____ _____    ______ ____
ROOT
ATOM      1  C   UNL     1       1.460   9.006  19.174  0.00  0.00    +0.000 A 
ATOM      2  C   UNL     1       2.048   8.990  17.906  0.00  0.00    +0.000 A 
ATOM      3  C   UNL     1       2.848   7.914  17.512  0.00  0.00    +0.000 A 
ATOM      4  C   UNL     1       3.060   6.838  18.383  0.00  0.00    +0.000 A 
ATOM      5  C   UNL     1       2.520   6.890  19.676  0.00  0.00    +0.000 A 
ATOM      6  C   UNL     1       1.717   7.963  20.066  0.00  0.00    +0.000 A 
ENDROOT
BRANCH   1   8
ATOM      7  C   UNL     1       0.442  10.512  20.793  0.00  0.00    +0.000 C 
ATOM      8  C   UNL     1       0.513  10.061  19.530  0.00  0.00    +0.000 C 
BRANCH   7   9
ATOM      9  C   UNL     1      -0.484  11.594  21.268  0.00  0.00    +0.000 C 
BRANCH   9  11
ATOM     10  C   UNL     1      -0.869  10.119  23.248  0.00  0.00    +0.000 C 
ATOM     11  N   UNL     1      -0.799  11.466  22.693  0.00  0.00    +0.000 N 
ATOM     12  C   UNL     1      -1.815  12.326  23.138  0.00  0.00    +0.000 A 
ATOM     13  C   UNL     1      -1.594  13.705  23.115  0.00  0.00    +0.000 A 
ATOM     14  C   UNL     1      -2.600  14.582  23.517  0.00  0.00    +0.000 A 
ATOM     15  C   UNL     1      -3.816  14.065  23.930  0.00  0.00    +0.000 A 
ATOM     16  C   UNL     1      -3.961  12.690  23.944  0.00  0.00    +0.000 A 
ATOM     17  N   UNL     1      -2.990  11.823  23.578  0.00  0.00    +0.000 NA
ENDBRANCH   9  11
ENDBRANCH   7   9
ENDBRANCH   1   8
BRANCH   4  18
ATOM     18  C   UNL     1       3.740   5.580  17.906  0.00  0.00    +0.000 C 
BRANCH  18  19
ATOM     19  C   UNL     1       5.273   5.560  17.856  0.00  0.00    +0.000 C 
BRANCH  19  20
ATOM     20  N   UNL     1       5.760   5.081  16.548  0.00  0.00    +0.000 N 
ATOM     21  C   UNL     1       4.970   4.486  15.594  0.00  0.00    +0.000 A 
ATOM     22  C   UNL     1       5.762   4.192  14.504  0.00  0.00    +0.000 A 
ATOM     23  C   UNL     1       7.070   4.620  14.804  0.00  0.00    +0.000 A 
ATOM     24  C   UNL     1       7.045   5.174  16.065  0.00  0.00    +0.000 A 
ENDBRANCH  19  20
BRANCH  19  25
ATOM     25  C   UNL     1       5.863   4.757  19.007  0.00  0.00    +0.000 C 
ATOM     26  O   UNL     1       6.622   5.242  19.839  0.00  0.00    +0.000 OA
BRANCH  25  27
ATOM     27  O   UNL     1       5.471   3.464  19.106  0.00  0.00    +0.000 OA
ATOM     28  H   UNL     1       4.508   3.304  19.070  0.00  0.00    +0.000 HD
ENDBRANCH  25  27
ENDBRANCH  19  25
ENDBRANCH  18  19
ENDBRANCH   4  18
TORSDOF 8
ENDMDL
MODEL 2
REMARK VINA RESULT:      -7.9      2.790     10.093
REMARK  Name = 
REMARK  9 active torsions:
REMARK  status: ('A' for Active; 'I' for Inactive)
REMARK    1  A    between atoms: C_1  and  N_2
REMARK    2  A    between atoms: N_2  and  C_3
REMARK    3  A    between atoms: C_3  and  C_4
REMARK    4  A    between atoms: C_5  and  C_6
REMARK    5  A    between atoms: C_9  and  C_10
REMARK    6  A    between atoms: C_10  and  C_11
REMARK    7  A    between atoms: C_11  and  C_12
REMARK    8  A    between atoms: C_11  and  N_15
REMARK    9  A    between atoms: C_12  and  O_14
REMARK                            x       y       z     vdW  Elec       q    Type
REMARK                         _______ _______ _______ _____ _____    ______ ____
ROOT
ATOM      1  C   UNL     1       2.186   7.406  18.551  0.00  0.00    +0.000 A 
ATOM      2  C   UNL     1       1.820   8.608  17.937  0.00  0.00    +0.000 A 
ATOM      3  C   UNL     1       1.303   9.660  18.699  0.00  0.00    +0.000 A 
ATOM      4  C   UNL     1       1.157   9.521  20.084  0.00  0.00    +0.000 A 
ATOM      5  C   UNL     1       1.467   8.291  20.683  0.00  0.00    +0.000 A 
ATOM      6  C   UNL     1       1.988   7.244  19.923  0.00  0.00    +0.000 A 
ENDROOT
BRANCH   1   8
ATOM      7  C   UNL     1       2.635   5.067  18.049  0.00  0.00    +0.000 C 
ATOM      8  C   UNL     1       2.856   6.363  17.776  0.00  0.00    +0.000 C 
BRANCH   7   9
ATOM      9  C   UNL     1       3.259   3.915  17.316  0.00  0.00    +0.000 C 
BRANCH   9  11
ATOM     10  C   UNL     1       4.126   2.615  19.266  0.00  0.00    +0.000 C 
ATOM     11  N   UNL     1       4.403   3.353  18.038  0.00  0.00    +0.000 N 
ATOM     12  C   UNL     1       5.511   4.211  18.118  0.00  0.00    +0.000 A 
ATOM     13  C   UNL     1       6.182   4.562  16.944  0.00  0.00    +0.000 A 
ATOM     14  C   UNL     1       7.262   5.441  16.992  0.00  0.00    +0.000 A 
ATOM     15  C   UNL     1       7.651   5.960  18.215  0.00  0.00    +0.000 A 
ATOM     16  C   UNL     1       6.954   5.557  19.339  0.00  0.00    +0.000 A 
ATOM     17  N   UNL     1       5.918   4.689  19.315  0.00  0.00    +0.000 NA
ENDBRANCH   9  11
ENDBRANCH   7   9
ENDBRANCH   1   8
BRANCH   4  18
ATOM     18  C   UNL     1       0.803  10.705  20.947  0.00  0.00    +0.000 C 
BRANCH  18  19
ATOM     19  C   UNL     1      -0.459  10.619  21.815  0.00  0.00    +0.000 C 
BRANCH  19  20
ATOM     20  N   UNL     1      -0.865  11.949  22.304  0.00  0.00    +0.000 N 
ATOM     21  C   UNL     1      -1.920  12.178  23.154  0.00  0.00    +0.000 A 
ATOM     22  C   UNL     1      -1.985  13.532  23.405  0.00  0.00    +0.000 A 
ATOM     23  C   UNL     1      -0.939  14.145  22.687  0.00  0.00    +0.000 A 
ATOM     24  C   UNL     1      -0.255  13.150  22.022  0.00  0.00    +0.000 A 
ENDBRANCH  19  20
BRANCH  19  25
ATOM     25  C   UNL     1      -0.289   9.625  22.956  0.00  0.00    +0.000 C 
ATOM     26  O   UNL     1       0.509   9.791  23.872  0.00  0.00    +0.000 OA
BRANCH  25  27
ATOM     27  O   UNL     1      -1.108   8.545  22.945  0.00  0.00    +0.000 OA
ATOM     28  H   UNL     1      -0.794   7.773  22.436  0.00  0.00    +0.000 HD
ENDBRANCH  25  27
ENDBRANCH  19  25
ENDBRANCH  18  19
ENDBRANCH   4  18
TORSDOF 8
ENDMDL
MODEL 3
REMARK VINA RESULT:      -7.9      6.714      8.569
REMARK  Name = 
REMARK  9 active torsions:
REMARK  status: ('A' for Active; 'I' for Inactive)
REMARK    1  A    between atoms: C_1  and  N_2
REMARK    2  A    between atoms: N_2  and  C_3
REMARK    3  A    between atoms: C_3  and  C_4
REMARK    4  A    between atoms: C_5  and  C_6
REMARK    5  A    between atoms: C_9  and  C_10
REMARK    6  A    between atoms: C_10  and  C_11
REMARK    7  A    between atoms: C_11  and  C_12
REMARK    8  A    between atoms: C_11  and  N_15
REMARK    9  A    between atoms: C_12  and  O_14
REMARK                            x       y       z     vdW  Elec       q    Type
REMARK                         _______ _______ _______ _____ _____    ______ ____
ROOT
ATOM      1  C   UNL     1       7.613   7.461  17.874  0.00  0.00    +0.000 A 
ATOM      2  C   UNL     1       6.348   7.244  17.318  0.00  0.00    +0.000 A 
ATOM      3  C   UNL     1       5.555   6.183  17.761  0.00  0.00    +0.000 A 
ATOM      4  C   UNL     1       6.017   5.333  18.774  0.00  0.00    +0.000 A 
ATOM      5  C   UNL     1       7.311   5.517  19.281  0.00  0.00    +0.000 A 
ATOM      6  C   UNL     1       8.100   6.580  18.841  0.00  0.00    +0.000 A 
ENDROOT
BRANCH   1   8
ATOM      7  C   UNL     1       8.519   9.662  18.382  0.00  0.00    +0.000 C 
ATOM      8  C   UNL     1       8.380   8.650  17.510  0.00  0.00    +0.000 C 
BRANCH   7   9
ATOM      9  C   UNL     1       9.289  10.924  18.119  0.00  0.00    +0.000 C 
BRANCH   9  11
ATOM     10  C   UNL     1       9.362  10.939  20.617  0.00  0.00    +0.000 C 
ATOM     11  N   UNL     1       9.779  11.541  19.355  0.00  0.00    +0.000 N 
ATOM     12  C   UNL     1       9.752  12.943  19.348  0.00  0.00    +0.000 A 
ATOM     13  C   UNL     1      10.574  13.633  18.454  0.00  0.00    +0.000 A 
ATOM     14  C   UNL     1      10.539  15.024  18.402  0.00  0.00    +0.000 A 
ATOM     15  C   UNL     1       9.676  15.707  19.243  0.00  0.00    +0.000 A 
ATOM     16  C   UNL     1       8.903  14.963  20.115  0.00  0.00    +0.000 A 
ATOM     17  N   UNL     1       8.939  13.614  20.195  0.00  0.00    +0.000 NA
ENDBRANCH   9  11
ENDBRANCH   7   9
ENDBRANCH   1   8
BRANCH   4  18
ATOM     18  C   UNL     1       5.101   4.319  19.410  0.00  0.00    +0.000 C 
BRANCH  18  19
ATOM     19  C   UNL     1       3.851   3.884  18.634  0.00  0.00    +0.000 C 
BRANCH  19  20
ATOM     20  N   UNL     1       2.722   3.615  19.545  0.00  0.00    +0.000 N 
ATOM     21  C   UNL     1       1.400   3.817  19.227  0.00  0.00    +0.000 A 
ATOM     22  C   UNL     1       0.636   3.440  20.310  0.00  0.00    +0.000 A 
ATOM     23  C   UNL     1       1.517   2.995  21.316  0.00  0.00    +0.000 A 
ATOM     24  C   UNL     1       2.798   3.103  20.820  0.00  0.00    +0.000 A 
ENDBRANCH  19  20
BRANCH  19  25
ATOM     25  C   UNL     1       4.138   2.698  17.724  0.00  0.00    +0.000 C 
ATOM     26  O   UNL     1       3.583   1.612  17.849  0.00  0.00    +0.000 OA
BRANCH  25  27
ATOM     27  O   UNL     1       5.019   2.908  16.716  0.00  0.00    +0.000 OA
ATOM     28  H   UNL     1       5.578   3.705  16.793  0.00  0.00    +0.000 HD
ENDBRANCH  25  27
ENDBRANCH  19  25
ENDBRANCH  18  19
ENDBRANCH   4  18
TORSDOF 8
ENDMDL
MODEL 4
REMARK VINA RESULT:      -7.9      4.076      5.134
REMARK  Name = 
REMARK  9 active torsions:
REMARK  status: ('A' for Active; 'I' for Inactive)
REMARK    1  A    between atoms: C_1  and  N_2
REMARK    2  A    between atoms: N_2  and  C_3
REMARK    3  A    between atoms: C_3  and  C_4
REMARK    4  A    between atoms: C_5  and  C_6
REMARK    5  A    between atoms: C_9  and  C_10
REMARK    6  A    between atoms: C_10  and  C_11
REMARK    7  A    between atoms: C_11  and  C_12
REMARK    8  A    between atoms: C_11  and  N_15
REMARK    9  A    between atoms: C_12  and  O_14
REMARK                            x       y       z     vdW  Elec       q    Type
REMARK                         _______ _______ _______ _____ _____    ______ ____
ROOT
ATOM      1  C   UNL     1       0.808   9.504  18.962  0.00  0.00    +0.000 A 
ATOM      2  C   UNL     1       1.494   9.212  17.779  0.00  0.00    +0.000 A 
ATOM      3  C   UNL     1       2.389   8.139  17.729  0.00  0.00    +0.000 A 
ATOM      4  C   UNL     1       2.597   7.343  18.862  0.00  0.00    +0.000 A 
ATOM      5  C   UNL     1       1.955   7.681  20.062  0.00  0.00    +0.000 A 
ATOM      6  C   UNL     1       1.058   8.749  20.108  0.00  0.00    +0.000 A 
ENDROOT
BRANCH   1   8
ATOM      7  C   UNL     1      -1.364  10.363  18.274  0.00  0.00    +0.000 C 
ATOM      8  C   UNL     1      -0.229  10.535  18.971  0.00  0.00    +0.000 C 
BRANCH   7   9
ATOM      9  C   UNL     1      -2.496  11.347  18.219  0.00  0.00    +0.000 C 
BRANCH   9  11
ATOM     10  C   UNL     1      -3.128  11.112  15.813  0.00  0.00    +0.000 C 
ATOM     11  N   UNL     1      -3.500  10.980  17.217  0.00  0.00    +0.000 N 
ATOM     12  C   UNL     1      -4.798  11.422  17.514  0.00  0.00    +0.000 A 
ATOM     13  C   UNL     1      -5.452  10.904  18.634  0.00  0.00    +0.000 A 
ATOM     14  C   UNL     1      -6.727  11.353  18.971  0.00  0.00    +0.000 A 
ATOM     15  C   UNL     1      -7.328  12.320  18.183  0.00  0.00    +0.000 A 
ATOM     16  C   UNL     1      -6.632  12.777  17.079  0.00  0.00    +0.000 A 
ATOM     17  N   UNL     1      -5.404  12.338  16.724  0.00  0.00    +0.000 NA
ENDBRANCH   9  11
ENDBRANCH   7   9
ENDBRANCH   1   8
BRANCH   4  18
ATOM     18  C   UNL     1       3.391   6.065  18.773  0.00  0.00    +0.000 C 
BRANCH  18  19
ATOM     19  C   UNL     1       2.650   4.777  18.389  0.00  0.00    +0.000 C 
BRANCH  19  20
ATOM     20  N   UNL     1       2.277   3.997  19.584  0.00  0.00    +0.000 N 
ATOM     21  C   UNL     1       3.158   3.604  20.563  0.00  0.00    +0.000 A 
ATOM     22  C   UNL     1       2.451   2.915  21.525  0.00  0.00    +0.000 A 
ATOM     23  C   UNL     1       1.103   2.886  21.120  0.00  0.00    +0.000 A 
ATOM     24  C   UNL     1       1.015   3.567  19.925  0.00  0.00    +0.000 A 
ENDBRANCH  19  20
BRANCH  19  25
ATOM     25  C   UNL     1       3.448   3.944  17.396  0.00  0.00    +0.000 C 
ATOM     26  O   UNL     1       3.320   2.729  17.289  0.00  0.00    +0.000 OA
BRANCH  25  27
ATOM     27  O   UNL     1       4.294   4.619  16.581  0.00  0.00    +0.000 OA
ATOM     28  H   UNL     1       4.772   4.082  15.920  0.00  0.00    +0.000 HD
ENDBRANCH  25  27
ENDBRANCH  19  25
ENDBRANCH  18  19
ENDBRANCH   4  18
TORSDOF 8
ENDMDL
MODEL 5
REMARK VINA RESULT:      -7.9      5.402      8.587
REMARK  Name = 
REMARK  9 active torsions:
REMARK  status: ('A' for Active; 'I' for Inactive)
REMARK    1  A    between atoms: C_1  and  N_2
REMARK    2  A    between atoms: N_2  and  C_3
REMARK    3  A    between atoms: C_3  and  C_4
REMARK    4  A    between atoms: C_5  and  C_6
REMARK    5  A    between atoms: C_9  and  C_10
REMARK    6  A    between atoms: C_10  and  C_11
REMARK    7  A    between atoms: C_11  and  C_12
REMARK    8  A    between atoms: C_11  and  N_15
REMARK    9  A    between atoms: C_12  and  O_14
REMARK                            x       y       z     vdW  Elec       q    Type
REMARK                         _______ _______ _______ _____ _____    ______ ____
ROOT
ATOM      1  C   UNL     1       7.860   8.088  17.941  0.00  0.00    +0.000 A 
ATOM      2  C   UNL     1       6.827   7.877  17.023  0.00  0.00    +0.000 A 
ATOM      3  C   UNL     1       6.117   6.673  17.024  0.00  0.00    +0.000 A 
ATOM      4  C   UNL     1       6.430   5.672  17.951  0.00  0.00    +0.000 A 
ATOM      5  C   UNL     1       7.509   5.864  18.826  0.00  0.00    +0.000 A 
ATOM      6  C   UNL     1       8.213   7.069  18.827  0.00  0.00    +0.000 A 
ENDROOT
BRANCH   1   8
ATOM      7  C   UNL     1       9.064   9.801  19.182  0.00  0.00    +0.000 C 
ATOM      8  C   UNL     1       8.505   9.397  18.030  0.00  0.00    +0.000 C 
BRANCH   7   9
ATOM      9  C   UNL     1       9.758  11.116  19.386  0.00  0.00    +0.000 C 
BRANCH   9  11
ATOM     10  C   UNL     1      11.438  11.743  17.644  0.00  0.00    +0.000 C 
ATOM     11  N   UNL     1      10.058  11.786  18.117  0.00  0.00    +0.000 N 
ATOM     12  C   UNL     1       9.433  13.032  17.963  0.00  0.00    +0.000 A 
ATOM     13  C   UNL     1       8.040  13.087  17.881  0.00  0.00    +0.000 A 
ATOM     14  C   UNL     1       7.394  14.316  17.764  0.00  0.00    +0.000 A 
ATOM     15  C   UNL     1       8.152  15.474  17.736  0.00  0.00    +0.000 A 
ATOM     16  C   UNL     1       9.527  15.347  17.803  0.00  0.00    +0.000 A 
ATOM     17  N   UNL     1      10.173  14.162  17.896  0.00  0.00    +0.000 NA
ENDBRANCH   9  11
ENDBRANCH   7   9
ENDBRANCH   1   8
BRANCH   4  18
ATOM     18  C   UNL     1       5.547   4.460  18.108  0.00  0.00    +0.000 C 
BRANCH  18  19
ATOM     19  C   UNL     1       4.071   4.582  17.707  0.00  0.00    +0.000 C 
BRANCH  19  20
ATOM     20  N   UNL     1       3.303   5.338  18.715  0.00  0.00    +0.000 N 
ATOM     21  C   UNL     1       2.897   4.831  19.926  0.00  0.00    +0.000 A 
ATOM     22  C   UNL     1       2.225   5.824  20.604  0.00  0.00    +0.000 A 
ATOM     23  C   UNL     1       2.221   6.969  19.783  0.00  0.00    +0.000 A 
ATOM     24  C   UNL     1       2.899   6.650  18.627  0.00  0.00    +0.000 A 
ENDBRANCH  19  20
BRANCH  19  25
ATOM     25  C   UNL     1       3.450   3.221  17.428  0.00  0.00    +0.000 C 
ATOM     26  O   UNL     1       3.982   2.165  17.754  0.00  0.00    +0.000 OA
BRANCH  25  27
ATOM     27  O   UNL     1       2.233   3.221  16.831  0.00  0.00    +0.000 OA
ATOM     28  H   UNL     1       1.870   2.345  16.598  0.00  0.00    +0.000 HD
ENDBRANCH  25  27
ENDBRANCH  19  25
ENDBRANCH  18  19
ENDBRANCH   4  18
TORSDOF 8
ENDMDL
MODEL 6
REMARK VINA RESULT:      -7.8      1.221      1.581
REMARK  Name = 
REMARK  9 active torsions:
REMARK  status: ('A' for Active; 'I' for Inactive)
REMARK    1  A    between atoms: C_1  and  N_2
REMARK    2  A    between atoms: N_2  and  C_3
REMARK    3  A    between atoms: C_3  and  C_4
REMARK    4  A    between atoms: C_5  and  C_6
REMARK    5  A    between atoms: C_9  and  C_10
REMARK    6  A    between atoms: C_10  and  C_11
REMARK    7  A    between atoms: C_11  and  C_12
REMARK    8  A    between atoms: C_11  and  N_15
REMARK    9  A    between atoms: C_12  and  O_14
REMARK                            x       y       z     vdW  Elec       q    Type
REMARK                         _______ _______ _______ _____ _____    ______ ____
ROOT
ATOM      1  C   UNL     1       1.704   8.411  19.452  0.00  0.00    +0.000 A 
ATOM      2  C   UNL     1       2.279   8.152  18.204  0.00  0.00    +0.000 A 
ATOM      3  C   UNL     1       2.744   6.871  17.893  0.00  0.00    +0.000 A 
ATOM      4  C   UNL     1       2.627   5.834  18.827  0.00  0.00    +0.000 A 
ATOM      5  C   UNL     1       2.109   6.115  20.099  0.00  0.00    +0.000 A 
ATOM      6  C   UNL     1       1.641   7.394  20.406  0.00  0.00    +0.000 A 
ENDROOT
BRANCH   1   8
ATOM      7  C   UNL     1       0.440   9.928  20.875  0.00  0.00    +0.000 C 
ATOM      8  C   UNL     1       1.093   9.711  19.722  0.00  0.00    +0.000 C 
BRANCH   7   9
ATOM      9  C   UNL     1      -0.216  11.223  21.261  0.00  0.00    +0.000 C 
BRANCH   9  11
ATOM     10  C   UNL     1      -0.758   9.962  23.350  0.00  0.00    +0.000 C 
ATOM     11  N   UNL     1      -0.606  11.246  22.673  0.00  0.00    +0.000 N 
ATOM     12  C   UNL     1      -1.606  12.181  22.979  0.00  0.00    +0.000 A 
ATOM     13  C   UNL     1      -1.328  13.542  22.837  0.00  0.00    +0.000 A 
ATOM     14  C   UNL     1      -2.315  14.490  23.099  0.00  0.00    +0.000 A 
ATOM     15  C   UNL     1      -3.571  14.060  23.494  0.00  0.00    +0.000 A 
ATOM     16  C   UNL     1      -3.773  12.699  23.631  0.00  0.00    +0.000 A 
ATOM     17  N   UNL     1      -2.821  11.766  23.402  0.00  0.00    +0.000 NA
ENDBRANCH   9  11
ENDBRANCH   7   9
ENDBRANCH   1   8
BRANCH   4  18
ATOM     18  C   UNL     1       2.926   4.408  18.440  0.00  0.00    +0.000 C 
BRANCH  18  19
ATOM     19  C   UNL     1       4.285   3.817  18.839  0.00  0.00    +0.000 C 
BRANCH  19  20
ATOM     20  N   UNL     1       5.318   4.120  17.831  0.00  0.00    +0.000 N 
ATOM     21  C   UNL     1       5.164   3.932  16.478  0.00  0.00    +0.000 A 
ATOM     22  C   UNL     1       6.323   4.341  15.854  0.00  0.00    +0.000 A 
ATOM     23  C   UNL     1       7.207   4.790  16.855  0.00  0.00    +0.000 A 
ATOM     24  C   UNL     1       6.564   4.654  18.066  0.00  0.00    +0.000 A 
ENDBRANCH  19  20
BRANCH  19  25
ATOM     25  C   UNL     1       4.188   2.324  19.119  0.00  0.00    +0.000 C 
ATOM     26  O   UNL     1       3.367   1.595  18.573  0.00  0.00    +0.000 OA
BRANCH  25  27
ATOM     27  O   UNL     1       5.098   1.809  19.981  0.00  0.00    +0.000 OA
ATOM     28  H   UNL     1       4.737   1.380  20.780  0.00  0.00    +0.000 HD
ENDBRANCH  25  27
ENDBRANCH  19  25
ENDBRANCH  18  19
ENDBRANCH   4  18
TORSDOF 8
ENDMDL
MODEL 7
REMARK VINA RESULT:      -7.7      5.922      8.962
REMARK  Name = 
REMARK  9 active torsions:
REMARK  status: ('A' for Active; 'I' for Inactive)
REMARK    1  A    between atoms: C_1  and  N_2
REMARK    2  A    between atoms: N_2  and  C_3
REMARK    3  A    between atoms: C_3  and  C_4
REMARK    4  A    between atoms: C_5  and  C_6
REMARK    5  A    between atoms: C_9  and  C_10
REMARK    6  A    between atoms: C_10  and  C_11
REMARK    7  A    between atoms: C_11  and  C_12
REMARK    8  A    between atoms: C_11  and  N_15
REMARK    9  A    between atoms: C_12  and  O_14
REMARK                            x       y       z     vdW  Elec       q    Type
REMARK                         _______ _______ _______ _____ _____    ______ ____
ROOT
ATOM      1  C   UNL     1       7.703   7.578  17.798  0.00  0.00    +0.000 A 
ATOM      2  C   UNL     1       6.581   7.290  17.015  0.00  0.00    +0.000 A 
ATOM      3  C   UNL     1       5.829   6.137  17.257  0.00  0.00    +0.000 A 
ATOM      4  C   UNL     1       6.189   5.267  18.293  0.00  0.00    +0.000 A 
ATOM      5  C   UNL     1       7.351   5.528  19.032  0.00  0.00    +0.000 A 
ATOM      6  C   UNL     1       8.098   6.682  18.793  0.00  0.00    +0.000 A 
ENDROOT
BRANCH   1   8
ATOM      7  C   UNL     1       8.565   9.676  18.683  0.00  0.00    +0.000 C 
ATOM      8  C   UNL     1       8.402   8.851  17.636  0.00  0.00    +0.000 C 
BRANCH   7   9
ATOM      9  C   UNL     1       9.272  10.999  18.634  0.00  0.00    +0.000 C 
BRANCH   9  11
ATOM     10  C   UNL     1       9.193  11.026  21.132  0.00  0.00    +0.000 C 
ATOM     11  N   UNL     1       9.924  11.326  19.906  0.00  0.00    +0.000 N 
ATOM     12  C   UNL     1      10.580  12.566  19.914  0.00  0.00    +0.000 A 
ATOM     13  C   UNL     1      11.686  12.753  19.081  0.00  0.00    +0.000 A 
ATOM     14  C   UNL     1      12.333  13.986  19.045  0.00  0.00    +0.000 A 
ATOM     15  C   UNL     1      11.860  15.017  19.839  0.00  0.00    +0.000 A 
ATOM     16  C   UNL     1      10.772  14.758  20.652  0.00  0.00    +0.000 A 
ATOM     17  N   UNL     1      10.145  13.562  20.717  0.00  0.00    +0.000 NA
ENDBRANCH   9  11
ENDBRANCH   7   9
ENDBRANCH   1   8
BRANCH   4  18
ATOM     18  C   UNL     1       5.278   4.138  18.704  0.00  0.00    +0.000 C 
BRANCH  18  19
ATOM     19  C   UNL     1       3.819   4.173  18.231  0.00  0.00    +0.000 C 
BRANCH  19  20
ATOM     20  N   UNL     1       2.959   4.880  19.198  0.00  0.00    +0.000 N 
ATOM     21  C   UNL     1       2.770   6.241  19.223  0.00  0.00    +0.000 A 
ATOM     22  C   UNL     1       1.893   6.534  20.245  0.00  0.00    +0.000 A 
ATOM     23  C   UNL     1       1.538   5.317  20.860  0.00  0.00    +0.000 A 
ATOM     24  C   UNL     1       2.199   4.309  20.193  0.00  0.00    +0.000 A 
ENDBRANCH  19  20
BRANCH  19  25
ATOM     25  C   UNL     1       3.295   2.778  17.922  0.00  0.00    +0.000 C 
ATOM     26  O   UNL     1       3.780   1.761  18.404  0.00  0.00    +0.000 OA
BRANCH  25  27
ATOM     27  O   UNL     1       2.212   2.704  17.109  0.00  0.00    +0.000 OA
ATOM     28  H   UNL     1       2.362   2.942  16.174  0.00  0.00    +0.000 HD
ENDBRANCH  25  27
ENDBRANCH  19  25
ENDBRANCH  18  19
ENDBRANCH   4  18
TORSDOF 8
ENDMDL
MODEL 8
REMARK VINA RESULT:      -7.7      6.945      8.565
REMARK  Name = 
REMARK  9 active torsions:
REMARK  status: ('A' for Active; 'I' for Inactive)
REMARK    1  A    between atoms: C_1  and  N_2
REMARK    2  A    between atoms: N_2  and  C_3
REMARK    3  A    between atoms: C_3  and  C_4
REMARK    4  A    between atoms: C_5  and  C_6
REMARK    5  A    between atoms: C_9  and  C_10
REMARK    6  A    between atoms: C_10  and  C_11
REMARK    7  A    between atoms: C_11  and  C_12
REMARK    8  A    between atoms: C_11  and  N_15
REMARK    9  A    between atoms: C_12  and  O_14
REMARK                            x       y       z     vdW  Elec       q    Type
REMARK                         _______ _______ _______ _____ _____    ______ ____
ROOT
ATOM      1  C   UNL     1       8.120   8.339  18.043  0.00  0.00    +0.000 A 
ATOM      2  C   UNL     1       7.016   8.235  17.190  0.00  0.00    +0.000 A 
ATOM      3  C   UNL     1       6.232   7.078  17.189  0.00  0.00    +0.000 A 
ATOM      4  C   UNL     1       6.539   6.018  18.051  0.00  0.00    +0.000 A 
ATOM      5  C   UNL     1       7.684   6.103  18.856  0.00  0.00    +0.000 A 
ATOM      6  C   UNL     1       8.463   7.260  18.860  0.00  0.00    +0.000 A 
ENDROOT
BRANCH   1   8
ATOM      7  C   UNL     1       9.190  10.095  19.345  0.00  0.00    +0.000 C 
ATOM      8  C   UNL     1       8.852   9.600  18.143  0.00  0.00    +0.000 C 
BRANCH   7   9
ATOM      9  C   UNL     1       9.947  11.373  19.566  0.00  0.00    +0.000 C 
BRANCH   9  11
ATOM     10  C   UNL     1      11.661  12.080  17.889  0.00  0.00    +0.000 C 
ATOM     11  N   UNL     1      10.263  12.053  18.307  0.00  0.00    +0.000 N 
ATOM     12  C   UNL     1       9.583  13.266  18.123  0.00  0.00    +0.000 A 
ATOM     13  C   UNL     1       8.193  13.250  17.986  0.00  0.00    +0.000 A 
ATOM     14  C   UNL     1       7.491  14.445  17.838  0.00  0.00    +0.000 A 
ATOM     15  C   UNL     1       8.190  15.640  17.835  0.00  0.00    +0.000 A 
ATOM     16  C   UNL     1       9.566  15.582  17.957  0.00  0.00    +0.000 A 
ATOM     17  N   UNL     1      10.267  14.432  18.080  0.00  0.00    +0.000 NA
ENDBRANCH   9  11
ENDBRANCH   7   9
ENDBRANCH   1   8
BRANCH   4  18
ATOM     18  C   UNL     1       5.592   4.857  18.217  0.00  0.00    +0.000 C 
BRANCH  18  19
ATOM     19  C   UNL     1       4.532   4.626  17.131  0.00  0.00    +0.000 C 
BRANCH  19  20
ATOM     20  N   UNL     1       3.422   3.796  17.636  0.00  0.00    +0.000 N 
ATOM     21  C   UNL     1       2.118   4.219  17.739  0.00  0.00    +0.000 A 
ATOM     22  C   UNL     1       1.365   3.175  18.229  0.00  0.00    +0.000 A 
ATOM     23  C   UNL     1       2.234   2.084  18.430  0.00  0.00    +0.000 A 
ATOM     24  C   UNL     1       3.496   2.486  18.048  0.00  0.00    +0.000 A 
ENDBRANCH  19  20
BRANCH  19  25
ATOM     25  C   UNL     1       5.143   4.043  15.865  0.00  0.00    +0.000 C 
ATOM     26  O   UNL     1       4.886   4.468  14.744  0.00  0.00    +0.000 OA
BRANCH  25  27
ATOM     27  O   UNL     1       6.041   3.041  16.031  0.00  0.00    +0.000 OA
ATOM     28  H   UNL     1       6.329   2.585  15.217  0.00  0.00    +0.000 HD
ENDBRANCH  25  27
ENDBRANCH  19  25
ENDBRANCH  18  19
ENDBRANCH   4  18
TORSDOF 8
ENDMDL
MODEL 9
REMARK VINA RESULT:      -7.7      1.834      2.669
REMARK  Name = 
REMARK  9 active torsions:
REMARK  status: ('A' for Active; 'I' for Inactive)
REMARK    1  A    between atoms: C_1  and  N_2
REMARK    2  A    between atoms: N_2  and  C_3
REMARK    3  A    between atoms: C_3  and  C_4
REMARK    4  A    between atoms: C_5  and  C_6
REMARK    5  A    between atoms: C_9  and  C_10
REMARK    6  A    between atoms: C_10  and  C_11
REMARK    7  A    between atoms: C_11  and  C_12
REMARK    8  A    between atoms: C_11  and  N_15
REMARK    9  A    between atoms: C_12  and  O_14
REMARK                            x       y       z     vdW  Elec       q    Type
REMARK                         _______ _______ _______ _____ _____    ______ ____
ROOT
ATOM      1  C   UNL     1       1.779   8.710  19.150  0.00  0.00    +0.000 A 
ATOM      2  C   UNL     1       2.372   8.317  17.946  0.00  0.00    +0.000 A 
ATOM      3  C   UNL     1       2.855   7.015  17.789  0.00  0.00    +0.000 A 
ATOM      4  C   UNL     1       2.740   6.091  18.835  0.00  0.00    +0.000 A 
ATOM      5  C   UNL     1       2.203   6.509  20.060  0.00  0.00    +0.000 A 
ATOM      6  C   UNL     1       1.717   7.808  20.214  0.00  0.00    +0.000 A 
ENDROOT
BRANCH   1   8
ATOM      7  C   UNL     1       0.041  10.308  18.560  0.00  0.00    +0.000 C 
ATOM      8  C   UNL     1       1.150  10.024  19.263  0.00  0.00    +0.000 C 
BRANCH   7   9
ATOM      9  C   UNL     1      -0.692  11.618  18.604  0.00  0.00    +0.000 C 
BRANCH   9  11
ATOM     10  C   UNL     1      -3.190  11.690  18.546  0.00  0.00    +0.000 C 
ATOM     11  N   UNL     1      -1.966  11.514  19.321  0.00  0.00    +0.000 N 
ATOM     12  C   UNL     1      -1.978  12.154  20.570  0.00  0.00    +0.000 A 
ATOM     13  C   UNL     1      -1.150  11.672  21.586  0.00  0.00    +0.000 A 
ATOM     14  C   UNL     1      -1.116  12.312  22.823  0.00  0.00    +0.000 A 
ATOM     15  C   UNL     1      -1.909  13.430  23.023  0.00  0.00    +0.000 A 
ATOM     16  C   UNL     1      -2.718  13.842  21.981  0.00  0.00    +0.000 A 
ATOM     17  N   UNL     1      -2.780  13.222  20.781  0.00  0.00    +0.000 NA
ENDBRANCH   9  11
ENDBRANCH   7   9
ENDBRANCH   1   8
BRANCH   4  18
ATOM     18  C   UNL     1       3.060   4.634  18.616  0.00  0.00    +0.000 C 
BRANCH  18  19
ATOM     19  C   UNL     1       4.320   4.061  19.279  0.00  0.00    +0.000 C 
BRANCH  19  20
ATOM     20  N   UNL     1       5.544   4.595  18.653  0.00  0.00    +0.000 N 
ATOM     21  C   UNL     1       6.475   5.372  19.301  0.00  0.00    +0.000 A 
ATOM     22  C   UNL     1       7.484   5.666  18.410  0.00  0.00    +0.000 A 
ATOM     23  C   UNL     1       7.160   5.050  17.185  0.00  0.00    +0.000 A 
ATOM     24  C   UNL     1       5.964   4.388  17.359  0.00  0.00    +0.000 A 
ENDBRANCH  19  20
BRANCH  19  25
ATOM     25  C   UNL     1       4.308   2.539  19.288  0.00  0.00    +0.000 C 
ATOM     26  O   UNL     1       3.601   1.873  18.539  0.00  0.00    +0.000 OA
BRANCH  25  27
ATOM     27  O   UNL     1       5.165   1.931  20.145  0.00  0.00    +0.000 OA
ATOM     28  H   UNL     1       5.465   1.038  19.889  0.00  0.00    +0.000 HD
ENDBRANCH  25  27
ENDBRANCH  19  25
ENDBRANCH  18  19
ENDBRANCH   4  18
TORSDOF 8
ENDMDL
