MODEL 1
REMARK VINA RESULT:      -6.6      0.000      0.000
REMARK  Name = 
REMARK  5 active torsions:
REMARK  status: ('A' for Active; 'I' for Inactive)
REMARK    1  A    between atoms: C_1  and  O_2
REMARK    2  A    between atoms: O_2  and  C_3
REMARK    3  A    between atoms: C_3  and  C_5
REMARK    4  A    between atoms: C_5  and  N_6
REMARK    5  A    between atoms: C_10  and  C_12
REMARK                            x       y       z     vdW  Elec       q    Type
REMARK                         _______ _______ _______ _____ _____    ______ ____
ROOT
ATOM      1  N   UNL     1       5.664   6.094  16.670  0.00  0.00    +0.000 NA
ATOM      2  C   UNL     1       5.089   5.025  15.816  0.00  0.00    +0.000 C 
ATOM      3  C   UNL     1       4.922   3.642  16.489  0.00  0.00    +0.000 C 
ATOM      4  N   UNL     1       4.276   3.751  17.798  0.00  0.00    +0.000 N 
ATOM      5  C   UNL     1       3.414   2.733  18.224  0.00  0.00    +0.000 C 
ATOM      6  O   UNL     1       3.274   1.708  17.553  0.00  0.00    +0.000 OA
ATOM      7  C   UNL     1       4.862   4.773  18.670  0.00  0.00    +0.000 C 
ATOM      8  C   UNL     1       4.914   6.129  17.947  0.00  0.00    +0.000 C 
ENDROOT
BRANCH   5   9
ATOM      9  C   UNL     1       2.701   2.913  19.478  0.00  0.00    +0.000 A 
ATOM     10  C   UNL     1       1.482   3.513  19.747  0.00  0.00    +0.000 A 
ATOM     11  C   UNL     1       1.276   3.416  21.146  0.00  0.00    +0.000 A 
ATOM     12  C   UNL     1       2.390   2.793  21.654  0.00  0.00    +0.000 A 
ATOM     13  O   UNL     1       3.271   2.520  20.662  0.00  0.00    +0.000 OA
ENDBRANCH   5   9
BRANCH   1  14
ATOM     14  C   UNL     1       7.118   5.933  16.909  0.00  0.00    +0.000 C 
BRANCH  14  15
ATOM     15  C   UNL     1       7.713   6.999  17.832  0.00  0.00    +0.000 C 
ATOM     16  O   UNL     1       8.198   6.823  18.944  0.00  0.00    +0.000 OA
BRANCH  15  18
ATOM     17  C   UNL     1       8.202   9.311  17.931  0.00  0.00    +0.000 C 
ATOM     18  O   UNL     1       7.620   8.217  17.215  0.00  0.00    +0.000 OA
ENDBRANCH  15  18
ENDBRANCH  14  15
ENDBRANCH   1  14
TORSDOF 4
ENDMDL
MODEL 2
REMARK VINA RESULT:      -6.6      0.586      1.229
REMARK  Name = 
REMARK  5 active torsions:
REMARK  status: ('A' for Active; 'I' for Inactive)
REMARK    1  A    between atoms: C_1  and  O_2
REMARK    2  A    between atoms: O_2  and  C_3
REMARK    3  A    between atoms: C_3  and  C_5
REMARK    4  A    between atoms: C_5  and  N_6
REMARK    5  A    between atoms: C_10  and  C_12
REMARK                            x       y       z     vdW  Elec       q    Type
REMARK                         _______ _______ _______ _____ _____    ______ ____
ROOT
ATOM      1  N   UNL     1       5.731   6.187  16.528  0.00  0.00    +0.000 NA
ATOM      2  C   UNL     1       5.314   4.997  15.744  0.00  0.00    +0.000 C 
ATOM      3  C   UNL     1       5.131   3.690  16.551  0.00  0.00    +0.000 C 
ATOM      4  N   UNL     1       4.325   3.905  17.755  0.00  0.00    +0.000 N 
ATOM      5  C   UNL     1       3.466   2.889  18.194  0.00  0.00    +0.000 C 
ATOM      6  O   UNL     1       3.457   1.791  17.637  0.00  0.00    +0.000 OA
ATOM      7  C   UNL     1       4.753   5.050  18.562  0.00  0.00    +0.000 C 
ATOM      8  C   UNL     1       4.830   6.318  17.696  0.00  0.00    +0.000 C 
ENDROOT
BRANCH   5   9
ATOM      9  C   UNL     1       2.598   3.165  19.328  0.00  0.00    +0.000 A 
ATOM     10  C   UNL     1       1.383   3.825  19.396  0.00  0.00    +0.000 A 
ATOM     11  C   UNL     1       0.984   3.812  20.756  0.00  0.00    +0.000 A 
ATOM     12  C   UNL     1       1.989   3.176  21.443  0.00  0.00    +0.000 A 
ATOM     13  O   UNL     1       2.984   2.815  20.596  0.00  0.00    +0.000 OA
ENDBRANCH   5   9
BRANCH   1  14
ATOM     14  C   UNL     1       7.151   6.141  16.951  0.00  0.00    +0.000 C 
BRANCH  14  15
ATOM     15  C   UNL     1       7.633   7.423  17.633  0.00  0.00    +0.000 C 
ATOM     16  O   UNL     1       7.507   8.570  17.219  0.00  0.00    +0.000 OA
BRANCH  15  18
ATOM     17  C   UNL     1       8.106   5.724  19.208  0.00  0.00    +0.000 C 
ATOM     18  O   UNL     1       8.247   7.091  18.810  0.00  0.00    +0.000 OA
ENDBRANCH  15  18
ENDBRANCH  14  15
ENDBRANCH   1  14
TORSDOF 4
ENDMDL
MODEL 3
REMARK VINA RESULT:      -6.6      2.511      3.605
REMARK  Name = 
REMARK  5 active torsions:
REMARK  status: ('A' for Active; 'I' for Inactive)
REMARK    1  A    between atoms: C_1  and  O_2
REMARK    2  A    between atoms: O_2  and  C_3
REMARK    3  A    between atoms: C_3  and  C_5
REMARK    4  A    between atoms: C_5  and  N_6
REMARK    5  A    between atoms: C_10  and  C_12
REMARK                            x       y       z     vdW  Elec       q    Type
REMARK                         _______ _______ _______ _____ _____    ______ ____
ROOT
ATOM      1  N   UNL     1       6.008   5.411  16.615  0.00  0.00    +0.000 NA
ATOM      2  C   UNL     1       5.635   6.690  17.271  0.00  0.00    +0.000 C 
ATOM      3  C   UNL     1       4.138   6.853  17.625  0.00  0.00    +0.000 C 
ATOM      4  N   UNL     1       3.612   5.671  18.312  0.00  0.00    +0.000 N 
ATOM      5  C   UNL     1       2.636   5.833  19.303  0.00  0.00    +0.000 C 
ATOM      6  O   UNL     1       2.149   6.942  19.529  0.00  0.00    +0.000 OA
ATOM      7  C   UNL     1       3.935   4.403  17.652  0.00  0.00    +0.000 C 
ATOM      8  C   UNL     1       5.450   4.294  17.412  0.00  0.00    +0.000 C 
ENDROOT
BRANCH   5   9
ATOM      9  C   UNL     1       2.207   4.658  20.045  0.00  0.00    +0.000 A 
ATOM     10  C   UNL     1       0.973   4.033  20.114  0.00  0.00    +0.000 A 
ATOM     11  C   UNL     1       1.117   2.935  20.998  0.00  0.00    +0.000 A 
ATOM     12  C   UNL     1       2.417   2.970  21.442  0.00  0.00    +0.000 A 
ATOM     13  O   UNL     1       3.071   4.026  20.902  0.00  0.00    +0.000 OA
ENDBRANCH   5   9
BRANCH   1  14
ATOM     14  C   UNL     1       5.571   5.329  15.201  0.00  0.00    +0.000 C 
BRANCH  14  15
ATOM     15  C   UNL     1       6.655   4.818  14.249  0.00  0.00    +0.000 C 
ATOM     16  O   UNL     1       7.740   5.340  14.022  0.00  0.00    +0.000 OA
BRANCH  15  18
ATOM     17  C   UNL     1       6.503   3.531  12.271  0.00  0.00    +0.000 C 
ATOM     18  O   UNL     1       6.219   3.659  13.667  0.00  0.00    +0.000 OA
ENDBRANCH  15  18
ENDBRANCH  14  15
ENDBRANCH   1  14
TORSDOF 4
ENDMDL
MODEL 4
REMARK VINA RESULT:      -6.5      1.520      6.490
REMARK  Name = 
REMARK  5 active torsions:
REMARK  status: ('A' for Active; 'I' for Inactive)
REMARK    1  A    between atoms: C_1  and  O_2
REMARK    2  A    between atoms: O_2  and  C_3
REMARK    3  A    between atoms: C_3  and  C_5
REMARK    4  A    between atoms: C_5  and  N_6
REMARK    5  A    between atoms: C_10  and  C_12
REMARK                            x       y       z     vdW  Elec       q    Type
REMARK                         _______ _______ _______ _____ _____    ______ ____
ROOT
ATOM      1  N   UNL     1       3.480   3.552  18.702  0.00  0.00    +0.000 NA
ATOM      2  C   UNL     1       4.183   3.059  17.491  0.00  0.00    +0.000 C 
ATOM      3  C   UNL     1       4.662   4.147  16.501  0.00  0.00    +0.000 C 
ATOM      4  N   UNL     1       5.372   5.229  17.187  0.00  0.00    +0.000 N 
ATOM      5  C   UNL     1       6.443   5.861  16.542  0.00  0.00    +0.000 C 
ATOM      6  O   UNL     1       6.725   5.584  15.375  0.00  0.00    +0.000 OA
ATOM      7  C   UNL     1       4.669   5.756  18.359  0.00  0.00    +0.000 C 
ATOM      8  C   UNL     1       4.304   4.615  19.324  0.00  0.00    +0.000 C 
ENDROOT
BRANCH   5   9
ATOM      9  C   UNL     1       7.200   6.858  17.282  0.00  0.00    +0.000 A 
ATOM     10  C   UNL     1       7.993   6.736  18.411  0.00  0.00    +0.000 A 
ATOM     11  C   UNL     1       8.484   8.031  18.711  0.00  0.00    +0.000 A 
ATOM     12  C   UNL     1       7.940   8.873  17.771  0.00  0.00    +0.000 A 
ATOM     13  O   UNL     1       7.136   8.181  16.928  0.00  0.00    +0.000 OA
ENDBRANCH   5   9
BRANCH   1  14
ATOM     14  C   UNL     1       2.106   4.034  18.426  0.00  0.00    +0.000 C 
BRANCH  14  15
ATOM     15  C   UNL     1       1.011   3.174  19.061  0.00  0.00    +0.000 C 
ATOM     16  O   UNL     1       0.410   2.242  18.537  0.00  0.00    +0.000 OA
BRANCH  15  18
ATOM     17  C   UNL     1       1.287   2.759  21.372  0.00  0.00    +0.000 C 
ATOM     18  O   UNL     1       0.791   3.614  20.338  0.00  0.00    +0.000 OA
ENDBRANCH  15  18
ENDBRANCH  14  15
ENDBRANCH   1  14
TORSDOF 4
ENDMDL
MODEL 5
REMARK VINA RESULT:      -6.4      2.394      6.514
REMARK  Name = 
REMARK  5 active torsions:
REMARK  status: ('A' for Active; 'I' for Inactive)
REMARK    1  A    between atoms: C_1  and  O_2
REMARK    2  A    between atoms: O_2  and  C_3
REMARK    3  A    between atoms: C_3  and  C_5
REMARK    4  A    between atoms: C_5  and  N_6
REMARK    5  A    between atoms: C_10  and  C_12
REMARK                            x       y       z     vdW  Elec       q    Type
REMARK                         _______ _______ _______ _____ _____    ______ ____
ROOT
ATOM      1  N   UNL     1       3.388   5.124  18.971  0.00  0.00    +0.000 NA
ATOM      2  C   UNL     1       4.740   5.486  19.464  0.00  0.00    +0.000 C 
ATOM      3  C   UNL     1       5.910   4.643  18.901  0.00  0.00    +0.000 C 
ATOM      4  N   UNL     1       5.835   4.518  17.444  0.00  0.00    +0.000 N 
ATOM      5  C   UNL     1       7.020   4.477  16.699  0.00  0.00    +0.000 C 
ATOM      6  O   UNL     1       8.115   4.447  17.263  0.00  0.00    +0.000 OA
ATOM      7  C   UNL     1       4.516   4.118  16.946  0.00  0.00    +0.000 C 
ATOM      8  C   UNL     1       3.429   5.058  17.491  0.00  0.00    +0.000 C 
ENDROOT
BRANCH   5   9
ATOM      9  C   UNL     1       6.921   4.461  15.248  0.00  0.00    +0.000 A 
ATOM     10  C   UNL     1       6.149   3.682  14.404  0.00  0.00    +0.000 A 
ATOM     11  C   UNL     1       6.457   4.081  13.080  0.00  0.00    +0.000 A 
ATOM     12  C   UNL     1       7.419   5.056  13.188  0.00  0.00    +0.000 A 
ATOM     13  O   UNL     1       7.732   5.265  14.489  0.00  0.00    +0.000 OA
ENDBRANCH   5   9
BRANCH   1  14
ATOM     14  C   UNL     1       2.874   3.859  19.548  0.00  0.00    +0.000 C 
BRANCH  14  15
ATOM     15  C   UNL     1       1.402   3.924  19.964  0.00  0.00    +0.000 C 
ATOM     16  O   UNL     1       0.874   4.775  20.670  0.00  0.00    +0.000 OA
BRANCH  15  18
ATOM     17  C   UNL     1       1.537   2.013  18.578  0.00  0.00    +0.000 C 
ATOM     18  O   UNL     1       0.743   2.856  19.418  0.00  0.00    +0.000 OA
ENDBRANCH  15  18
ENDBRANCH  14  15
ENDBRANCH   1  14
TORSDOF 4
ENDMDL
MODEL 6
REMARK VINA RESULT:      -6.4      2.281      2.877
REMARK  Name = 
REMARK  5 active torsions:
REMARK  status: ('A' for Active; 'I' for Inactive)
REMARK    1  A    between atoms: C_1  and  O_2
REMARK    2  A    between atoms: O_2  and  C_3
REMARK    3  A    between atoms: C_3  and  C_5
REMARK    4  A    between atoms: C_5  and  N_6
REMARK    5  A    between atoms: C_10  and  C_12
REMARK                            x       y       z     vdW  Elec       q    Type
REMARK                         _______ _______ _______ _____ _____    ______ ____
ROOT
ATOM      1  N   UNL     1       6.391   5.515  17.413  0.00  0.00    +0.000 NA
ATOM      2  C   UNL     1       5.171   5.919  16.669  0.00  0.00    +0.000 C 
ATOM      3  C   UNL     1       4.030   4.875  16.630  0.00  0.00    +0.000 C 
ATOM      4  N   UNL     1       3.747   4.333  17.960  0.00  0.00    +0.000 N 
ATOM      5  C   UNL     1       2.429   3.999  18.297  0.00  0.00    +0.000 C 
ATOM      6  O   UNL     1       1.530   4.066  17.457  0.00  0.00    +0.000 OA
ATOM      7  C   UNL     1       4.937   3.888  18.690  0.00  0.00    +0.000 C 
ATOM      8  C   UNL     1       5.983   5.015  18.747  0.00  0.00    +0.000 C 
ENDROOT
BRANCH   5   9
ATOM      9  C   UNL     1       2.155   3.564  19.658  0.00  0.00    +0.000 A 
ATOM     10  C   UNL     1       1.473   2.457  20.132  0.00  0.00    +0.000 A 
ATOM     11  C   UNL     1       1.501   2.531  21.547  0.00  0.00    +0.000 A 
ATOM     12  C   UNL     1       2.168   3.692  21.855  0.00  0.00    +0.000 A 
ATOM     13  O   UNL     1       2.534   4.340  20.723  0.00  0.00    +0.000 OA
ENDBRANCH   5   9
BRANCH   1  14
ATOM     14  C   UNL     1       7.210   4.511  16.694  0.00  0.00    +0.000 C 
BRANCH  14  15
ATOM     15  C   UNL     1       7.219   4.695  15.174  0.00  0.00    +0.000 C 
ATOM     16  O   UNL     1       7.736   5.612  14.547  0.00  0.00    +0.000 OA
BRANCH  15  18
ATOM     17  C   UNL     1       6.083   3.884  13.265  0.00  0.00    +0.000 C 
ATOM     18  O   UNL     1       6.541   3.653  14.601  0.00  0.00    +0.000 OA
ENDBRANCH  15  18
ENDBRANCH  14  15
ENDBRANCH   1  14
TORSDOF 4
ENDMDL
MODEL 7
REMARK VINA RESULT:      -6.3      2.269      6.596
REMARK  Name = 
REMARK  5 active torsions:
REMARK  status: ('A' for Active; 'I' for Inactive)
REMARK    1  A    between atoms: C_1  and  O_2
REMARK    2  A    between atoms: O_2  and  C_3
REMARK    3  A    between atoms: C_3  and  C_5
REMARK    4  A    between atoms: C_5  and  N_6
REMARK    5  A    between atoms: C_10  and  C_12
REMARK                            x       y       z     vdW  Elec       q    Type
REMARK                         _______ _______ _______ _____ _____    ______ ____
ROOT
ATOM      1  N   UNL     1       3.345   4.893  18.856  0.00  0.00    +0.000 NA
ATOM      2  C   UNL     1       4.675   5.301  19.375  0.00  0.00    +0.000 C 
ATOM      3  C   UNL     1       5.887   4.526  18.806  0.00  0.00    +0.000 C 
ATOM      4  N   UNL     1       5.835   4.435  17.345  0.00  0.00    +0.000 N 
ATOM      5  C   UNL     1       7.029   4.466  16.614  0.00  0.00    +0.000 C 
ATOM      6  O   UNL     1       8.118   4.469  17.191  0.00  0.00    +0.000 OA
ATOM      7  C   UNL     1       4.541   3.991  16.820  0.00  0.00    +0.000 C 
ATOM      8  C   UNL     1       3.407   4.868  17.375  0.00  0.00    +0.000 C 
ENDROOT
BRANCH   5   9
ATOM      9  C   UNL     1       6.948   4.483  15.162  0.00  0.00    +0.000 A 
ATOM     10  C   UNL     1       6.192   3.718  14.290  0.00  0.00    +0.000 A 
ATOM     11  C   UNL     1       6.512   4.151  12.980  0.00  0.00    +0.000 A 
ATOM     12  C   UNL     1       7.465   5.130  13.122  0.00  0.00    +0.000 A 
ATOM     13  O   UNL     1       7.761   5.312  14.432  0.00  0.00    +0.000 OA
ENDBRANCH   5   9
BRANCH   1  14
ATOM     14  C   UNL     1       2.881   3.592  19.393  0.00  0.00    +0.000 C 
BRANCH  14  15
ATOM     15  C   UNL     1       1.447   3.236  18.996  0.00  0.00    +0.000 C 
ATOM     16  O   UNL     1       0.915   3.432  17.909  0.00  0.00    +0.000 OA
BRANCH  15  18
ATOM     17  C   UNL     1       1.413   2.930  21.340  0.00  0.00    +0.000 C 
ATOM     18  O   UNL     1       0.826   2.651  20.065  0.00  0.00    +0.000 OA
ENDBRANCH  15  18
ENDBRANCH  14  15
ENDBRANCH   1  14
TORSDOF 4
ENDMDL
MODEL 8
REMARK VINA RESULT:      -6.3      2.662      3.517
REMARK  Name = 
REMARK  5 active torsions:
REMARK  status: ('A' for Active; 'I' for Inactive)
REMARK    1  A    between atoms: C_1  and  O_2
REMARK    2  A    between atoms: O_2  and  C_3
REMARK    3  A    between atoms: C_3  and  C_5
REMARK    4  A    between atoms: C_5  and  N_6
REMARK    5  A    between atoms: C_10  and  C_12
REMARK                            x       y       z     vdW  Elec       q    Type
REMARK                         _______ _______ _______ _____ _____    ______ ____
ROOT
ATOM      1  N   UNL     1       6.023   5.483  16.568  0.00  0.00    +0.000 NA
ATOM      2  C   UNL     1       5.719   6.760  17.262  0.00  0.00    +0.000 C 
ATOM      3  C   UNL     1       4.226   7.017  17.576  0.00  0.00    +0.000 C 
ATOM      4  N   UNL     1       3.596   5.851  18.199  0.00  0.00    +0.000 N 
ATOM      5  C   UNL     1       2.600   6.047  19.165  0.00  0.00    +0.000 C 
ATOM      6  O   UNL     1       2.186   7.179  19.420  0.00  0.00    +0.000 OA
ATOM      7  C   UNL     1       3.850   4.589  17.499  0.00  0.00    +0.000 C 
ATOM      8  C   UNL     1       5.361   4.380  17.303  0.00  0.00    +0.000 C 
ENDROOT
BRANCH   5   9
ATOM      9  C   UNL     1       2.065   4.879  19.847  0.00  0.00    +0.000 A 
ATOM     10  C   UNL     1       2.351   4.350  21.094  0.00  0.00    +0.000 A 
ATOM     11  C   UNL     1       1.542   3.197  21.247  0.00  0.00    +0.000 A 
ATOM     12  C   UNL     1       0.834   3.068  20.077  0.00  0.00    +0.000 A 
ATOM     13  O   UNL     1       1.170   4.056  19.212  0.00  0.00    +0.000 OA
ENDBRANCH   5   9
BRANCH   1  14
ATOM     14  C   UNL     1       5.629   5.485  15.139  0.00  0.00    +0.000 C 
BRANCH  14  15
ATOM     15  C   UNL     1       6.595   4.720  14.231  0.00  0.00    +0.000 C 
ATOM     16  O   UNL     1       6.392   3.642  13.684  0.00  0.00    +0.000 OA
BRANCH  15  18
ATOM     17  C   UNL     1       8.251   5.592  12.786  0.00  0.00    +0.000 C 
ATOM     18  O   UNL     1       7.755   5.437  14.119  0.00  0.00    +0.000 OA
ENDBRANCH  15  18
ENDBRANCH  14  15
ENDBRANCH   1  14
TORSDOF 4
ENDMDL
MODEL 9
REMARK VINA RESULT:      -6.2      1.781      5.985
REMARK  Name = 
REMARK  5 active torsions:
REMARK  status: ('A' for Active; 'I' for Inactive)
REMARK    1  A    between atoms: C_1  and  O_2
REMARK    2  A    between atoms: O_2  and  C_3
REMARK    3  A    between atoms: C_3  and  C_5
REMARK    4  A    between atoms: C_5  and  N_6
REMARK    5  A    between atoms: C_10  and  C_12
REMARK                            x       y       z     vdW  Elec       q    Type
REMARK                         _______ _______ _______ _____ _____    ______ ____
ROOT
ATOM      1  N   UNL     1       3.291   2.223  19.466  0.00  0.00    +0.000 NA
ATOM      2  C   UNL     1       3.706   1.751  18.121  0.00  0.00    +0.000 C 
ATOM      3  C   UNL     1       3.915   2.853  17.055  0.00  0.00    +0.000 C 
ATOM      4  N   UNL     1       4.740   3.950  17.566  0.00  0.00    +0.000 N 
ATOM      5  C   UNL     1       5.616   4.610  16.695  0.00  0.00    +0.000 C 
ATOM      6  O   UNL     1       5.626   4.343  15.493  0.00  0.00    +0.000 OA
ATOM      7  C   UNL     1       4.315   4.457  18.874  0.00  0.00    +0.000 C 
ATOM      8  C   UNL     1       4.212   3.306  19.888  0.00  0.00    +0.000 C 
ENDROOT
BRANCH   5   9
ATOM      9  C   UNL     1       6.501   5.624  17.248  0.00  0.00    +0.000 A 
ATOM     10  C   UNL     1       7.410   5.559  18.289  0.00  0.00    +0.000 A 
ATOM     11  C   UNL     1       7.995   6.845  18.406  0.00  0.00    +0.000 A 
ATOM     12  C   UNL     1       7.389   7.628  17.453  0.00  0.00    +0.000 A 
ATOM     13  O   UNL     1       6.461   6.910  16.775  0.00  0.00    +0.000 OA
ENDBRANCH   5   9
BRANCH   1  14
ATOM     14  C   UNL     1       1.880   2.672  19.520  0.00  0.00    +0.000 C 
BRANCH  14  15
ATOM     15  C   UNL     1       1.467   3.252  20.874  0.00  0.00    +0.000 C 
ATOM     16  O   UNL     1       1.672   2.761  21.979  0.00  0.00    +0.000 OA
BRANCH  15  18
ATOM     17  C   UNL     1       1.629   5.608  20.760  0.00  0.00    +0.000 C 
ATOM     18  O   UNL     1       0.814   4.437  20.665  0.00  0.00    +0.000 OA
ENDBRANCH  15  18
ENDBRANCH  14  15
ENDBRANCH   1  14
TORSDOF 4
ENDMDL
