MODEL 1
REMARK VINA RESULT:      -8.1      0.000      0.000
REMARK  Name = 
REMARK  4 active torsions:
REMARK  status: ('A' for Active; 'I' for Inactive)
REMARK    1  A    between atoms: C_2  and  N_3
REMARK    2  A    between atoms: C_2  and  C_17
REMARK    3  A    between atoms: N_8  and  C_9
REMARK    4  A    between atoms: C_9  and  C_10
REMARK                            x       y       z     vdW  Elec       q    Type
REMARK                         _______ _______ _______ _____ _____    ______ ____
ROOT
ATOM      1  N   UNL     1       3.334   5.721  19.394  0.00  0.00    +0.000 NA
ATOM      2  C   UNL     1       3.169   4.559  18.849  0.00  0.00    +0.000 A 
ATOM      3  S   UNL     1       1.603   3.702  18.618  0.00  0.00    +0.000 S 
ATOM      4  C   UNL     1       2.394   2.349  17.862  0.00  0.00    +0.000 A 
ATOM      5  C   UNL     1       3.715   2.546  17.784  0.00  0.00    +0.000 A 
ATOM      6  N   UNL     1       4.172   3.749  18.307  0.00  0.00    +0.000 N 
ENDROOT
BRANCH   1   8
ATOM      7  O   UNL     1       1.647   5.930  20.951  0.00  0.00    +0.000 OA
ATOM      8  C   UNL     1       2.269   6.365  19.983  0.00  0.00    +0.000 C 
BRANCH   8   9
ATOM      9  C   UNL     1       1.937   7.752  19.492  0.00  0.00    +0.000 A 
ATOM     10  C   UNL     1       2.298   8.107  18.192  0.00  0.00    +0.000 A 
ATOM     11  C   UNL     1       1.964   9.374  17.722  0.00  0.00    +0.000 A 
ATOM     12  C   UNL     1       1.280  10.247  18.558  0.00  0.00    +0.000 A 
ATOM     13  C   UNL     1       0.957   9.816  19.838  0.00  0.00    +0.000 A 
ATOM     14  N   UNL     1       1.267   8.594  20.329  0.00  0.00    +0.000 NA
ENDBRANCH   8   9
ENDBRANCH   1   8
BRANCH   6  15
ATOM     15  C   UNL     1       5.565   4.171  18.249  0.00  0.00    +0.000 C 
BRANCH  15  16
ATOM     16  C   UNL     1       6.035   4.470  16.846  0.00  0.00    +0.000 A 
ATOM     17  C   UNL     1       5.554   3.763  15.739  0.00  0.00    +0.000 A 
ATOM     18  C   UNL     1       6.081   4.011  14.472  0.00  0.00    +0.000 A 
ATOM     19  C   UNL     1       7.076   4.963  14.361  0.00  0.00    +0.000 A 
ATOM     20 CL   UNL     1       7.818   5.291  12.848  0.00  0.00    +0.000 Cl
ATOM     21  N   UNL     1       7.559   5.683  15.393  0.00  0.00    +0.000 NA
ATOM     22  C   UNL     1       7.026   5.420  16.608  0.00  0.00    +0.000 A 
ENDBRANCH  15  16
ENDBRANCH   6  15
TORSDOF 4
ENDMDL
MODEL 2
REMARK VINA RESULT:      -7.8      3.994      7.327
REMARK  Name = 
REMARK  4 active torsions:
REMARK  status: ('A' for Active; 'I' for Inactive)
REMARK    1  A    between atoms: C_2  and  N_3
REMARK    2  A    between atoms: C_2  and  C_17
REMARK    3  A    between atoms: N_8  and  C_9
REMARK    4  A    between atoms: C_9  and  C_10
REMARK                            x       y       z     vdW  Elec       q    Type
REMARK                         _______ _______ _______ _____ _____    ______ ____
ROOT
ATOM      1  N   UNL     1       5.568   4.168  16.271  0.00  0.00    +0.000 NA
ATOM      2  C   UNL     1       4.840   5.099  16.799  0.00  0.00    +0.000 A 
ATOM      3  S   UNL     1       5.276   6.839  16.949  0.00  0.00    +0.000 S 
ATOM      4  C   UNL     1       3.762   7.207  17.722  0.00  0.00    +0.000 A 
ATOM      5  C   UNL     1       3.002   6.113  17.836  0.00  0.00    +0.000 A 
ATOM      6  N   UNL     1       3.557   4.943  17.333  0.00  0.00    +0.000 N 
ENDROOT
BRANCH   1   8
ATOM      7  O   UNL     1       7.825   4.461  16.638  0.00  0.00    +0.000 OA
ATOM      8  C   UNL     1       6.859   4.442  15.877  0.00  0.00    +0.000 C 
BRANCH   8   9
ATOM      9  C   UNL     1       7.118   4.591  14.399  0.00  0.00    +0.000 A 
ATOM     10  C   UNL     1       6.407   3.785  13.509  0.00  0.00    +0.000 A 
ATOM     11  C   UNL     1       6.618   3.942  12.142  0.00  0.00    +0.000 A 
ATOM     12  C   UNL     1       7.525   4.897  11.703  0.00  0.00    +0.000 A 
ATOM     13  C   UNL     1       8.191   5.660  12.653  0.00  0.00    +0.000 A 
ATOM     14  N   UNL     1       8.014   5.532  13.989  0.00  0.00    +0.000 NA
ENDBRANCH   8   9
ENDBRANCH   1   8
BRANCH   6  15
ATOM     15  C   UNL     1       2.853   3.669  17.304  0.00  0.00    +0.000 C 
BRANCH  15  16
ATOM     16  C   UNL     1       2.324   3.253  18.655  0.00  0.00    +0.000 A 
ATOM     17  C   UNL     1       0.956   3.259  18.948  0.00  0.00    +0.000 A 
ATOM     18  C   UNL     1       0.518   2.953  20.236  0.00  0.00    +0.000 A 
ATOM     19  C   UNL     1       1.473   2.651  21.189  0.00  0.00    +0.000 A 
ATOM     20 CL   UNL     1       1.024   2.317  22.810  0.00  0.00    +0.000 Cl
ATOM     21  N   UNL     1       2.799   2.615  20.951  0.00  0.00    +0.000 NA
ATOM     22  C   UNL     1       3.191   2.914  19.693  0.00  0.00    +0.000 A 
ENDBRANCH  15  16
ENDBRANCH   6  15
TORSDOF 4
ENDMDL
MODEL 3
REMARK VINA RESULT:      -7.8      3.412      7.299
REMARK  Name = 
REMARK  4 active torsions:
REMARK  status: ('A' for Active; 'I' for Inactive)
REMARK    1  A    between atoms: C_2  and  N_3
REMARK    2  A    between atoms: C_2  and  C_17
REMARK    3  A    between atoms: N_8  and  C_9
REMARK    4  A    between atoms: C_9  and  C_10
REMARK                            x       y       z     vdW  Elec       q    Type
REMARK                         _______ _______ _______ _____ _____    ______ ____
ROOT
ATOM      1  N   UNL     1       5.804   5.892  16.682  0.00  0.00    +0.000 NA
ATOM      2  C   UNL     1       4.711   5.359  17.124  0.00  0.00    +0.000 A 
ATOM      3  S   UNL     1       4.423   3.608  17.423  0.00  0.00    +0.000 S 
ATOM      4  C   UNL     1       2.796   3.913  17.962  0.00  0.00    +0.000 A 
ATOM      5  C   UNL     1       2.516   5.220  17.929  0.00  0.00    +0.000 A 
ATOM      6  N   UNL     1       3.543   6.041  17.484  0.00  0.00    +0.000 N 
ENDROOT
BRANCH   1   8
ATOM      7  O   UNL     1       7.617   4.512  17.027  0.00  0.00    +0.000 OA
ATOM      8  C   UNL     1       6.844   5.091  16.266  0.00  0.00    +0.000 C 
BRANCH   8   9
ATOM      9  C   UNL     1       6.951   4.801  14.790  0.00  0.00    +0.000 A 
ATOM     10  C   UNL     1       6.099   3.848  14.230  0.00  0.00    +0.000 A 
ATOM     11  C   UNL     1       6.171   3.601  12.862  0.00  0.00    +0.000 A 
ATOM     12  C   UNL     1       7.084   4.311  12.093  0.00  0.00    +0.000 A 
ATOM     13  C   UNL     1       7.894   5.243  12.727  0.00  0.00    +0.000 A 
ATOM     14  N   UNL     1       7.854   5.507  14.054  0.00  0.00    +0.000 NA
ENDBRANCH   8   9
ENDBRANCH   1   8
BRANCH   6  15
ATOM     15  C   UNL     1       3.450   7.494  17.446  0.00  0.00    +0.000 C 
BRANCH  15  16
ATOM     16  C   UNL     1       2.438   8.048  18.420  0.00  0.00    +0.000 A 
ATOM     17  C   UNL     1       1.640   9.153  18.108  0.00  0.00    +0.000 A 
ATOM     18  C   UNL     1       0.783   9.687  19.070  0.00  0.00    +0.000 A 
ATOM     19  C   UNL     1       0.757   9.089  20.316  0.00  0.00    +0.000 A 
ATOM     20 CL   UNL     1      -0.228   9.715  21.573  0.00  0.00    +0.000 Cl
ATOM     21  N   UNL     1       1.493   8.013  20.658  0.00  0.00    +0.000 NA
ATOM     22  C   UNL     1       2.312   7.518  19.703  0.00  0.00    +0.000 A 
ENDBRANCH  15  16
ENDBRANCH   6  15
TORSDOF 4
ENDMDL
MODEL 4
REMARK VINA RESULT:      -7.8      0.780      1.152
REMARK  Name = 
REMARK  4 active torsions:
REMARK  status: ('A' for Active; 'I' for Inactive)
REMARK    1  A    between atoms: C_2  and  N_3
REMARK    2  A    between atoms: C_2  and  C_17
REMARK    3  A    between atoms: N_8  and  C_9
REMARK    4  A    between atoms: C_9  and  C_10
REMARK                            x       y       z     vdW  Elec       q    Type
REMARK                         _______ _______ _______ _____ _____    ______ ____
ROOT
ATOM      1  N   UNL     1       3.193   5.763  19.604  0.00  0.00    +0.000 NA
ATOM      2  C   UNL     1       3.023   4.572  19.127  0.00  0.00    +0.000 A 
ATOM      3  S   UNL     1       1.450   3.723  18.911  0.00  0.00    +0.000 S 
ATOM      4  C   UNL     1       2.239   2.316  18.258  0.00  0.00    +0.000 A 
ATOM      5  C   UNL     1       3.563   2.490  18.200  0.00  0.00    +0.000 A 
ATOM      6  N   UNL     1       4.026   3.716  18.660  0.00  0.00    +0.000 N 
ENDROOT
BRANCH   1   8
ATOM      7  O   UNL     1       1.478   6.093  21.108  0.00  0.00    +0.000 OA
ATOM      8  C   UNL     1       2.124   6.456  20.127  0.00  0.00    +0.000 C 
BRANCH   8   9
ATOM      9  C   UNL     1       1.818   7.810  19.538  0.00  0.00    +0.000 A 
ATOM     10  C   UNL     1       1.152   8.749  20.326  0.00  0.00    +0.000 A 
ATOM     11  C   UNL     1       0.897  10.012  19.799  0.00  0.00    +0.000 A 
ATOM     12  C   UNL     1       1.315  10.303  18.507  0.00  0.00    +0.000 A 
ATOM     13  C   UNL     1       1.973   9.313  17.789  0.00  0.00    +0.000 A 
ATOM     14  N   UNL     1       2.235   8.074  18.268  0.00  0.00    +0.000 NA
ENDBRANCH   8   9
ENDBRANCH   1   8
BRANCH   6  15
ATOM     15  C   UNL     1       5.426   4.115  18.609  0.00  0.00    +0.000 C 
BRANCH  15  16
ATOM     16  C   UNL     1       5.897   4.447  17.215  0.00  0.00    +0.000 A 
ATOM     17  C   UNL     1       5.001   4.639  16.157  0.00  0.00    +0.000 A 
ATOM     18  C   UNL     1       5.483   4.856  14.867  0.00  0.00    +0.000 A 
ATOM     19  C   UNL     1       6.853   4.873  14.682  0.00  0.00    +0.000 A 
ATOM     20 CL   UNL     1       7.529   5.078  13.119  0.00  0.00    +0.000 Cl
ATOM     21  N   UNL     1       7.755   4.711  15.670  0.00  0.00    +0.000 NA
ATOM     22  C   UNL     1       7.256   4.505  16.910  0.00  0.00    +0.000 A 
ENDBRANCH  15  16
ENDBRANCH   6  15
TORSDOF 4
ENDMDL
MODEL 5
REMARK VINA RESULT:      -7.8      3.998      7.388
REMARK  Name = 
REMARK  4 active torsions:
REMARK  status: ('A' for Active; 'I' for Inactive)
REMARK    1  A    between atoms: C_2  and  N_3
REMARK    2  A    between atoms: C_2  and  C_17
REMARK    3  A    between atoms: N_8  and  C_9
REMARK    4  A    between atoms: C_9  and  C_10
REMARK                            x       y       z     vdW  Elec       q    Type
REMARK                         _______ _______ _______ _____ _____    ______ ____
ROOT
ATOM      1  N   UNL     1       5.548   4.203  16.391  0.00  0.00    +0.000 NA
ATOM      2  C   UNL     1       4.832   5.173  16.861  0.00  0.00    +0.000 A 
ATOM      3  S   UNL     1       5.275   6.917  16.878  0.00  0.00    +0.000 S 
ATOM      4  C   UNL     1       3.776   7.347  17.648  0.00  0.00    +0.000 A 
ATOM      5  C   UNL     1       3.014   6.267  17.853  0.00  0.00    +0.000 A 
ATOM      6  N   UNL     1       3.557   5.062  17.428  0.00  0.00    +0.000 N 
ENDROOT
BRANCH   1   8
ATOM      7  O   UNL     1       7.817   4.471  16.692  0.00  0.00    +0.000 OA
ATOM      8  C   UNL     1       6.833   4.442  15.956  0.00  0.00    +0.000 C 
BRANCH   8   9
ATOM      9  C   UNL     1       7.057   4.538  14.468  0.00  0.00    +0.000 A 
ATOM     10  C   UNL     1       6.337   3.690  13.625  0.00  0.00    +0.000 A 
ATOM     11  C   UNL     1       6.516   3.797  12.249  0.00  0.00    +0.000 A 
ATOM     12  C   UNL     1       7.401   4.745  11.753  0.00  0.00    +0.000 A 
ATOM     13  C   UNL     1       8.077   5.552  12.659  0.00  0.00    +0.000 A 
ATOM     14  N   UNL     1       7.931   5.474  14.002  0.00  0.00    +0.000 NA
ENDBRANCH   8   9
ENDBRANCH   1   8
BRANCH   6  15
ATOM     15  C   UNL     1       2.849   3.791  17.502  0.00  0.00    +0.000 C 
BRANCH  15  16
ATOM     16  C   UNL     1       2.404   3.443  18.901  0.00  0.00    +0.000 A 
ATOM     17  C   UNL     1       3.312   3.044  19.888  0.00  0.00    +0.000 A 
ATOM     18  C   UNL     1       2.849   2.645  21.141  0.00  0.00    +0.000 A 
ATOM     19  C   UNL     1       1.484   2.660  21.361  0.00  0.00    +0.000 A 
ATOM     20 CL   UNL     1       0.826   2.132  22.855  0.00  0.00    +0.000 Cl
ATOM     21  N   UNL     1       0.572   3.052  20.449  0.00  0.00    +0.000 NA
ATOM     22  C   UNL     1       1.053   3.435  19.245  0.00  0.00    +0.000 A 
ENDBRANCH  15  16
ENDBRANCH   6  15
TORSDOF 4
ENDMDL
MODEL 6
REMARK VINA RESULT:      -7.4      3.424      7.241
REMARK  Name = 
REMARK  4 active torsions:
REMARK  status: ('A' for Active; 'I' for Inactive)
REMARK    1  A    between atoms: C_2  and  N_3
REMARK    2  A    between atoms: C_2  and  C_17
REMARK    3  A    between atoms: N_8  and  C_9
REMARK    4  A    between atoms: C_9  and  C_10
REMARK                            x       y       z     vdW  Elec       q    Type
REMARK                         _______ _______ _______ _____ _____    ______ ____
ROOT
ATOM      1  N   UNL     1       5.555   5.848  16.853  0.00  0.00    +0.000 NA
ATOM      2  C   UNL     1       4.456   5.293  17.250  0.00  0.00    +0.000 A 
ATOM      3  S   UNL     1       4.197   3.537  17.551  0.00  0.00    +0.000 S 
ATOM      4  C   UNL     1       2.541   3.806  18.012  0.00  0.00    +0.000 A 
ATOM      5  C   UNL     1       2.231   5.106  17.955  0.00  0.00    +0.000 A 
ATOM      6  N   UNL     1       3.258   5.949  17.549  0.00  0.00    +0.000 N 
ENDROOT
BRANCH   1   8
ATOM      7  O   UNL     1       7.357   4.480  17.291  0.00  0.00    +0.000 OA
ATOM      8  C   UNL     1       6.632   5.069  16.492  0.00  0.00    +0.000 C 
BRANCH   8   9
ATOM      9  C   UNL     1       6.847   4.819  15.020  0.00  0.00    +0.000 A 
ATOM     10  C   UNL     1       6.018   3.904  14.368  0.00  0.00    +0.000 A 
ATOM     11  C   UNL     1       6.190   3.694  13.003  0.00  0.00    +0.000 A 
ATOM     12  C   UNL     1       7.177   4.401  12.329  0.00  0.00    +0.000 A 
ATOM     13  C   UNL     1       7.958   5.293  13.051  0.00  0.00    +0.000 A 
ATOM     14  N   UNL     1       7.822   5.521  14.378  0.00  0.00    +0.000 NA
ENDBRANCH   8   9
ENDBRANCH   1   8
BRANCH   6  15
ATOM     15  C   UNL     1       3.131   7.398  17.494  0.00  0.00    +0.000 C 
BRANCH  15  16
ATOM     16  C   UNL     1       2.365   7.971  18.661  0.00  0.00    +0.000 A 
ATOM     17  C   UNL     1       2.320   7.327  19.903  0.00  0.00    +0.000 A 
ATOM     18  C   UNL     1       1.528   7.845  20.927  0.00  0.00    +0.000 A 
ATOM     19  C   UNL     1       0.807   8.995  20.669  0.00  0.00    +0.000 A 
ATOM     20 CL   UNL     1      -0.235   9.667  21.855  0.00  0.00    +0.000 Cl
ATOM     21  N   UNL     1       0.831   9.661  19.497  0.00  0.00    +0.000 NA
ATOM     22  C   UNL     1       1.610   9.134  18.525  0.00  0.00    +0.000 A 
ENDBRANCH  15  16
ENDBRANCH   6  15
TORSDOF 4
ENDMDL
MODEL 7
REMARK VINA RESULT:      -7.4      1.811      2.146
REMARK  Name = 
REMARK  4 active torsions:
REMARK  status: ('A' for Active; 'I' for Inactive)
REMARK    1  A    between atoms: C_2  and  N_3
REMARK    2  A    between atoms: C_2  and  C_17
REMARK    3  A    between atoms: N_8  and  C_9
REMARK    4  A    between atoms: C_9  and  C_10
REMARK                            x       y       z     vdW  Elec       q    Type
REMARK                         _______ _______ _______ _____ _____    ______ ____
ROOT
ATOM      1  N   UNL     1       3.034   5.601  18.561  0.00  0.00    +0.000 NA
ATOM      2  C   UNL     1       3.077   4.308  18.538  0.00  0.00    +0.000 A 
ATOM      3  S   UNL     1       2.215   3.191  19.657  0.00  0.00    +0.000 S 
ATOM      4  C   UNL     1       2.869   1.794  18.853  0.00  0.00    +0.000 A 
ATOM      5  C   UNL     1       3.650   2.151  17.828  0.00  0.00    +0.000 A 
ATOM      6  N   UNL     1       3.779   3.518  17.622  0.00  0.00    +0.000 N 
ENDROOT
BRANCH   1   8
ATOM      7  O   UNL     1       2.231   5.786  20.714  0.00  0.00    +0.000 OA
ATOM      8  C   UNL     1       2.386   6.252  19.587  0.00  0.00    +0.000 C 
BRANCH   8   9
ATOM      9  C   UNL     1       1.962   7.679  19.346  0.00  0.00    +0.000 A 
ATOM     10  C   UNL     1       2.167   8.235  18.082  0.00  0.00    +0.000 A 
ATOM     11  C   UNL     1       1.747   9.541  17.845  0.00  0.00    +0.000 A 
ATOM     12  C   UNL     1       1.133  10.251  18.868  0.00  0.00    +0.000 A 
ATOM     13  C   UNL     1       0.965   9.625  20.096  0.00  0.00    +0.000 A 
ATOM     14  N   UNL     1       1.364   8.359  20.364  0.00  0.00    +0.000 NA
ENDBRANCH   8   9
ENDBRANCH   1   8
BRANCH   6  15
ATOM     15  C   UNL     1       4.529   4.095  16.514  0.00  0.00    +0.000 C 
BRANCH  15  16
ATOM     16  C   UNL     1       5.604   5.054  16.963  0.00  0.00    +0.000 A 
ATOM     17  C   UNL     1       6.547   4.706  17.935  0.00  0.00    +0.000 A 
ATOM     18  C   UNL     1       7.467   5.652  18.385  0.00  0.00    +0.000 A 
ATOM     19  C   UNL     1       7.408   6.921  17.840  0.00  0.00    +0.000 A 
ATOM     20 CL   UNL     1       8.466   8.161  18.376  0.00  0.00    +0.000 Cl
ATOM     21  N   UNL     1       6.530   7.300  16.889  0.00  0.00    +0.000 NA
ATOM     22  C   UNL     1       5.653   6.359  16.474  0.00  0.00    +0.000 A 
ENDBRANCH  15  16
ENDBRANCH   6  15
TORSDOF 4
ENDMDL
MODEL 8
REMARK VINA RESULT:      -7.1      3.300      4.820
REMARK  Name = 
REMARK  4 active torsions:
REMARK  status: ('A' for Active; 'I' for Inactive)
REMARK    1  A    between atoms: C_2  and  N_3
REMARK    2  A    between atoms: C_2  and  C_17
REMARK    3  A    between atoms: N_8  and  C_9
REMARK    4  A    between atoms: C_9  and  C_10
REMARK                            x       y       z     vdW  Elec       q    Type
REMARK                         _______ _______ _______ _____ _____    ______ ____
ROOT
ATOM      1  N   UNL     1       3.321   6.235  17.479  0.00  0.00    +0.000 NA
ATOM      2  C   UNL     1       4.556   5.899  17.289  0.00  0.00    +0.000 A 
ATOM      3  S   UNL     1       5.993   6.968  17.473  0.00  0.00    +0.000 S 
ATOM      4  C   UNL     1       7.075   5.678  17.035  0.00  0.00    +0.000 A 
ATOM      5  C   UNL     1       6.403   4.548  16.792  0.00  0.00    +0.000 A 
ATOM      6  N   UNL     1       5.023   4.631  16.929  0.00  0.00    +0.000 N 
ENDROOT
BRANCH   1   8
ATOM      7  O   UNL     1       3.214   8.476  16.952  0.00  0.00    +0.000 OA
ATOM      8  C   UNL     1       2.993   7.549  17.729  0.00  0.00    +0.000 C 
BRANCH   8   9
ATOM      9  C   UNL     1       2.192   7.842  18.973  0.00  0.00    +0.000 A 
ATOM     10  C   UNL     1       2.135   6.874  19.976  0.00  0.00    +0.000 A 
ATOM     11  C   UNL     1       1.424   7.152  21.141  0.00  0.00    +0.000 A 
ATOM     12  C   UNL     1       0.796   8.383  21.272  0.00  0.00    +0.000 A 
ATOM     13  C   UNL     1       0.903   9.292  20.228  0.00  0.00    +0.000 A 
ATOM     14  N   UNL     1       1.582   9.055  19.081  0.00  0.00    +0.000 NA
ENDBRANCH   8   9
ENDBRANCH   1   8
BRANCH   6  15
ATOM     15  C   UNL     1       4.131   3.490  16.775  0.00  0.00    +0.000 C 
BRANCH  15  16
ATOM     16  C   UNL     1       3.362   3.165  18.032  0.00  0.00    +0.000 A 
ATOM     17  C   UNL     1       1.963   3.144  18.058  0.00  0.00    +0.000 A 
ATOM     18  C   UNL     1       1.292   2.928  19.261  0.00  0.00    +0.000 A 
ATOM     19  C   UNL     1       2.052   2.739  20.400  0.00  0.00    +0.000 A 
ATOM     20 CL   UNL     1       1.307   2.521  21.930  0.00  0.00    +0.000 Cl
ATOM     21  N   UNL     1       3.400   2.732  20.423  0.00  0.00    +0.000 NA
ATOM     22  C   UNL     1       4.020   2.943  19.240  0.00  0.00    +0.000 A 
ENDBRANCH  15  16
ENDBRANCH   6  15
TORSDOF 4
ENDMDL
MODEL 9
REMARK VINA RESULT:      -7.1      2.639      4.192
REMARK  Name = 
REMARK  4 active torsions:
REMARK  status: ('A' for Active; 'I' for Inactive)
REMARK    1  A    between atoms: C_2  and  N_3
REMARK    2  A    between atoms: C_2  and  C_17
REMARK    3  A    between atoms: N_8  and  C_9
REMARK    4  A    between atoms: C_9  and  C_10
REMARK                            x       y       z     vdW  Elec       q    Type
REMARK                         _______ _______ _______ _____ _____    ______ ____
ROOT
ATOM      1  N   UNL     1       3.696   6.099  17.592  0.00  0.00    +0.000 NA
ATOM      2  C   UNL     1       4.939   5.754  17.683  0.00  0.00    +0.000 A 
ATOM      3  S   UNL     1       5.776   5.155  19.160  0.00  0.00    +0.000 S 
ATOM      4  C   UNL     1       7.280   4.983  18.303  0.00  0.00    +0.000 A 
ATOM      5  C   UNL     1       7.146   5.334  17.020  0.00  0.00    +0.000 A 
ATOM      6  N   UNL     1       5.876   5.753  16.644  0.00  0.00    +0.000 N 
ENDROOT
BRANCH   1   8
ATOM      7  O   UNL     1       2.668   7.183  19.347  0.00  0.00    +0.000 OA
ATOM      8  C   UNL     1       2.910   6.153  18.722  0.00  0.00    +0.000 C 
BRANCH   8   9
ATOM      9  C   UNL     1       2.196   4.889  19.133  0.00  0.00    +0.000 A 
ATOM     10  C   UNL     1       1.930   4.680  20.486  0.00  0.00    +0.000 A 
ATOM     11  C   UNL     1       1.241   3.531  20.868  0.00  0.00    +0.000 A 
ATOM     12  C   UNL     1       0.837   2.629  19.892  0.00  0.00    +0.000 A 
ATOM     13  C   UNL     1       1.140   2.913  18.567  0.00  0.00    +0.000 A 
ATOM     14  N   UNL     1       1.810   4.017  18.160  0.00  0.00    +0.000 NA
ENDBRANCH   8   9
ENDBRANCH   1   8
BRANCH   6  15
ATOM     15  C   UNL     1       5.520   6.106  15.277  0.00  0.00    +0.000 C 
BRANCH  15  16
ATOM     16  C   UNL     1       6.049   5.128  14.256  0.00  0.00    +0.000 A 
ATOM     17  C   UNL     1       7.245   5.353  13.566  0.00  0.00    +0.000 A 
ATOM     18  C   UNL     1       7.651   4.469  12.568  0.00  0.00    +0.000 A 
ATOM     19  C   UNL     1       6.838   3.384  12.296  0.00  0.00    +0.000 A 
ATOM     20 CL   UNL     1       7.235   2.278  11.046  0.00  0.00    +0.000 Cl
ATOM     21  N   UNL     1       5.688   3.115  12.943  0.00  0.00    +0.000 NA
ATOM     22  C   UNL     1       5.323   3.990  13.907  0.00  0.00    +0.000 A 
ENDBRANCH  15  16
ENDBRANCH   6  15
TORSDOF 4
ENDMDL
