MODEL 1
REMARK VINA RESULT:      -6.3      0.000      0.000
REMARK  Name = 
REMARK  5 active torsions:
REMARK  status: ('A' for Active; 'I' for Inactive)
REMARK    1  A    between atoms: C_1  and  C_2
REMARK    2  A    between atoms: C_4  and  C_5
REMARK    3  A    between atoms: C_7  and  N_8
REMARK    4  A    between atoms: N_11  and  C_12
REMARK    5  A    between atoms: C_12  and  C_13
REMARK                            x       y       z     vdW  Elec       q    Type
REMARK                         _______ _______ _______ _____ _____    ______ ____
ROOT
ATOM      1  N   UNL     1       5.141   3.530  18.770  0.00  0.00    +0.000 N 
ATOM      2  C   UNL     1       3.796   3.236  18.847  0.00  0.00    +0.000 C 
ATOM      3  O   UNL     1       2.932   3.527  18.030  0.00  0.00    +0.000 OA
ATOM      4  N   UNL     1       3.458   2.577  20.008  0.00  0.00    +0.000 N 
ATOM      5  H   UNL     1       5.731   3.163  19.499  0.00  0.00    +0.000 HD
ATOM      6  H   UNL     1       4.173   2.081  20.518  0.00  0.00    +0.000 HD
ENDROOT
BRANCH   1  13
ATOM      7  C   UNL     1       7.647   7.613  17.525  0.00  0.00    +0.000 C 
ATOM      8  C   UNL     1       7.006   6.311  17.139  0.00  0.00    +0.000 A 
ATOM      9  C   UNL     1       7.032   5.884  15.805  0.00  0.00    +0.000 A 
ATOM     10  C   UNL     1       6.435   4.676  15.440  0.00  0.00    +0.000 A 
ATOM     11  C   UNL     1       6.437   4.191  14.022  0.00  0.00    +0.000 C 
ATOM     12  C   UNL     1       5.812   3.896  16.421  0.00  0.00    +0.000 A 
ATOM     13  C   UNL     1       5.774   4.294  17.759  0.00  0.00    +0.000 A 
ATOM     14  C   UNL     1       6.372   5.511  18.110  0.00  0.00    +0.000 A 
ENDBRANCH   1  13
BRANCH   4  15
ATOM     15  C   UNL     1       2.070   2.195  20.231  0.00  0.00    +0.000 C 
BRANCH  15  16
ATOM     16  C   UNL     1       1.346   3.064  21.260  0.00  0.00    +0.000 C 
ATOM     17 CL   UNL     1       1.165   4.735  20.662  0.00  0.00    +0.000 Cl
ENDBRANCH  15  16
ENDBRANCH   4  15
TORSDOF 3
ENDMDL
MODEL 2
REMARK VINA RESULT:      -6.3      1.133      1.167
REMARK  Name = 
REMARK  5 active torsions:
REMARK  status: ('A' for Active; 'I' for Inactive)
REMARK    1  A    between atoms: C_1  and  C_2
REMARK    2  A    between atoms: C_4  and  C_5
REMARK    3  A    between atoms: C_7  and  N_8
REMARK    4  A    between atoms: N_11  and  C_12
REMARK    5  A    between atoms: C_12  and  C_13
REMARK                            x       y       z     vdW  Elec       q    Type
REMARK                         _______ _______ _______ _____ _____    ______ ____
ROOT
ATOM      1  N   UNL     1       4.399   3.018  17.679  0.00  0.00    +0.000 N 
ATOM      2  C   UNL     1       3.071   3.275  17.945  0.00  0.00    +0.000 C 
ATOM      3  O   UNL     1       2.398   4.199  17.504  0.00  0.00    +0.000 OA
ATOM      4  N   UNL     1       2.519   2.379  18.832  0.00  0.00    +0.000 N 
ATOM      5  H   UNL     1       4.789   2.177  18.074  0.00  0.00    +0.000 HD
ATOM      6  H   UNL     1       2.953   1.476  18.954  0.00  0.00    +0.000 HD
ENDROOT
BRANCH   1  13
ATOM      7  C   UNL     1       7.430   6.923  17.422  0.00  0.00    +0.000 C 
ATOM      8  C   UNL     1       6.759   5.750  16.766  0.00  0.00    +0.000 A 
ATOM      9  C   UNL     1       6.987   5.479  15.410  0.00  0.00    +0.000 A 
ATOM     10  C   UNL     1       6.364   4.393  14.794  0.00  0.00    +0.000 A 
ATOM     11  C   UNL     1       6.580   4.076  13.346  0.00  0.00    +0.000 C 
ATOM     12  C   UNL     1       5.511   3.576  15.545  0.00  0.00    +0.000 A 
ATOM     13  C   UNL     1       5.267   3.820  16.898  0.00  0.00    +0.000 A 
ATOM     14  C   UNL     1       5.894   4.917  17.502  0.00  0.00    +0.000 A 
ENDBRANCH   1  13
BRANCH   4  15
ATOM     15  C   UNL     1       1.118   2.519  19.208  0.00  0.00    +0.000 C 
BRANCH  15  16
ATOM     16  C   UNL     1       0.901   3.267  20.523  0.00  0.00    +0.000 C 
ATOM     17 CL   UNL     1       2.217   2.916  21.675  0.00  0.00    +0.000 Cl
ENDBRANCH  15  16
ENDBRANCH   4  15
TORSDOF 3
ENDMDL
MODEL 3
REMARK VINA RESULT:      -6.2      1.164      2.510
REMARK  Name = 
REMARK  5 active torsions:
REMARK  status: ('A' for Active; 'I' for Inactive)
REMARK    1  A    between atoms: C_1  and  C_2
REMARK    2  A    between atoms: C_4  and  C_5
REMARK    3  A    between atoms: C_7  and  N_8
REMARK    4  A    between atoms: N_11  and  C_12
REMARK    5  A    between atoms: C_12  and  C_13
REMARK                            x       y       z     vdW  Elec       q    Type
REMARK                         _______ _______ _______ _____ _____    ______ ____
ROOT
ATOM      1  N   UNL     1       4.382   3.068  17.667  0.00  0.00    +0.000 N 
ATOM      2  C   UNL     1       3.059   3.328  17.953  0.00  0.00    +0.000 C 
ATOM      3  O   UNL     1       2.394   4.278  17.559  0.00  0.00    +0.000 OA
ATOM      4  N   UNL     1       2.503   2.399  18.803  0.00  0.00    +0.000 N 
ATOM      5  H   UNL     1       4.765   2.206  18.021  0.00  0.00    +0.000 HD
ATOM      6  H   UNL     1       2.927   1.487  18.881  0.00  0.00    +0.000 HD
ENDROOT
BRANCH   1  13
ATOM      7  C   UNL     1       6.581   4.039  13.340  0.00  0.00    +0.000 C 
ATOM      8  C   UNL     1       6.346   4.375  14.785  0.00  0.00    +0.000 A 
ATOM      9  C   UNL     1       6.993   5.474  15.364  0.00  0.00    +0.000 A 
ATOM     10  C   UNL     1       6.781   5.789  16.708  0.00  0.00    +0.000 A 
ATOM     11  C   UNL     1       7.459   6.954  17.362  0.00  0.00    +0.000 C 
ATOM     12  C   UNL     1       5.915   4.996  17.469  0.00  0.00    +0.000 A 
ATOM     13  C   UNL     1       5.254   3.895  16.918  0.00  0.00    +0.000 A 
ATOM     14  C   UNL     1       5.481   3.588  15.570  0.00  0.00    +0.000 A 
ENDBRANCH   1  13
BRANCH   4  15
ATOM     15  C   UNL     1       1.105   2.538  19.193  0.00  0.00    +0.000 C 
BRANCH  15  16
ATOM     16  C   UNL     1       0.906   3.200  20.556  0.00  0.00    +0.000 C 
ATOM     17 CL   UNL     1       2.203   2.726  21.686  0.00  0.00    +0.000 Cl
ENDBRANCH  15  16
ENDBRANCH   4  15
TORSDOF 3
ENDMDL
MODEL 4
REMARK VINA RESULT:      -6.2      0.848      2.382
REMARK  Name = 
REMARK  5 active torsions:
REMARK  status: ('A' for Active; 'I' for Inactive)
REMARK    1  A    between atoms: C_1  and  C_2
REMARK    2  A    between atoms: C_4  and  C_5
REMARK    3  A    between atoms: C_7  and  N_8
REMARK    4  A    between atoms: N_11  and  C_12
REMARK    5  A    between atoms: C_12  and  C_13
REMARK                            x       y       z     vdW  Elec       q    Type
REMARK                         _______ _______ _______ _____ _____    ______ ____
ROOT
ATOM      1  N   UNL     1       4.863   3.234  18.463  0.00  0.00    +0.000 N 
ATOM      2  C   UNL     1       4.078   3.647  19.518  0.00  0.00    +0.000 C 
ATOM      3  O   UNL     1       3.783   4.799  19.810  0.00  0.00    +0.000 OA
ATOM      4  N   UNL     1       3.645   2.602  20.303  0.00  0.00    +0.000 N 
ATOM      5  H   UNL     1       4.958   2.241  18.325  0.00  0.00    +0.000 HD
ATOM      6  H   UNL     1       3.623   1.671  19.915  0.00  0.00    +0.000 HD
ENDROOT
BRANCH   1  13
ATOM      7  C   UNL     1       6.244   4.135  13.796  0.00  0.00    +0.000 C 
ATOM      8  C   UNL     1       6.234   4.521  15.247  0.00  0.00    +0.000 A 
ATOM      9  C   UNL     1       6.899   5.679  15.671  0.00  0.00    +0.000 A 
ATOM     10  C   UNL     1       6.895   6.040  17.020  0.00  0.00    +0.000 A 
ATOM     11  C   UNL     1       7.599   7.268  17.510  0.00  0.00    +0.000 C 
ATOM     12  C   UNL     1       6.219   5.234  17.943  0.00  0.00    +0.000 A 
ATOM     13  C   UNL     1       5.545   4.075  17.549  0.00  0.00    +0.000 A 
ATOM     14  C   UNL     1       5.562   3.722  16.194  0.00  0.00    +0.000 A 
ENDBRANCH   1  13
BRANCH   4  15
ATOM     15  C   UNL     1       2.800   2.881  21.457  0.00  0.00    +0.000 C 
BRANCH  15  16
ATOM     16  C   UNL     1       1.308   2.672  21.197  0.00  0.00    +0.000 C 
ATOM     17 CL   UNL     1       0.635   4.028  20.252  0.00  0.00    +0.000 Cl
ENDBRANCH  15  16
ENDBRANCH   4  15
TORSDOF 3
ENDMDL
MODEL 5
REMARK VINA RESULT:      -6.1      0.960      1.009
REMARK  Name = 
REMARK  5 active torsions:
REMARK  status: ('A' for Active; 'I' for Inactive)
REMARK    1  A    between atoms: C_1  and  C_2
REMARK    2  A    between atoms: C_4  and  C_5
REMARK    3  A    between atoms: C_7  and  N_8
REMARK    4  A    between atoms: N_11  and  C_12
REMARK    5  A    between atoms: C_12  and  C_13
REMARK                            x       y       z     vdW  Elec       q    Type
REMARK                         _______ _______ _______ _____ _____    ______ ____
ROOT
ATOM      1  N   UNL     1       5.037   3.591  18.907  0.00  0.00    +0.000 N 
ATOM      2  C   UNL     1       3.936   4.006  19.625  0.00  0.00    +0.000 C 
ATOM      3  O   UNL     1       3.299   5.040  19.464  0.00  0.00    +0.000 OA
ATOM      4  N   UNL     1       3.595   3.134  20.635  0.00  0.00    +0.000 N 
ATOM      5  H   UNL     1       5.408   2.680  19.126  0.00  0.00    +0.000 HD
ATOM      6  H   UNL     1       3.904   2.175  20.582  0.00  0.00    +0.000 HD
ENDROOT
BRANCH   1  13
ATOM      7  C   UNL     1       7.743   7.531  17.621  0.00  0.00    +0.000 C 
ATOM      8  C   UNL     1       7.024   6.267  17.245  0.00  0.00    +0.000 A 
ATOM      9  C   UNL     1       7.001   5.842  15.910  0.00  0.00    +0.000 A 
ATOM     10  C   UNL     1       6.332   4.670  15.555  0.00  0.00    +0.000 A 
ATOM     11  C   UNL     1       6.282   4.188  14.138  0.00  0.00    +0.000 C 
ATOM     12  C   UNL     1       5.685   3.923  16.546  0.00  0.00    +0.000 A 
ATOM     13  C   UNL     1       5.693   4.320  17.886  0.00  0.00    +0.000 A 
ATOM     14  C   UNL     1       6.363   5.501  18.227  0.00  0.00    +0.000 A 
ENDBRANCH   1  13
BRANCH   4  15
ATOM     15  C   UNL     1       2.447   3.436  21.479  0.00  0.00    +0.000 C 
BRANCH  15  16
ATOM     16  C   UNL     1       1.220   2.571  21.189  0.00  0.00    +0.000 C 
ATOM     17 CL   UNL     1       0.631   2.847  19.528  0.00  0.00    +0.000 Cl
ENDBRANCH  15  16
ENDBRANCH   4  15
TORSDOF 3
ENDMDL
MODEL 6
REMARK VINA RESULT:      -6.1      3.369      6.268
REMARK  Name = 
REMARK  5 active torsions:
REMARK  status: ('A' for Active; 'I' for Inactive)
REMARK    1  A    between atoms: C_1  and  C_2
REMARK    2  A    between atoms: C_4  and  C_5
REMARK    3  A    between atoms: C_7  and  N_8
REMARK    4  A    between atoms: N_11  and  C_12
REMARK    5  A    between atoms: C_12  and  C_13
REMARK                            x       y       z     vdW  Elec       q    Type
REMARK                         _______ _______ _______ _____ _____    ______ ____
ROOT
ATOM      1  N   UNL     1       5.070   3.988  18.179  0.00  0.00    +0.000 N 
ATOM      2  C   UNL     1       5.358   4.551  16.955  0.00  0.00    +0.000 C 
ATOM      3  O   UNL     1       4.794   5.504  16.432  0.00  0.00    +0.000 OA
ATOM      4  N   UNL     1       6.374   3.899  16.293  0.00  0.00    +0.000 N 
ATOM      5  H   UNL     1       5.672   3.244  18.494  0.00  0.00    +0.000 HD
ATOM      6  H   UNL     1       7.024   3.336  16.820  0.00  0.00    +0.000 HD
ENDROOT
BRANCH   1  13
ATOM      7  C   UNL     1       1.675   2.618  21.512  0.00  0.00    +0.000 C 
ATOM      8  C   UNL     1       2.329   3.687  20.683  0.00  0.00    +0.000 A 
ATOM      9  C   UNL     1       1.878   5.011  20.764  0.00  0.00    +0.000 A 
ATOM     10  C   UNL     1       2.480   6.008  19.994  0.00  0.00    +0.000 A 
ATOM     11  C   UNL     1       2.022   7.433  20.050  0.00  0.00    +0.000 C 
ATOM     12  C   UNL     1       3.538   5.671  19.142  0.00  0.00    +0.000 A 
ATOM     13  C   UNL     1       4.009   4.360  19.042  0.00  0.00    +0.000 A 
ATOM     14  C   UNL     1       3.393   3.369  19.816  0.00  0.00    +0.000 A 
ENDBRANCH   1  13
BRANCH   4  15
ATOM     15  C   UNL     1       6.796   4.383  14.984  0.00  0.00    +0.000 C 
BRANCH  15  16
ATOM     16  C   UNL     1       6.016   3.776  13.818  0.00  0.00    +0.000 C 
ATOM     17 CL   UNL     1       6.900   3.994  12.284  0.00  0.00    +0.000 Cl
ENDBRANCH  15  16
ENDBRANCH   4  15
TORSDOF 3
ENDMDL
MODEL 7
REMARK VINA RESULT:      -6.0      1.170      2.511
REMARK  Name = 
REMARK  5 active torsions:
REMARK  status: ('A' for Active; 'I' for Inactive)
REMARK    1  A    between atoms: C_1  and  C_2
REMARK    2  A    between atoms: C_4  and  C_5
REMARK    3  A    between atoms: C_7  and  N_8
REMARK    4  A    between atoms: N_11  and  C_12
REMARK    5  A    between atoms: C_12  and  C_13
REMARK                            x       y       z     vdW  Elec       q    Type
REMARK                         _______ _______ _______ _____ _____    ______ ____
ROOT
ATOM      1  N   UNL     1       3.430   4.217  17.287  0.00  0.00    +0.000 N 
ATOM      2  C   UNL     1       3.307   3.391  18.384  0.00  0.00    +0.000 C 
ATOM      3  O   UNL     1       4.214   2.958  19.083  0.00  0.00    +0.000 OA
ATOM      4  N   UNL     1       2.003   3.029  18.638  0.00  0.00    +0.000 N 
ATOM      5  H   UNL     1       2.576   4.536  16.858  0.00  0.00    +0.000 HD
ATOM      6  H   UNL     1       1.254   3.601  18.278  0.00  0.00    +0.000 HD
ENDROOT
BRANCH   1  13
ATOM      7  C   UNL     1       6.630   4.012  13.517  0.00  0.00    +0.000 C 
ATOM      8  C   UNL     1       6.228   4.565  14.854  0.00  0.00    +0.000 A 
ATOM      9  C   UNL     1       7.051   5.492  15.506  0.00  0.00    +0.000 A 
ATOM     10  C   UNL     1       6.683   6.007  16.751  0.00  0.00    +0.000 A 
ATOM     11  C   UNL     1       7.541   6.996  17.480  0.00  0.00    +0.000 C 
ATOM     12  C   UNL     1       5.484   5.588  17.339  0.00  0.00    +0.000 A 
ATOM     13  C   UNL     1       4.642   4.668  16.711  0.00  0.00    +0.000 A 
ATOM     14  C   UNL     1       5.026   4.155  15.465  0.00  0.00    +0.000 A 
ENDBRANCH   1  13
BRANCH   4  15
ATOM     15  C   UNL     1       1.714   2.160  19.771  0.00  0.00    +0.000 C 
BRANCH  15  16
ATOM     16  C   UNL     1       1.263   2.907  21.026  0.00  0.00    +0.000 C 
ATOM     17 CL   UNL     1       1.182   4.663  20.722  0.00  0.00    +0.000 Cl
ENDBRANCH  15  16
ENDBRANCH   4  15
TORSDOF 3
ENDMDL
MODEL 8
REMARK VINA RESULT:      -6.0      3.352      6.071
REMARK  Name = 
REMARK  5 active torsions:
REMARK  status: ('A' for Active; 'I' for Inactive)
REMARK    1  A    between atoms: C_1  and  C_2
REMARK    2  A    between atoms: C_4  and  C_5
REMARK    3  A    between atoms: C_7  and  N_8
REMARK    4  A    between atoms: N_11  and  C_12
REMARK    5  A    between atoms: C_12  and  C_13
REMARK                            x       y       z     vdW  Elec       q    Type
REMARK                         _______ _______ _______ _____ _____    ______ ____
ROOT
ATOM      1  N   UNL     1       5.049   3.971  18.187  0.00  0.00    +0.000 N 
ATOM      2  C   UNL     1       5.301   4.533  16.954  0.00  0.00    +0.000 C 
ATOM      3  O   UNL     1       4.689   5.453  16.426  0.00  0.00    +0.000 OA
ATOM      4  N   UNL     1       6.341   3.923  16.289  0.00  0.00    +0.000 N 
ATOM      5  H   UNL     1       5.689   3.259  18.503  0.00  0.00    +0.000 HD
ATOM      6  H   UNL     1       7.021   3.396  16.817  0.00  0.00    +0.000 HD
ENDROOT
BRANCH   1  13
ATOM      7  C   UNL     1       2.033   7.443  20.017  0.00  0.00    +0.000 C 
ATOM      8  C   UNL     1       2.493   6.014  19.965  0.00  0.00    +0.000 A 
ATOM      9  C   UNL     1       1.878   5.049  20.774  0.00  0.00    +0.000 A 
ATOM     10  C   UNL     1       2.304   3.720  20.732  0.00  0.00    +0.000 A 
ATOM     11  C   UNL     1       1.674   2.662  21.586  0.00  0.00    +0.000 C 
ATOM     12  C   UNL     1       3.351   3.362  19.875  0.00  0.00    +0.000 A 
ATOM     13  C   UNL     1       3.981   4.302  19.055  0.00  0.00    +0.000 A 
ATOM     14  C   UNL     1       3.547   5.632  19.111  0.00  0.00    +0.000 A 
ENDBRANCH   1  13
BRANCH   4  15
ATOM     15  C   UNL     1       6.729   4.411  14.972  0.00  0.00    +0.000 C 
BRANCH  15  16
ATOM     16  C   UNL     1       5.871   3.865  13.831  0.00  0.00    +0.000 C 
ATOM     17 CL   UNL     1       6.816   3.766  12.321  0.00  0.00    +0.000 Cl
ENDBRANCH  15  16
ENDBRANCH   4  15
TORSDOF 3
ENDMDL
MODEL 9
REMARK VINA RESULT:      -6.0      1.144      1.161
REMARK  Name = 
REMARK  5 active torsions:
REMARK  status: ('A' for Active; 'I' for Inactive)
REMARK    1  A    between atoms: C_1  and  C_2
REMARK    2  A    between atoms: C_4  and  C_5
REMARK    3  A    between atoms: C_7  and  N_8
REMARK    4  A    between atoms: N_11  and  C_12
REMARK    5  A    between atoms: C_12  and  C_13
REMARK                            x       y       z     vdW  Elec       q    Type
REMARK                         _______ _______ _______ _____ _____    ______ ____
ROOT
ATOM      1  N   UNL     1       3.445   4.089  17.324  0.00  0.00    +0.000 N 
ATOM      2  C   UNL     1       3.364   3.329  18.471  0.00  0.00    +0.000 C 
ATOM      3  O   UNL     1       4.294   2.960  19.176  0.00  0.00    +0.000 OA
ATOM      4  N   UNL     1       2.075   2.952  18.772  0.00  0.00    +0.000 N 
ATOM      5  H   UNL     1       2.575   4.360  16.893  0.00  0.00    +0.000 HD
ATOM      6  H   UNL     1       1.305   3.482  18.394  0.00  0.00    +0.000 HD
ENDROOT
BRANCH   1  13
ATOM      7  C   UNL     1       7.444   7.004  17.462  0.00  0.00    +0.000 C 
ATOM      8  C   UNL     1       6.607   5.974  16.757  0.00  0.00    +0.000 A 
ATOM      9  C   UNL     1       7.002   5.485  15.505  0.00  0.00    +0.000 A 
ATOM     10  C   UNL     1       6.227   4.530  14.845  0.00  0.00    +0.000 A 
ATOM     11  C   UNL     1       6.615   3.989  13.503  0.00  0.00    +0.000 C 
ATOM     12  C   UNL     1       5.052   4.066  15.448  0.00  0.00    +0.000 A 
ATOM     13  C   UNL     1       4.635   4.533  16.696  0.00  0.00    +0.000 A 
ATOM     14  C   UNL     1       5.419   5.495  17.344  0.00  0.00    +0.000 A 
ENDBRANCH   1  13
BRANCH   4  15
ATOM     15  C   UNL     1       1.828   2.146  19.962  0.00  0.00    +0.000 C 
BRANCH  15  16
ATOM     16  C   UNL     1       1.363   2.954  21.173  0.00  0.00    +0.000 C 
ATOM     17 CL   UNL     1       1.122   4.667  20.734  0.00  0.00    +0.000 Cl
ENDBRANCH  15  16
ENDBRANCH   4  15
TORSDOF 3
ENDMDL
