MODEL 1
REMARK VINA RESULT:      -7.6      0.000      0.000
REMARK  Name = 
REMARK  5 active torsions:
REMARK  status: ('A' for Active; 'I' for Inactive)
REMARK    1  A    between atoms: C_1  and  C_2
REMARK    2  A    between atoms: C_5  and  C_6
REMARK    3  A    between atoms: C_6  and  O_7
REMARK    4  A    between atoms: C_6  and  C_8
REMARK    5  A    between atoms: C_6  and  C_14
REMARK                            x       y       z     vdW  Elec       q    Type
REMARK                         _______ _______ _______ _____ _____    ______ ____
ROOT
ATOM      1  C   UNL     1       3.703   5.513  18.821  0.00  0.00    +0.000 C 
ENDROOT
BRANCH   1   6
ATOM      2  C   UNL     1       0.460  10.433  18.654  0.00  0.00    +0.000 C 
ATOM      3  C   UNL     1       1.382   9.252  18.725  0.00  0.00    +0.000 A 
ATOM      4  C   UNL     1       2.144   8.868  17.621  0.00  0.00    +0.000 A 
ATOM      5  C   UNL     1       2.936   7.713  17.670  0.00  0.00    +0.000 A 
ATOM      6  C   UNL     1       2.961   6.885  18.808  0.00  0.00    +0.000 A 
ATOM      7  C   UNL     1       2.237   7.328  19.935  0.00  0.00    +0.000 A 
ATOM      8  C   UNL     1       1.465   8.497  19.896  0.00  0.00    +0.000 A 
ENDBRANCH   1   6
BRANCH   1   9
ATOM      9  C   UNL     1       2.802   4.256  18.864  0.00  0.00    +0.000 A 
ATOM     10  C   UNL     1       1.432   4.322  18.522  0.00  0.00    +0.000 A 
ATOM     11  C   UNL     1       0.618   3.184  18.509  0.00  0.00    +0.000 A 
ATOM     12  C   UNL     1       1.142   1.944  18.850  0.00  0.00    +0.000 A 
ATOM     13  C   UNL     1       2.473   1.848  19.233  0.00  0.00    +0.000 A 
ATOM     14  C   UNL     1       3.294   2.985  19.259  0.00  0.00    +0.000 A 
ATOM     15 CL   UNL     1       4.913   2.709  19.817  0.00  0.00    +0.000 Cl
ENDBRANCH   1   9
BRANCH   1  16
ATOM     16  C   UNL     1       4.725   5.493  17.660  0.00  0.00    +0.000 A 
ATOM     17  C   UNL     1       4.530   4.751  16.481  0.00  0.00    +0.000 A 
ATOM     18  C   UNL     1       5.463   4.807  15.448  0.00  0.00    +0.000 A 
ATOM     19  C   UNL     1       6.593   5.584  15.623  0.00  0.00    +0.000 A 
ATOM     20  N   UNL     1       6.851   6.278  16.749  0.00  0.00    +0.000 NA
ATOM     21  C   UNL     1       5.916   6.219  17.727  0.00  0.00    +0.000 A 
ENDBRANCH   1  16
BRANCH   1  22
ATOM     22  O   UNL     1       4.422   5.421  20.068  0.00  0.00    +0.000 OA
ATOM     23  H   UNL     1       3.933   4.811  20.638  0.00  0.00    +0.000 HD
ENDBRANCH   1  22
TORSDOF 4
ENDMDL
MODEL 2
REMARK VINA RESULT:      -7.6      1.872      5.460
REMARK  Name = 
REMARK  5 active torsions:
REMARK  status: ('A' for Active; 'I' for Inactive)
REMARK    1  A    between atoms: C_1  and  C_2
REMARK    2  A    between atoms: C_5  and  C_6
REMARK    3  A    between atoms: C_6  and  O_7
REMARK    4  A    between atoms: C_6  and  C_8
REMARK    5  A    between atoms: C_6  and  C_14
REMARK                            x       y       z     vdW  Elec       q    Type
REMARK                         _______ _______ _______ _____ _____    ______ ____
ROOT
ATOM      1  C   UNL     1       3.823   5.499  18.744  0.00  0.00    +0.000 C 
ENDROOT
BRANCH   1   6
ATOM      2  C   UNL     1       7.274   4.951  13.997  0.00  0.00    +0.000 C 
ATOM      3  C   UNL     1       6.444   4.985  15.246  0.00  0.00    +0.000 A 
ATOM      4  C   UNL     1       5.227   4.307  15.319  0.00  0.00    +0.000 A 
ATOM      5  C   UNL     1       4.420   4.415  16.459  0.00  0.00    +0.000 A 
ATOM      6  C   UNL     1       4.783   5.236  17.544  0.00  0.00    +0.000 A 
ATOM      7  C   UNL     1       6.048   5.858  17.477  0.00  0.00    +0.000 A 
ATOM      8  C   UNL     1       6.867   5.729  16.348  0.00  0.00    +0.000 A 
ENDBRANCH   1   6
BRANCH   1   9
ATOM      9  C   UNL     1       3.032   6.828  18.701  0.00  0.00    +0.000 A 
ATOM     10  C   UNL     1       3.195   7.745  17.638  0.00  0.00    +0.000 A 
ATOM     11  C   UNL     1       2.450   8.927  17.561  0.00  0.00    +0.000 A 
ATOM     12  C   UNL     1       1.528   9.240  18.551  0.00  0.00    +0.000 A 
ATOM     13  C   UNL     1       1.373   8.384  19.634  0.00  0.00    +0.000 A 
ATOM     14  C   UNL     1       2.123   7.202  19.724  0.00  0.00    +0.000 A 
ATOM     15 CL   UNL     1       1.858   6.273  21.165  0.00  0.00    +0.000 Cl
ENDBRANCH   1   9
BRANCH   1  16
ATOM     16  C   UNL     1       2.920   4.257  18.937  0.00  0.00    +0.000 A 
ATOM     17  C   UNL     1       1.680   4.104  18.290  0.00  0.00    +0.000 A 
ATOM     18  C   UNL     1       0.930   2.943  18.464  0.00  0.00    +0.000 A 
ATOM     19  C   UNL     1       1.420   1.964  19.307  0.00  0.00    +0.000 A 
ATOM     20  N   UNL     1       2.578   2.078  19.987  0.00  0.00    +0.000 NA
ATOM     21  C   UNL     1       3.295   3.209  19.782  0.00  0.00    +0.000 A 
ENDBRANCH   1  16
BRANCH   1  22
ATOM     22  O   UNL     1       4.638   5.661  19.923  0.00  0.00    +0.000 OA
ATOM     23  H   UNL     1       5.429   6.152  19.661  0.00  0.00    +0.000 HD
ENDBRANCH   1  22
TORSDOF 4
ENDMDL
MODEL 3
REMARK VINA RESULT:      -7.5      1.900      5.507
REMARK  Name = 
REMARK  5 active torsions:
REMARK  status: ('A' for Active; 'I' for Inactive)
REMARK    1  A    between atoms: C_1  and  C_2
REMARK    2  A    between atoms: C_5  and  C_6
REMARK    3  A    between atoms: C_6  and  O_7
REMARK    4  A    between atoms: C_6  and  C_8
REMARK    5  A    between atoms: C_6  and  C_14
REMARK                            x       y       z     vdW  Elec       q    Type
REMARK                         _______ _______ _______ _____ _____    ______ ____
ROOT
ATOM      1  C   UNL     1       3.741   5.443  18.695  0.00  0.00    +0.000 C 
ENDROOT
BRANCH   1   6
ATOM      2  C   UNL     1       7.363   5.016  14.063  0.00  0.00    +0.000 C 
ATOM      3  C   UNL     1       6.491   5.021  15.284  0.00  0.00    +0.000 A 
ATOM      4  C   UNL     1       5.293   4.308  15.314  0.00  0.00    +0.000 A 
ATOM      5  C   UNL     1       4.445   4.388  16.427  0.00  0.00    +0.000 A 
ATOM      6  C   UNL     1       4.748   5.214  17.526  0.00  0.00    +0.000 A 
ATOM      7  C   UNL     1       5.996   5.871  17.504  0.00  0.00    +0.000 A 
ATOM      8  C   UNL     1       6.856   5.772  16.403  0.00  0.00    +0.000 A 
ENDBRANCH   1   6
BRANCH   1   9
ATOM      9  C   UNL     1       2.998   6.800  18.692  0.00  0.00    +0.000 A 
ATOM     10  C   UNL     1       3.187   7.739  17.652  0.00  0.00    +0.000 A 
ATOM     11  C   UNL     1       2.485   8.948  17.611  0.00  0.00    +0.000 A 
ATOM     12  C   UNL     1       1.579   9.267  18.614  0.00  0.00    +0.000 A 
ATOM     13  C   UNL     1       1.399   8.389  19.675  0.00  0.00    +0.000 A 
ATOM     14  C   UNL     1       2.108   7.179  19.730  0.00  0.00    +0.000 A 
ATOM     15 CL   UNL     1       1.817   6.221  21.146  0.00  0.00    +0.000 Cl
ENDBRANCH   1   9
BRANCH   1  16
ATOM     16  C   UNL     1       2.789   4.226  18.775  0.00  0.00    +0.000 A 
ATOM     17  C   UNL     1       3.046   3.105  19.584  0.00  0.00    +0.000 A 
ATOM     18  C   UNL     1       2.130   2.057  19.653  0.00  0.00    +0.000 A 
ATOM     19  C   UNL     1       0.982   2.136  18.886  0.00  0.00    +0.000 A 
ATOM     20  N   UNL     1       0.708   3.165  18.060  0.00  0.00    +0.000 NA
ATOM     21  C   UNL     1       1.608   4.177  18.030  0.00  0.00    +0.000 A 
ENDBRANCH   1  16
BRANCH   1  22
ATOM     22  O   UNL     1       4.504   5.511  19.917  0.00  0.00    +0.000 OA
ATOM     23  H   UNL     1       5.386   5.163  19.725  0.00  0.00    +0.000 HD
ENDBRANCH   1  22
TORSDOF 4
ENDMDL
MODEL 4
REMARK VINA RESULT:      -7.4      1.388      1.673
REMARK  Name = 
REMARK  5 active torsions:
REMARK  status: ('A' for Active; 'I' for Inactive)
REMARK    1  A    between atoms: C_1  and  C_2
REMARK    2  A    between atoms: C_5  and  C_6
REMARK    3  A    between atoms: C_6  and  O_7
REMARK    4  A    between atoms: C_6  and  C_8
REMARK    5  A    between atoms: C_6  and  C_14
REMARK                            x       y       z     vdW  Elec       q    Type
REMARK                         _______ _______ _______ _____ _____    ______ ____
ROOT
ATOM      1  C   UNL     1       3.583   5.750  18.973  0.00  0.00    +0.000 C 
ENDROOT
BRANCH   1   6
ATOM      2  C   UNL     1       0.143  10.530  18.710  0.00  0.00    +0.000 C 
ATOM      3  C   UNL     1       1.112   9.389  18.801  0.00  0.00    +0.000 A 
ATOM      4  C   UNL     1       1.869   8.999  17.696  0.00  0.00    +0.000 A 
ATOM      5  C   UNL     1       2.707   7.879  17.767  0.00  0.00    +0.000 A 
ATOM      6  C   UNL     1       2.786   7.090  18.931  0.00  0.00    +0.000 A 
ATOM      7  C   UNL     1       2.066   7.541  20.056  0.00  0.00    +0.000 A 
ATOM      8  C   UNL     1       1.247   8.677  19.994  0.00  0.00    +0.000 A 
ENDBRANCH   1   6
BRANCH   1   9
ATOM      9  C   UNL     1       2.785   4.501  19.419  0.00  0.00    +0.000 A 
ATOM     10  C   UNL     1       3.170   3.750  20.553  0.00  0.00    +0.000 A 
ATOM     11  C   UNL     1       2.430   2.648  20.995  0.00  0.00    +0.000 A 
ATOM     12  C   UNL     1       1.288   2.251  20.313  0.00  0.00    +0.000 A 
ATOM     13  C   UNL     1       0.903   2.938  19.168  0.00  0.00    +0.000 A 
ATOM     14  C   UNL     1       1.646   4.037  18.712  0.00  0.00    +0.000 A 
ATOM     15 CL   UNL     1       1.071   4.750  17.238  0.00  0.00    +0.000 Cl
ENDBRANCH   1   9
BRANCH   1  16
ATOM     16  C   UNL     1       4.306   5.560  17.619  0.00  0.00    +0.000 A 
ATOM     17  C   UNL     1       4.444   4.308  16.993  0.00  0.00    +0.000 A 
ATOM     18  C   UNL     1       5.065   4.203  15.750  0.00  0.00    +0.000 A 
ATOM     19  C   UNL     1       5.563   5.353  15.164  0.00  0.00    +0.000 A 
ATOM     20  N   UNL     1       5.498   6.569  15.740  0.00  0.00    +0.000 NA
ATOM     21  C   UNL     1       4.871   6.642  16.939  0.00  0.00    +0.000 A 
ENDBRANCH   1  16
BRANCH   1  22
ATOM     22  O   UNL     1       4.576   5.869  20.012  0.00  0.00    +0.000 OA
ATOM     23  H   UNL     1       5.018   6.722  19.890  0.00  0.00    +0.000 HD
ENDBRANCH   1  22
TORSDOF 4
ENDMDL
MODEL 5
REMARK VINA RESULT:      -7.4      0.589      1.024
REMARK  Name = 
REMARK  5 active torsions:
REMARK  status: ('A' for Active; 'I' for Inactive)
REMARK    1  A    between atoms: C_1  and  C_2
REMARK    2  A    between atoms: C_5  and  C_6
REMARK    3  A    between atoms: C_6  and  O_7
REMARK    4  A    between atoms: C_6  and  C_8
REMARK    5  A    between atoms: C_6  and  C_14
REMARK                            x       y       z     vdW  Elec       q    Type
REMARK                         _______ _______ _______ _____ _____    ______ ____
ROOT
ATOM      1  C   UNL     1       3.683   5.526  18.902  0.00  0.00    +0.000 C 
ENDROOT
BRANCH   1   6
ATOM      2  C   UNL     1       0.436  10.439  18.645  0.00  0.00    +0.000 C 
ATOM      3  C   UNL     1       1.359   9.260  18.738  0.00  0.00    +0.000 A 
ATOM      4  C   UNL     1       2.124   8.859  17.643  0.00  0.00    +0.000 A 
ATOM      5  C   UNL     1       2.917   7.706  17.713  0.00  0.00    +0.000 A 
ATOM      6  C   UNL     1       2.940   6.896  18.865  0.00  0.00    +0.000 A 
ATOM      7  C   UNL     1       2.212   7.357  19.982  0.00  0.00    +0.000 A 
ATOM      8  C   UNL     1       1.439   8.524  19.921  0.00  0.00    +0.000 A 
ENDBRANCH   1   6
BRANCH   1   9
ATOM      9  C   UNL     1       2.784   4.267  18.886  0.00  0.00    +0.000 A 
ATOM     10  C   UNL     1       1.421   4.343  18.522  0.00  0.00    +0.000 A 
ATOM     11  C   UNL     1       0.609   3.205  18.456  0.00  0.00    +0.000 A 
ATOM     12  C   UNL     1       1.128   1.954  18.765  0.00  0.00    +0.000 A 
ATOM     13  C   UNL     1       2.453   1.847  19.169  0.00  0.00    +0.000 A 
ATOM     14  C   UNL     1       3.270   2.984  19.249  0.00  0.00    +0.000 A 
ATOM     15 CL   UNL     1       4.880   2.692  19.826  0.00  0.00    +0.000 Cl
ENDBRANCH   1   9
BRANCH   1  16
ATOM     16  C   UNL     1       4.764   5.518  17.795  0.00  0.00    +0.000 A 
ATOM     17  C   UNL     1       6.010   6.155  17.936  0.00  0.00    +0.000 A 
ATOM     18  C   UNL     1       6.963   6.076  16.923  0.00  0.00    +0.000 A 
ATOM     19  C   UNL     1       6.643   5.383  15.771  0.00  0.00    +0.000 A 
ATOM     20  N   UNL     1       5.448   4.794  15.565  0.00  0.00    +0.000 NA
ATOM     21  C   UNL     1       4.549   4.871  16.575  0.00  0.00    +0.000 A 
ENDBRANCH   1  16
BRANCH   1  22
ATOM     22  O   UNL     1       4.338   5.423  20.183  0.00  0.00    +0.000 OA
ATOM     23  H   UNL     1       4.038   4.599  20.594  0.00  0.00    +0.000 HD
ENDBRANCH   1  22
TORSDOF 4
ENDMDL
MODEL 6
REMARK VINA RESULT:      -7.4      1.802      5.422
REMARK  Name = 
REMARK  5 active torsions:
REMARK  status: ('A' for Active; 'I' for Inactive)
REMARK    1  A    between atoms: C_1  and  C_2
REMARK    2  A    between atoms: C_5  and  C_6
REMARK    3  A    between atoms: C_6  and  O_7
REMARK    4  A    between atoms: C_6  and  C_8
REMARK    5  A    between atoms: C_6  and  C_14
REMARK                            x       y       z     vdW  Elec       q    Type
REMARK                         _______ _______ _______ _____ _____    ______ ____
ROOT
ATOM      1  C   UNL     1       3.819   5.635  18.659  0.00  0.00    +0.000 C 
ENDROOT
BRANCH   1   6
ATOM      2  C   UNL     1       7.453   4.701  14.113  0.00  0.00    +0.000 C 
ATOM      3  C   UNL     1       6.493   5.042  15.213  0.00  0.00    +0.000 A 
ATOM      4  C   UNL     1       6.866   5.890  16.256  0.00  0.00    +0.000 A 
ATOM      5  C   UNL     1       5.992   6.134  17.323  0.00  0.00    +0.000 A 
ATOM      6  C   UNL     1       4.733   5.507  17.402  0.00  0.00    +0.000 A 
ATOM      7  C   UNL     1       4.349   4.708  16.305  0.00  0.00    +0.000 A 
ATOM      8  C   UNL     1       5.213   4.484  15.225  0.00  0.00    +0.000 A 
ENDBRANCH   1   6
BRANCH   1   9
ATOM      9  C   UNL     1       2.968   6.925  18.749  0.00  0.00    +0.000 A 
ATOM     10  C   UNL     1       3.019   7.910  17.736  0.00  0.00    +0.000 A 
ATOM     11  C   UNL     1       2.218   9.056  17.780  0.00  0.00    +0.000 A 
ATOM     12  C   UNL     1       1.350   9.265  18.844  0.00  0.00    +0.000 A 
ATOM     13  C   UNL     1       1.305   8.340  19.879  0.00  0.00    +0.000 A 
ATOM     14  C   UNL     1       2.112   7.193  19.848  0.00  0.00    +0.000 A 
ATOM     15 CL   UNL     1       1.984   6.168  21.242  0.00  0.00    +0.000 Cl
ENDBRANCH   1   9
BRANCH   1  16
ATOM     16  C   UNL     1       2.982   4.341  18.798  0.00  0.00    +0.000 A 
ATOM     17  C   UNL     1       1.678   4.214  18.287  0.00  0.00    +0.000 A 
ATOM     18  C   UNL     1       0.989   3.008  18.400  0.00  0.00    +0.000 A 
ATOM     19  C   UNL     1       1.607   1.956  19.049  0.00  0.00    +0.000 A 
ATOM     20  N   UNL     1       2.836   2.037  19.596  0.00  0.00    +0.000 NA
ATOM     21  C   UNL     1       3.488   3.216  19.453  0.00  0.00    +0.000 A 
ENDBRANCH   1  16
BRANCH   1  22
ATOM     22  O   UNL     1       4.679   5.752  19.811  0.00  0.00    +0.000 OA
ATOM     23  H   UNL     1       5.514   6.136  19.508  0.00  0.00    +0.000 HD
ENDBRANCH   1  22
TORSDOF 4
ENDMDL
MODEL 7
REMARK VINA RESULT:      -7.4      0.203      1.043
REMARK  Name = 
REMARK  5 active torsions:
REMARK  status: ('A' for Active; 'I' for Inactive)
REMARK    1  A    between atoms: C_1  and  C_2
REMARK    2  A    between atoms: C_5  and  C_6
REMARK    3  A    between atoms: C_6  and  O_7
REMARK    4  A    between atoms: C_6  and  C_8
REMARK    5  A    between atoms: C_6  and  C_14
REMARK                            x       y       z     vdW  Elec       q    Type
REMARK                         _______ _______ _______ _____ _____    ______ ____
ROOT
ATOM      1  C   UNL     1       3.591   5.542  18.833  0.00  0.00    +0.000 C 
ENDROOT
BRANCH   1   6
ATOM      2  C   UNL     1       0.941  10.807  18.816  0.00  0.00    +0.000 C 
ATOM      3  C   UNL     1       1.505   9.418  18.799  0.00  0.00    +0.000 A 
ATOM      4  C   UNL     1       1.498   8.625  19.946  0.00  0.00    +0.000 A 
ATOM      5  C   UNL     1       2.104   7.362  19.943  0.00  0.00    +0.000 A 
ATOM      6  C   UNL     1       2.771   6.868  18.805  0.00  0.00    +0.000 A 
ATOM      7  C   UNL     1       2.707   7.656  17.637  0.00  0.00    +0.000 A 
ATOM      8  C   UNL     1       2.078   8.908  17.632  0.00  0.00    +0.000 A 
ENDBRANCH   1   6
BRANCH   1   9
ATOM      9  C   UNL     1       2.765   4.235  18.881  0.00  0.00    +0.000 A 
ATOM     10  C   UNL     1       1.385   4.227  18.574  0.00  0.00    +0.000 A 
ATOM     11  C   UNL     1       0.636   3.045  18.566  0.00  0.00    +0.000 A 
ATOM     12  C   UNL     1       1.237   1.833  18.877  0.00  0.00    +0.000 A 
ATOM     13  C   UNL     1       2.581   1.808  19.227  0.00  0.00    +0.000 A 
ATOM     14  C   UNL     1       3.337   2.989  19.248  0.00  0.00    +0.000 A 
ATOM     15 CL   UNL     1       4.982   2.800  19.762  0.00  0.00    +0.000 Cl
ENDBRANCH   1   9
BRANCH   1  16
ATOM     16  C   UNL     1       4.620   5.571  17.678  0.00  0.00    +0.000 A 
ATOM     17  C   UNL     1       4.491   4.788  16.517  0.00  0.00    +0.000 A 
ATOM     18  C   UNL     1       5.424   4.889  15.487  0.00  0.00    +0.000 A 
ATOM     19  C   UNL     1       6.490   5.755  15.649  0.00  0.00    +0.000 A 
ATOM     20  N   UNL     1       6.687   6.494  16.759  0.00  0.00    +0.000 NA
ATOM     21  C   UNL     1       5.752   6.388  17.734  0.00  0.00    +0.000 A 
ENDBRANCH   1  16
BRANCH   1  22
ATOM     22  O   UNL     1       4.307   5.501  20.085  0.00  0.00    +0.000 OA
ATOM     23  H   UNL     1       5.252   5.537  19.877  0.00  0.00    +0.000 HD
ENDBRANCH   1  22
TORSDOF 4
ENDMDL
MODEL 8
REMARK VINA RESULT:      -7.3      1.284      1.671
REMARK  Name = 
REMARK  5 active torsions:
REMARK  status: ('A' for Active; 'I' for Inactive)
REMARK    1  A    between atoms: C_1  and  C_2
REMARK    2  A    between atoms: C_5  and  C_6
REMARK    3  A    between atoms: C_6  and  O_7
REMARK    4  A    between atoms: C_6  and  C_8
REMARK    5  A    between atoms: C_6  and  C_14
REMARK                            x       y       z     vdW  Elec       q    Type
REMARK                         _______ _______ _______ _____ _____    ______ ____
ROOT
ATOM      1  C   UNL     1       4.425   5.212  18.594  0.00  0.00    +0.000 C 
ENDROOT
BRANCH   1   6
ATOM      2  C   UNL     1       0.780   9.842  18.418  0.00  0.00    +0.000 C 
ATOM      3  C   UNL     1       1.795   8.741  18.502  0.00  0.00    +0.000 A 
ATOM      4  C   UNL     1       2.672   8.489  17.447  0.00  0.00    +0.000 A 
ATOM      5  C   UNL     1       3.557   7.405  17.501  0.00  0.00    +0.000 A 
ATOM      6  C   UNL     1       3.566   6.514  18.592  0.00  0.00    +0.000 A 
ATOM      7  C   UNL     1       2.720   6.827  19.676  0.00  0.00    +0.000 A 
ATOM      8  C   UNL     1       1.853   7.926  19.634  0.00  0.00    +0.000 A 
ENDBRANCH   1   6
BRANCH   1   9
ATOM      9  C   UNL     1       3.669   3.903  18.926  0.00  0.00    +0.000 A 
ATOM     10  C   UNL     1       4.263   2.891  19.713  0.00  0.00    +0.000 A 
ATOM     11  C   UNL     1       3.574   1.725  20.061  0.00  0.00    +0.000 A 
ATOM     12  C   UNL     1       2.271   1.523  19.623  0.00  0.00    +0.000 A 
ATOM     13  C   UNL     1       1.670   2.476  18.811  0.00  0.00    +0.000 A 
ATOM     14  C   UNL     1       2.358   3.643  18.448  0.00  0.00    +0.000 A 
ATOM     15 CL   UNL     1       1.493   4.704  17.382  0.00  0.00    +0.000 Cl
ENDBRANCH   1   9
BRANCH   1  16
ATOM     16  C   UNL     1       5.217   5.139  17.267  0.00  0.00    +0.000 A 
ATOM     17  C   UNL     1       4.784   4.395  16.156  0.00  0.00    +0.000 A 
ATOM     18  C   UNL     1       5.515   4.403  14.970  0.00  0.00    +0.000 A 
ATOM     19  C   UNL     1       6.686   5.136  14.925  0.00  0.00    +0.000 A 
ATOM     20  N   UNL     1       7.171   5.830  15.973  0.00  0.00    +0.000 NA
ATOM     21  C   UNL     1       6.428   5.818  17.106  0.00  0.00    +0.000 A 
ENDBRANCH   1  16
BRANCH   1  22
ATOM     22  O   UNL     1       5.362   5.313  19.685  0.00  0.00    +0.000 OA
ATOM     23  H   UNL     1       6.248   5.372  19.298  0.00  0.00    +0.000 HD
ENDBRANCH   1  22
TORSDOF 4
ENDMDL
MODEL 9
REMARK VINA RESULT:      -7.3      1.388      1.958
REMARK  Name = 
REMARK  5 active torsions:
REMARK  status: ('A' for Active; 'I' for Inactive)
REMARK    1  A    between atoms: C_1  and  C_2
REMARK    2  A    between atoms: C_5  and  C_6
REMARK    3  A    between atoms: C_6  and  O_7
REMARK    4  A    between atoms: C_6  and  C_8
REMARK    5  A    between atoms: C_6  and  C_14
REMARK                            x       y       z     vdW  Elec       q    Type
REMARK                         _______ _______ _______ _____ _____    ______ ____
ROOT
ATOM      1  C   UNL     1       3.530   5.751  18.969  0.00  0.00    +0.000 C 
ENDROOT
BRANCH   1   6
ATOM      2  C   UNL     1       0.742  10.943  18.824  0.00  0.00    +0.000 C 
ATOM      3  C   UNL     1       1.343   9.569  18.837  0.00  0.00    +0.000 A 
ATOM      4  C   UNL     1       1.328   8.789  19.993  0.00  0.00    +0.000 A 
ATOM      5  C   UNL     1       1.967   7.542  20.019  0.00  0.00    +0.000 A 
ATOM      6  C   UNL     1       2.676   7.055  18.905  0.00  0.00    +0.000 A 
ATOM      7  C   UNL     1       2.621   7.828  17.726  0.00  0.00    +0.000 A 
ATOM      8  C   UNL     1       1.960   9.063  17.692  0.00  0.00    +0.000 A 
ENDBRANCH   1   6
BRANCH   1   9
ATOM      9  C   UNL     1       2.781   4.472  19.413  0.00  0.00    +0.000 A 
ATOM     10  C   UNL     1       3.201   3.730  20.540  0.00  0.00    +0.000 A 
ATOM     11  C   UNL     1       2.505   2.599  20.981  0.00  0.00    +0.000 A 
ATOM     12  C   UNL     1       1.373   2.164  20.304  0.00  0.00    +0.000 A 
ATOM     13  C   UNL     1       0.957   2.843  19.166  0.00  0.00    +0.000 A 
ATOM     14  C   UNL     1       1.655   3.971  18.710  0.00  0.00    +0.000 A 
ATOM     15 CL   UNL     1       1.045   4.670  17.245  0.00  0.00    +0.000 Cl
ENDBRANCH   1   9
BRANCH   1  16
ATOM     16  C   UNL     1       4.280   5.584  17.626  0.00  0.00    +0.000 A 
ATOM     17  C   UNL     1       4.421   4.344  16.976  0.00  0.00    +0.000 A 
ATOM     18  C   UNL     1       5.067   4.261  15.745  0.00  0.00    +0.000 A 
ATOM     19  C   UNL     1       5.587   5.417  15.195  0.00  0.00    +0.000 A 
ATOM     20  N   UNL     1       5.521   6.622  15.796  0.00  0.00    +0.000 NA
ATOM     21  C   UNL     1       4.870   6.675  16.982  0.00  0.00    +0.000 A 
ENDBRANCH   1  16
BRANCH   1  22
ATOM     22  O   UNL     1       4.502   5.922  20.020  0.00  0.00    +0.000 OA
ATOM     23  H   UNL     1       4.273   6.734  20.495  0.00  0.00    +0.000 HD
ENDBRANCH   1  22
TORSDOF 4
ENDMDL
