MODEL 1
REMARK VINA RESULT:      -9.0      0.000      0.000
REMARK  Name = 
REMARK  11 active torsions:
REMARK  status: ('A' for Active; 'I' for Inactive)
REMARK    1  A    between atoms: C_1  and  C_2
REMARK    2  A    between atoms: C_2  and  C_3
REMARK    3  A    between atoms: C_3  and  O_4
REMARK    4  A    between atoms: O_4  and  C_5
REMARK    5  A    between atoms: C_10  and  N_11
REMARK    6  A    between atoms: N_11  and  C_12
REMARK    7  A    between atoms: C_15  and  N_16
REMARK    8  A    between atoms: N_16  and  S_17
REMARK    9  A    between atoms: S_17  and  C_18
REMARK   10  A    between atoms: C_22  and  O_23
REMARK   11  A    between atoms: O_23  and  C_24
REMARK                            x       y       z     vdW  Elec       q    Type
REMARK                         _______ _______ _______ _____ _____    ______ ____
ROOT
ATOM      1  C   UNL     1       5.844   4.708  16.390  0.00  0.00    +0.000 A 
ATOM      2  C   UNL     1       6.567   5.912  16.342  0.00  0.00    +0.000 A 
ATOM      3  C   UNL     1       6.361   6.898  17.285  0.00  0.00    +0.000 A 
ATOM      4  C   UNL     1       5.390   6.705  18.249  0.00  0.00    +0.000 A 
ATOM      5  C   UNL     1       4.529   5.583  18.230  0.00  0.00    +0.000 A 
ATOM      6  C   UNL     1       3.374   5.490  19.064  0.00  0.00    +0.000 A 
ATOM      7  C   UNL     1       2.539   4.342  18.985  0.00  0.00    +0.000 A 
ATOM      8  C   UNL     1       1.311   4.179  19.680  0.00  0.00    +0.000 A 
ATOM      9  C   UNL     1       0.544   3.020  19.549  0.00  0.00    +0.000 A 
ATOM     10  C   UNL     1       0.994   1.997  18.730  0.00  0.00    +0.000 A 
ATOM     11  C   UNL     1       2.191   2.158  18.027  0.00  0.00    +0.000 A 
ATOM     12  C   UNL     1       2.957   3.313  18.117  0.00  0.00    +0.000 A 
ATOM     13  N   UNL     1       4.040   3.409  17.332  0.00  0.00    +0.000 NA
ATOM     14  C   UNL     1       4.796   4.529  17.325  0.00  0.00    +0.000 A 
ENDROOT
BRANCH   6  15
ATOM     15  N   UNL     1       2.976   6.609  19.874  0.00  0.00    +0.000 N 
ATOM     16  H   UNL     1       2.730   6.344  20.820  0.00  0.00    +0.000 HD
BRANCH  15  17
ATOM     17  C   UNL     1       2.236   7.755  19.471  0.00  0.00    +0.000 A 
ATOM     18  C   UNL     1       2.219   8.139  18.114  0.00  0.00    +0.000 A 
ATOM     19  C   UNL     1       1.549   9.276  17.671  0.00  0.00    +0.000 A 
ATOM     20  C   UNL     1       0.858  10.057  18.581  0.00  0.00    +0.000 A 
ATOM     21  C   UNL     1       0.851   9.710  19.931  0.00  0.00    +0.000 A 
ATOM     22  C   UNL     1       1.550   8.576  20.391  0.00  0.00    +0.000 A 
BRANCH  20  23
ATOM     23  N   UNL     1       0.082  11.146  18.085  0.00  0.00    +0.000 N 
ATOM     24  H   UNL     1       0.336  12.069  18.443  0.00  0.00    +0.000 HD
BRANCH  23  25
ATOM     25  S   UNL     1      -1.605  10.971  18.153  0.00  0.00    +0.000 S 
ATOM     26  C   UNL     1      -2.006  11.899  19.625  0.00  0.00    +0.000 C 
ATOM     27  O   UNL     1      -2.218  11.606  17.011  0.00  0.00    +0.000 OA
ATOM     28  O   UNL     1      -1.827   9.572  18.448  0.00  0.00    +0.000 OA
ENDBRANCH  23  25
ENDBRANCH  20  23
BRANCH  22  29
ATOM     29  O   UNL     1       1.381   8.365  21.736  0.00  0.00    +0.000 OA
ATOM     30  C   UNL     1       0.641   9.314  22.493  0.00  0.00    +0.000 C 
ENDBRANCH  22  29
ENDBRANCH  15  17
ENDBRANCH   6  15
BRANCH   1  31
ATOM     31  O   UNL     1       6.105   3.658  15.515  0.00  0.00    +0.000 OA
BRANCH  31  32
ATOM     32  C   UNL     1       6.582   4.055  14.228  0.00  0.00    +0.000 C 
BRANCH  32  34
ATOM     33  C   UNL     1       6.451   3.155  11.918  0.00  0.00    +0.000 C 
ATOM     34  C   UNL     1       5.637   3.650  13.106  0.00  0.00    +0.000 C 
ENDBRANCH  32  34
ENDBRANCH  31  32
ENDBRANCH   1  31
TORSDOF 8
ENDMDL
MODEL 2
REMARK VINA RESULT:      -8.9      1.108      1.250
REMARK  Name = 
REMARK  11 active torsions:
REMARK  status: ('A' for Active; 'I' for Inactive)
REMARK    1  A    between atoms: C_1  and  C_2
REMARK    2  A    between atoms: C_2  and  C_3
REMARK    3  A    between atoms: C_3  and  O_4
REMARK    4  A    between atoms: O_4  and  C_5
REMARK    5  A    between atoms: C_10  and  N_11
REMARK    6  A    between atoms: N_11  and  C_12
REMARK    7  A    between atoms: C_15  and  N_16
REMARK    8  A    between atoms: N_16  and  S_17
REMARK    9  A    between atoms: S_17  and  C_18
REMARK   10  A    between atoms: C_22  and  O_23
REMARK   11  A    between atoms: O_23  and  C_24
REMARK                            x       y       z     vdW  Elec       q    Type
REMARK                         _______ _______ _______ _____ _____    ______ ____
ROOT
ATOM      1  C   UNL     1       5.698   4.742  16.023  0.00  0.00    +0.000 A 
ATOM      2  C   UNL     1       6.413   5.948  15.924  0.00  0.00    +0.000 A 
ATOM      3  C   UNL     1       6.274   6.932  16.881  0.00  0.00    +0.000 A 
ATOM      4  C   UNL     1       5.376   6.736  17.912  0.00  0.00    +0.000 A 
ATOM      5  C   UNL     1       4.519   5.612  17.954  0.00  0.00    +0.000 A 
ATOM      6  C   UNL     1       3.428   5.515  18.870  0.00  0.00    +0.000 A 
ATOM      7  C   UNL     1       2.592   4.366  18.850  0.00  0.00    +0.000 A 
ATOM      8  C   UNL     1       1.418   4.199  19.633  0.00  0.00    +0.000 A 
ATOM      9  C   UNL     1       0.646   3.038  19.556  0.00  0.00    +0.000 A 
ATOM     10  C   UNL     1       1.038   2.018  18.706  0.00  0.00    +0.000 A 
ATOM     11  C   UNL     1       2.180   2.182  17.918  0.00  0.00    +0.000 A 
ATOM     12  C   UNL     1       2.948   3.339  17.953  0.00  0.00    +0.000 A 
ATOM     13  N   UNL     1       3.971   3.438  17.092  0.00  0.00    +0.000 NA
ATOM     14  C   UNL     1       4.722   4.559  17.031  0.00  0.00    +0.000 A 
ENDROOT
BRANCH   6  15
ATOM     15  N   UNL     1       3.087   6.632  19.708  0.00  0.00    +0.000 N 
ATOM     16  H   UNL     1       2.995   6.380  20.684  0.00  0.00    +0.000 HD
BRANCH  15  17
ATOM     17  C   UNL     1       2.232   7.726  19.396  0.00  0.00    +0.000 A 
ATOM     18  C   UNL     1       2.145   8.191  18.066  0.00  0.00    +0.000 A 
ATOM     19  C   UNL     1       1.360   9.286  17.712  0.00  0.00    +0.000 A 
ATOM     20  C   UNL     1       0.622   9.938  18.685  0.00  0.00    +0.000 A 
ATOM     21  C   UNL     1       0.683   9.507  20.009  0.00  0.00    +0.000 A 
ATOM     22  C   UNL     1       1.497   8.419  20.380  0.00  0.00    +0.000 A 
BRANCH  20  23
ATOM     23  N   UNL     1      -0.264  10.978  18.276  0.00  0.00    +0.000 N 
ATOM     24  H   UNL     1      -0.474  11.013  17.277  0.00  0.00    +0.000 HD
BRANCH  23  25
ATOM     25  S   UNL     1       0.097  12.543  18.823  0.00  0.00    +0.000 S 
ATOM     26  C   UNL     1      -0.801  12.604  20.365  0.00  0.00    +0.000 C 
ATOM     27  O   UNL     1       1.511  12.662  19.094  0.00  0.00    +0.000 OA
ATOM     28  O   UNL     1      -0.570  13.430  17.896  0.00  0.00    +0.000 OA
ENDBRANCH  23  25
ENDBRANCH  20  23
BRANCH  22  29
ATOM     29  O   UNL     1       1.384   8.108  21.712  0.00  0.00    +0.000 OA
ATOM     30  C   UNL     1       1.059   9.142  22.633  0.00  0.00    +0.000 C 
ENDBRANCH  22  29
ENDBRANCH  15  17
ENDBRANCH   6  15
BRANCH   1  31
ATOM     31  O   UNL     1       5.898   3.693  15.130  0.00  0.00    +0.000 OA
BRANCH  31  32
ATOM     32  C   UNL     1       6.358   4.087  13.836  0.00  0.00    +0.000 C 
BRANCH  32  34
ATOM     33  C   UNL     1       4.843   3.460  11.972  0.00  0.00    +0.000 C 
ATOM     34  C   UNL     1       6.070   3.039  12.770  0.00  0.00    +0.000 C 
ENDBRANCH  32  34
ENDBRANCH  31  32
ENDBRANCH   1  31
TORSDOF 8
ENDMDL
MODEL 3
REMARK VINA RESULT:      -8.1      3.675      9.493
REMARK  Name = 
REMARK  11 active torsions:
REMARK  status: ('A' for Active; 'I' for Inactive)
REMARK    1  A    between atoms: C_1  and  C_2
REMARK    2  A    between atoms: C_2  and  C_3
REMARK    3  A    between atoms: C_3  and  O_4
REMARK    4  A    between atoms: O_4  and  C_5
REMARK    5  A    between atoms: C_10  and  N_11
REMARK    6  A    between atoms: N_11  and  C_12
REMARK    7  A    between atoms: C_15  and  N_16
REMARK    8  A    between atoms: N_16  and  S_17
REMARK    9  A    between atoms: S_17  and  C_18
REMARK   10  A    between atoms: C_22  and  O_23
REMARK   11  A    between atoms: O_23  and  C_24
REMARK                            x       y       z     vdW  Elec       q    Type
REMARK                         _______ _______ _______ _____ _____    ______ ____
ROOT
ATOM      1  C   UNL     1      -4.081  11.451  17.889  0.00  0.00    +0.000 A 
ATOM      2  C   UNL     1      -4.043  10.573  16.792  0.00  0.00    +0.000 A 
ATOM      3  C   UNL     1      -2.910   9.833  16.519  0.00  0.00    +0.000 A 
ATOM      4  C   UNL     1      -1.792  10.009  17.310  0.00  0.00    +0.000 A 
ATOM      5  C   UNL     1      -1.737  11.001  18.316  0.00  0.00    +0.000 A 
ATOM      6  C   UNL     1      -0.520  11.359  18.973  0.00  0.00    +0.000 A 
ATOM      7  C   UNL     1      -0.528  12.378  19.964  0.00  0.00    +0.000 A 
ATOM      8  C   UNL     1       0.627  12.895  20.610  0.00  0.00    +0.000 A 
ATOM      9  C   UNL     1       0.538  13.901  21.574  0.00  0.00    +0.000 A 
ATOM     10  C   UNL     1      -0.707  14.399  21.922  0.00  0.00    +0.000 A 
ATOM     11  C   UNL     1      -1.846  13.910  21.277  0.00  0.00    +0.000 A 
ATOM     12  C   UNL     1      -1.782  12.932  20.293  0.00  0.00    +0.000 A 
ATOM     13  N   UNL     1      -2.920  12.596  19.669  0.00  0.00    +0.000 NA
ATOM     14  C   UNL     1      -2.921  11.696  18.661  0.00  0.00    +0.000 A 
ENDROOT
BRANCH   6  15
ATOM     15  N   UNL     1       0.729  10.797  18.535  0.00  0.00    +0.000 N 
ATOM     16  H   UNL     1       0.947  11.022  17.573  0.00  0.00    +0.000 HD
BRANCH  15  17
ATOM     17  C   UNL     1       1.287   9.537  18.890  0.00  0.00    +0.000 A 
ATOM     18  C   UNL     1       1.895   8.735  17.901  0.00  0.00    +0.000 A 
ATOM     19  C   UNL     1       2.416   7.475  18.183  0.00  0.00    +0.000 A 
ATOM     20  C   UNL     1       2.358   6.987  19.477  0.00  0.00    +0.000 A 
ATOM     21  C   UNL     1       1.764   7.751  20.481  0.00  0.00    +0.000 A 
ATOM     22  C   UNL     1       1.210   9.014  20.198  0.00  0.00    +0.000 A 
BRANCH  20  23
ATOM     23  N   UNL     1       3.005   5.749  19.763  0.00  0.00    +0.000 N 
ATOM     24  H   UNL     1       3.910   5.608  19.309  0.00  0.00    +0.000 HD
BRANCH  23  25
ATOM     25  S   UNL     1       2.069   4.344  19.584  0.00  0.00    +0.000 S 
ATOM     26  C   UNL     1       3.198   3.084  20.156  0.00  0.00    +0.000 C 
ATOM     27  O   UNL     1       0.926   4.391  20.465  0.00  0.00    +0.000 OA
ATOM     28  O   UNL     1       1.915   4.173  18.157  0.00  0.00    +0.000 OA
ENDBRANCH  23  25
ENDBRANCH  20  23
BRANCH  22  29
ATOM     29  O   UNL     1       0.723   9.638  21.320  0.00  0.00    +0.000 OA
ATOM     30  C   UNL     1      -0.340   9.025  22.038  0.00  0.00    +0.000 C 
ENDBRANCH  22  29
ENDBRANCH  15  17
ENDBRANCH   6  15
BRANCH   1  31
ATOM     31  O   UNL     1      -5.241  12.129  18.247  0.00  0.00    +0.000 OA
BRANCH  31  32
ATOM     32  C   UNL     1      -6.440  11.358  18.153  0.00  0.00    +0.000 C 
BRANCH  32  34
ATOM     33  C   UNL     1      -7.032   9.308  19.423  0.00  0.00    +0.000 C 
ATOM     34  C   UNL     1      -6.897  10.823  19.503  0.00  0.00    +0.000 C 
ENDBRANCH  32  34
ENDBRANCH  31  32
ENDBRANCH   1  31
TORSDOF 8
ENDMDL
MODEL 4
REMARK VINA RESULT:      -8.1      0.795      1.025
REMARK  Name = 
REMARK  11 active torsions:
REMARK  status: ('A' for Active; 'I' for Inactive)
REMARK    1  A    between atoms: C_1  and  C_2
REMARK    2  A    between atoms: C_2  and  C_3
REMARK    3  A    between atoms: C_3  and  O_4
REMARK    4  A    between atoms: O_4  and  C_5
REMARK    5  A    between atoms: C_10  and  N_11
REMARK    6  A    between atoms: N_11  and  C_12
REMARK    7  A    between atoms: C_15  and  N_16
REMARK    8  A    between atoms: N_16  and  S_17
REMARK    9  A    between atoms: S_17  and  C_18
REMARK   10  A    between atoms: C_22  and  O_23
REMARK   11  A    between atoms: O_23  and  C_24
REMARK                            x       y       z     vdW  Elec       q    Type
REMARK                         _______ _______ _______ _____ _____    ______ ____
ROOT
ATOM      1  C   UNL     1       5.811   4.806  16.213  0.00  0.00    +0.000 A 
ATOM      2  C   UNL     1       6.513   6.023  16.164  0.00  0.00    +0.000 A 
ATOM      3  C   UNL     1       6.316   6.991  17.127  0.00  0.00    +0.000 A 
ATOM      4  C   UNL     1       5.374   6.769  18.113  0.00  0.00    +0.000 A 
ATOM      5  C   UNL     1       4.531   5.633  18.099  0.00  0.00    +0.000 A 
ATOM      6  C   UNL     1       3.400   5.510  18.961  0.00  0.00    +0.000 A 
ATOM      7  C   UNL     1       2.581   4.350  18.886  0.00  0.00    +0.000 A 
ATOM      8  C   UNL     1       1.375   4.156  19.611  0.00  0.00    +0.000 A 
ATOM      9  C   UNL     1       0.622   2.987  19.482  0.00  0.00    +0.000 A 
ATOM     10  C   UNL     1       1.068   1.984  18.637  0.00  0.00    +0.000 A 
ATOM     11  C   UNL     1       2.243   2.174  17.906  0.00  0.00    +0.000 A 
ATOM     12  C   UNL     1       2.993   3.340  17.993  0.00  0.00    +0.000 A 
ATOM     13  N   UNL     1       4.053   3.465  17.182  0.00  0.00    +0.000 NA
ATOM     14  C   UNL     1       4.791   4.597  17.171  0.00  0.00    +0.000 A 
ENDROOT
BRANCH   6  15
ATOM     15  N   UNL     1       3.005   6.610  19.798  0.00  0.00    +0.000 N 
ATOM     16  H   UNL     1       2.726   6.319  20.726  0.00  0.00    +0.000 HD
BRANCH  15  17
ATOM     17  C   UNL     1       2.303   7.786  19.414  0.00  0.00    +0.000 A 
ATOM     18  C   UNL     1       2.460   8.304  18.111  0.00  0.00    +0.000 A 
ATOM     19  C   UNL     1       1.833   9.477  17.697  0.00  0.00    +0.000 A 
ATOM     20  C   UNL     1       1.012  10.158  18.578  0.00  0.00    +0.000 A 
ATOM     21  C   UNL     1       0.833   9.677  19.874  0.00  0.00    +0.000 A 
ATOM     22  C   UNL     1       1.486   8.507  20.309  0.00  0.00    +0.000 A 
BRANCH  20  23
ATOM     23  N   UNL     1       0.288  11.287  18.093  0.00  0.00    +0.000 N 
ATOM     24  H   UNL     1       0.622  12.198  18.415  0.00  0.00    +0.000 HD
BRANCH  23  25
ATOM     25  S   UNL     1      -1.401  11.230  18.245  0.00  0.00    +0.000 S 
ATOM     26  C   UNL     1      -1.787   9.700  17.409  0.00  0.00    +0.000 C 
ATOM     27  O   UNL     1      -1.773  11.116  19.635  0.00  0.00    +0.000 OA
ATOM     28  O   UNL     1      -1.891  12.311  17.419  0.00  0.00    +0.000 OA
ENDBRANCH  23  25
ENDBRANCH  20  23
BRANCH  22  29
ATOM     29  O   UNL     1       1.144   8.162  21.593  0.00  0.00    +0.000 OA
ATOM     30  C   UNL     1       1.495   9.037  22.656  0.00  0.00    +0.000 C 
ENDBRANCH  22  29
ENDBRANCH  15  17
ENDBRANCH   6  15
BRANCH   1  31
ATOM     31  O   UNL     1       6.066   3.773  15.316  0.00  0.00    +0.000 OA
BRANCH  31  32
ATOM     32  C   UNL     1       5.510   3.960  14.013  0.00  0.00    +0.000 C 
BRANCH  32  34
ATOM     33  C   UNL     1       7.437   4.773  12.674  0.00  0.00    +0.000 C 
ATOM     34  C   UNL     1       6.490   3.602  12.904  0.00  0.00    +0.000 C 
ENDBRANCH  32  34
ENDBRANCH  31  32
ENDBRANCH   1  31
TORSDOF 8
ENDMDL
MODEL 5
REMARK VINA RESULT:      -7.9      4.029      6.931
REMARK  Name = 
REMARK  11 active torsions:
REMARK  status: ('A' for Active; 'I' for Inactive)
REMARK    1  A    between atoms: C_1  and  C_2
REMARK    2  A    between atoms: C_2  and  C_3
REMARK    3  A    between atoms: C_3  and  O_4
REMARK    4  A    between atoms: O_4  and  C_5
REMARK    5  A    between atoms: C_10  and  N_11
REMARK    6  A    between atoms: N_11  and  C_12
REMARK    7  A    between atoms: C_15  and  N_16
REMARK    8  A    between atoms: N_16  and  S_17
REMARK    9  A    between atoms: S_17  and  C_18
REMARK   10  A    between atoms: C_22  and  O_23
REMARK   11  A    between atoms: O_23  and  C_24
REMARK                            x       y       z     vdW  Elec       q    Type
REMARK                         _______ _______ _______ _____ _____    ______ ____
ROOT
ATOM      1  C   UNL     1       2.165   6.894  19.713  0.00  0.00    +0.000 A 
ATOM      2  C   UNL     1       2.692   6.746  18.419  0.00  0.00    +0.000 A 
ATOM      3  C   UNL     1       2.769   7.823  17.560  0.00  0.00    +0.000 A 
ATOM      4  C   UNL     1       2.268   9.042  17.974  0.00  0.00    +0.000 A 
ATOM      5  C   UNL     1       1.581   9.191  19.201  0.00  0.00    +0.000 A 
ATOM      6  C   UNL     1       0.851  10.373  19.531  0.00  0.00    +0.000 A 
ATOM      7  C   UNL     1       0.166  10.453  20.774  0.00  0.00    +0.000 A 
ATOM      8  C   UNL     1      -0.677  11.525  21.172  0.00  0.00    +0.000 A 
ATOM      9  C   UNL     1      -1.320  11.531  22.411  0.00  0.00    +0.000 A 
ATOM     10  C   UNL     1      -1.121  10.472  23.283  0.00  0.00    +0.000 A 
ATOM     11  C   UNL     1      -0.309   9.405  22.891  0.00  0.00    +0.000 A 
ATOM     12  C   UNL     1       0.316   9.361  21.652  0.00  0.00    +0.000 A 
ATOM     13  N   UNL     1       0.998   8.251  21.334  0.00  0.00    +0.000 NA
ATOM     14  C   UNL     1       1.580   8.116  20.122  0.00  0.00    +0.000 A 
ENDROOT
BRANCH   6  15
ATOM     15  N   UNL     1       0.688  11.417  18.556  0.00  0.00    +0.000 N 
ATOM     16  H   UNL     1       0.527  11.063  17.622  0.00  0.00    +0.000 HD
BRANCH  15  17
ATOM     17  C   UNL     1       1.360  12.670  18.503  0.00  0.00    +0.000 A 
ATOM     18  C   UNL     1       2.731  12.719  18.172  0.00  0.00    +0.000 A 
ATOM     19  C   UNL     1       3.448  13.912  18.151  0.00  0.00    +0.000 A 
ATOM     20  C   UNL     1       2.802  15.101  18.446  0.00  0.00    +0.000 A 
ATOM     21  C   UNL     1       1.448  15.092  18.778  0.00  0.00    +0.000 A 
ATOM     22  C   UNL     1       0.723  13.886  18.829  0.00  0.00    +0.000 A 
BRANCH  20  23
ATOM     23  N   UNL     1       3.529  16.319  18.299  0.00  0.00    +0.000 N 
ATOM     24  H   UNL     1       4.093  16.398  17.451  0.00  0.00    +0.000 HD
BRANCH  23  25
ATOM     25  S   UNL     1       4.459  16.814  19.631  0.00  0.00    +0.000 S 
ATOM     26  C   UNL     1       3.303  17.850  20.513  0.00  0.00    +0.000 C 
ATOM     27  O   UNL     1       4.798  15.677  20.452  0.00  0.00    +0.000 OA
ATOM     28  O   UNL     1       5.480  17.676  19.078  0.00  0.00    +0.000 OA
ENDBRANCH  23  25
ENDBRANCH  20  23
BRANCH  22  29
ATOM     29  O   UNL     1      -0.604  14.083  19.118  0.00  0.00    +0.000 OA
ATOM     30  C   UNL     1      -0.959  15.072  20.076  0.00  0.00    +0.000 C 
ENDBRANCH  22  29
ENDBRANCH  15  17
ENDBRANCH   6  15
BRANCH   1  31
ATOM     31  O   UNL     1       2.170   5.850  20.634  0.00  0.00    +0.000 OA
BRANCH  31  32
ATOM     32  C   UNL     1       2.316   4.549  20.063  0.00  0.00    +0.000 C 
BRANCH  32  34
ATOM     33  C   UNL     1       0.907   2.920  18.827  0.00  0.00    +0.000 C 
ATOM     34  C   UNL     1       1.022   3.748  20.101  0.00  0.00    +0.000 C 
ENDBRANCH  32  34
ENDBRANCH  31  32
ENDBRANCH   1  31
TORSDOF 8
ENDMDL
MODEL 6
REMARK VINA RESULT:      -7.9      4.111      7.122
REMARK  Name = 
REMARK  11 active torsions:
REMARK  status: ('A' for Active; 'I' for Inactive)
REMARK    1  A    between atoms: C_1  and  C_2
REMARK    2  A    between atoms: C_2  and  C_3
REMARK    3  A    between atoms: C_3  and  O_4
REMARK    4  A    between atoms: O_4  and  C_5
REMARK    5  A    between atoms: C_10  and  N_11
REMARK    6  A    between atoms: N_11  and  C_12
REMARK    7  A    between atoms: C_15  and  N_16
REMARK    8  A    between atoms: N_16  and  S_17
REMARK    9  A    between atoms: S_17  and  C_18
REMARK   10  A    between atoms: C_22  and  O_23
REMARK   11  A    between atoms: O_23  and  C_24
REMARK                            x       y       z     vdW  Elec       q    Type
REMARK                         _______ _______ _______ _____ _____    ______ ____
ROOT
ATOM      1  C   UNL     1       2.105   7.026  19.623  0.00  0.00    +0.000 A 
ATOM      2  C   UNL     1       2.646   6.899  18.332  0.00  0.00    +0.000 A 
ATOM      3  C   UNL     1       2.745   7.992  17.497  0.00  0.00    +0.000 A 
ATOM      4  C   UNL     1       2.254   9.209  17.930  0.00  0.00    +0.000 A 
ATOM      5  C   UNL     1       1.554   9.340  19.152  0.00  0.00    +0.000 A 
ATOM      6  C   UNL     1       0.833  10.524  19.497  0.00  0.00    +0.000 A 
ATOM      7  C   UNL     1       0.135  10.586  20.734  0.00  0.00    +0.000 A 
ATOM      8  C   UNL     1      -0.700  11.660  21.144  0.00  0.00    +0.000 A 
ATOM      9  C   UNL     1      -1.357  11.648  22.376  0.00  0.00    +0.000 A 
ATOM     10  C   UNL     1      -1.181  10.569  23.228  0.00  0.00    +0.000 A 
ATOM     11  C   UNL     1      -0.377   9.501  22.824  0.00  0.00    +0.000 A 
ATOM     12  C   UNL     1       0.263   9.475  21.591  0.00  0.00    +0.000 A 
ATOM     13  N   UNL     1       0.936   8.364  21.258  0.00  0.00    +0.000 NA
ATOM     14  C   UNL     1       1.530   8.247  20.050  0.00  0.00    +0.000 A 
ENDROOT
BRANCH   6  15
ATOM     15  N   UNL     1       0.694  11.589  18.543  0.00  0.00    +0.000 N 
ATOM     16  H   UNL     1       0.510  11.257  17.605  0.00  0.00    +0.000 HD
BRANCH  15  17
ATOM     17  C   UNL     1       1.407  12.820  18.503  0.00  0.00    +0.000 A 
ATOM     18  C   UNL     1       2.789  12.822  18.221  0.00  0.00    +0.000 A 
ATOM     19  C   UNL     1       3.545  13.992  18.214  0.00  0.00    +0.000 A 
ATOM     20  C   UNL     1       2.928  15.203  18.475  0.00  0.00    +0.000 A 
ATOM     21  C   UNL     1       1.563  15.241  18.758  0.00  0.00    +0.000 A 
ATOM     22  C   UNL     1       0.798  14.059  18.795  0.00  0.00    +0.000 A 
BRANCH  20  23
ATOM     23  N   UNL     1       3.697  16.396  18.343  0.00  0.00    +0.000 N 
ATOM     24  H   UNL     1       4.168  16.522  17.445  0.00  0.00    +0.000 HD
BRANCH  23  25
ATOM     25  S   UNL     1       4.792  16.736  19.595  0.00  0.00    +0.000 S 
ATOM     26  C   UNL     1       6.298  16.014  18.964  0.00  0.00    +0.000 C 
ATOM     27  O   UNL     1       4.971  18.163  19.727  0.00  0.00    +0.000 OA
ATOM     28  O   UNL     1       4.355  15.924  20.709  0.00  0.00    +0.000 OA
ENDBRANCH  23  25
ENDBRANCH  20  23
BRANCH  22  29
ATOM     29  O   UNL     1      -0.531  14.301  19.034  0.00  0.00    +0.000 OA
ATOM     30  C   UNL     1      -0.888  15.332  19.945  0.00  0.00    +0.000 C 
ENDBRANCH  22  29
ENDBRANCH  15  17
ENDBRANCH   6  15
BRANCH   1  31
ATOM     31  O   UNL     1       2.088   5.964  20.522  0.00  0.00    +0.000 OA
BRANCH  31  32
ATOM     32  C   UNL     1       2.269   4.676  19.931  0.00  0.00    +0.000 C 
BRANCH  32  34
ATOM     33  C   UNL     1       1.385   2.923  21.450  0.00  0.00    +0.000 C 
ATOM     34  C   UNL     1       1.097   3.742  20.199  0.00  0.00    +0.000 C 
ENDBRANCH  32  34
ENDBRANCH  31  32
ENDBRANCH   1  31
TORSDOF 8
ENDMDL
MODEL 7
REMARK VINA RESULT:      -7.7      3.622      9.655
REMARK  Name = 
REMARK  11 active torsions:
REMARK  status: ('A' for Active; 'I' for Inactive)
REMARK    1  A    between atoms: C_1  and  C_2
REMARK    2  A    between atoms: C_2  and  C_3
REMARK    3  A    between atoms: C_3  and  O_4
REMARK    4  A    between atoms: O_4  and  C_5
REMARK    5  A    between atoms: C_10  and  N_11
REMARK    6  A    between atoms: N_11  and  C_12
REMARK    7  A    between atoms: C_15  and  N_16
REMARK    8  A    between atoms: N_16  and  S_17
REMARK    9  A    between atoms: S_17  and  C_18
REMARK   10  A    between atoms: C_22  and  O_23
REMARK   11  A    between atoms: O_23  and  C_24
REMARK                            x       y       z     vdW  Elec       q    Type
REMARK                         _______ _______ _______ _____ _____    ______ ____
ROOT
ATOM      1  C   UNL     1      -3.853  11.733  18.617  0.00  0.00    +0.000 A 
ATOM      2  C   UNL     1      -4.206  10.750  17.676  0.00  0.00    +0.000 A 
ATOM      3  C   UNL     1      -3.278   9.829  17.235  0.00  0.00    +0.000 A 
ATOM      4  C   UNL     1      -1.978   9.922  17.691  0.00  0.00    +0.000 A 
ATOM      5  C   UNL     1      -1.546  10.995  18.506  0.00  0.00    +0.000 A 
ATOM      6  C   UNL     1      -0.167  11.238  18.783  0.00  0.00    +0.000 A 
ATOM      7  C   UNL     1       0.203  12.345  19.595  0.00  0.00    +0.000 A 
ATOM      8  C   UNL     1       1.539  12.754  19.856  0.00  0.00    +0.000 A 
ATOM      9  C   UNL     1       1.823  13.857  20.663  0.00  0.00    +0.000 A 
ATOM     10  C   UNL     1       0.779  14.564  21.237  0.00  0.00    +0.000 A 
ATOM     11  C   UNL     1      -0.537  14.180  20.970  0.00  0.00    +0.000 A 
ATOM     12  C   UNL     1      -0.848  13.106  20.146  0.00  0.00    +0.000 A 
ATOM     13  N   UNL     1      -2.140  12.876  19.876  0.00  0.00    +0.000 NA
ATOM     14  C   UNL     1      -2.510  11.886  19.034  0.00  0.00    +0.000 A 
ENDROOT
BRANCH   6  15
ATOM     15  N   UNL     1       0.850  10.459  18.131  0.00  0.00    +0.000 N 
ATOM     16  H   UNL     1       0.732  10.418  17.127  0.00  0.00    +0.000 HD
BRANCH  15  17
ATOM     17  C   UNL     1       1.474   9.272  18.606  0.00  0.00    +0.000 A 
ATOM     18  C   UNL     1       2.270   8.499  17.734  0.00  0.00    +0.000 A 
ATOM     19  C   UNL     1       2.867   7.306  18.133  0.00  0.00    +0.000 A 
ATOM     20  C   UNL     1       2.695   6.859  19.431  0.00  0.00    +0.000 A 
ATOM     21  C   UNL     1       1.915   7.595  20.322  0.00  0.00    +0.000 A 
ATOM     22  C   UNL     1       1.285   8.789  19.918  0.00  0.00    +0.000 A 
BRANCH  20  23
ATOM     23  N   UNL     1       3.413   5.700  19.848  0.00  0.00    +0.000 N 
ATOM     24  H   UNL     1       4.365   5.615  19.485  0.00  0.00    +0.000 HD
BRANCH  23  25
ATOM     25  S   UNL     1       2.618   4.210  19.674  0.00  0.00    +0.000 S 
ATOM     26  C   UNL     1       2.097   3.880  21.349  0.00  0.00    +0.000 C 
ATOM     27  O   UNL     1       1.452   4.363  18.836  0.00  0.00    +0.000 OA
ATOM     28  O   UNL     1       3.661   3.262  19.349  0.00  0.00    +0.000 OA
ENDBRANCH  23  25
ENDBRANCH  20  23
BRANCH  22  29
ATOM     29  O   UNL     1       0.609   9.399  20.944  0.00  0.00    +0.000 OA
ATOM     30  C   UNL     1      -0.353   8.650  21.674  0.00  0.00    +0.000 C 
ENDBRANCH  22  29
ENDBRANCH  15  17
ENDBRANCH   6  15
BRANCH   1  31
ATOM     31  O   UNL     1      -4.793  12.607  19.155  0.00  0.00    +0.000 OA
BRANCH  31  32
ATOM     32  C   UNL     1      -5.603  12.050  20.191  0.00  0.00    +0.000 C 
BRANCH  32  34
ATOM     33  C   UNL     1      -4.746  12.864  22.375  0.00  0.00    +0.000 C 
ATOM     34  C   UNL     1      -5.844  13.029  21.332  0.00  0.00    +0.000 C 
ENDBRANCH  32  34
ENDBRANCH  31  32
ENDBRANCH   1  31
TORSDOF 8
ENDMDL
MODEL 8
REMARK VINA RESULT:      -7.7      1.656      2.275
REMARK  Name = 
REMARK  11 active torsions:
REMARK  status: ('A' for Active; 'I' for Inactive)
REMARK    1  A    between atoms: C_1  and  C_2
REMARK    2  A    between atoms: C_2  and  C_3
REMARK    3  A    between atoms: C_3  and  O_4
REMARK    4  A    between atoms: O_4  and  C_5
REMARK    5  A    between atoms: C_10  and  N_11
REMARK    6  A    between atoms: N_11  and  C_12
REMARK    7  A    between atoms: C_15  and  N_16
REMARK    8  A    between atoms: N_16  and  S_17
REMARK    9  A    between atoms: S_17  and  C_18
REMARK   10  A    between atoms: C_22  and  O_23
REMARK   11  A    between atoms: O_23  and  C_24
REMARK                            x       y       z     vdW  Elec       q    Type
REMARK                         _______ _______ _______ _____ _____    ______ ____
ROOT
ATOM      1  C   UNL     1       5.065   5.024  15.883  0.00  0.00    +0.000 A 
ATOM      2  C   UNL     1       5.822   6.205  15.795  0.00  0.00    +0.000 A 
ATOM      3  C   UNL     1       5.884   7.084  16.857  0.00  0.00    +0.000 A 
ATOM      4  C   UNL     1       5.144   6.812  17.992  0.00  0.00    +0.000 A 
ATOM      5  C   UNL     1       4.243   5.724  18.054  0.00  0.00    +0.000 A 
ATOM      6  C   UNL     1       3.300   5.571  19.115  0.00  0.00    +0.000 A 
ATOM      7  C   UNL     1       2.408   4.464  19.110  0.00  0.00    +0.000 A 
ATOM      8  C   UNL     1       1.359   4.258  20.046  0.00  0.00    +0.000 A 
ATOM      9  C   UNL     1       0.521   3.144  19.974  0.00  0.00    +0.000 A 
ATOM     10  C   UNL     1       0.723   2.207  18.973  0.00  0.00    +0.000 A 
ATOM     11  C   UNL     1       1.739   2.412  18.037  0.00  0.00    +0.000 A 
ATOM     12  C   UNL     1       2.567   3.527  18.069  0.00  0.00    +0.000 A 
ATOM     13  N   UNL     1       3.450   3.680  17.072  0.00  0.00    +0.000 NA
ATOM     14  C   UNL     1       4.244   4.771  17.008  0.00  0.00    +0.000 A 
ENDROOT
BRANCH   6  15
ATOM     15  N   UNL     1       3.152   6.603  20.105  0.00  0.00    +0.000 N 
ATOM     16  H   UNL     1       3.476   6.320  21.021  0.00  0.00    +0.000 HD
BRANCH  15  17
ATOM     17  C   UNL     1       2.099   7.552  20.222  0.00  0.00    +0.000 A 
ATOM     18  C   UNL     1       1.236   7.510  21.338  0.00  0.00    +0.000 A 
ATOM     19  C   UNL     1       0.162   8.384  21.480  0.00  0.00    +0.000 A 
ATOM     20  C   UNL     1      -0.069   9.344  20.509  0.00  0.00    +0.000 A 
ATOM     21  C   UNL     1       0.762   9.416  19.392  0.00  0.00    +0.000 A 
ATOM     22  C   UNL     1       1.833   8.517  19.227  0.00  0.00    +0.000 A 
BRANCH  20  23
ATOM     23  N   UNL     1      -1.100  10.302  20.738  0.00  0.00    +0.000 N 
ATOM     24  H   UNL     1      -1.770  10.421  19.975  0.00  0.00    +0.000 HD
BRANCH  23  25
ATOM     25  S   UNL     1      -0.608  11.831  21.287  0.00  0.00    +0.000 S 
ATOM     26  C   UNL     1      -1.655  12.056  22.716  0.00  0.00    +0.000 C 
ATOM     27  O   UNL     1       0.771  11.787  21.714  0.00  0.00    +0.000 OA
ATOM     28  O   UNL     1      -1.054  12.759  20.271  0.00  0.00    +0.000 OA
ENDBRANCH  23  25
ENDBRANCH  20  23
BRANCH  22  29
ATOM     29  O   UNL     1       2.569   8.778  18.099  0.00  0.00    +0.000 OA
ATOM     30  C   UNL     1       2.477  10.065  17.502  0.00  0.00    +0.000 C 
ENDBRANCH  22  29
ENDBRANCH  15  17
ENDBRANCH   6  15
BRANCH   1  31
ATOM     31  O   UNL     1       5.068   4.072  14.868  0.00  0.00    +0.000 OA
BRANCH  31  32
ATOM     32  C   UNL     1       6.351   3.811  14.295  0.00  0.00    +0.000 C 
BRANCH  32  34
ATOM     33  C   UNL     1       4.851   3.456  12.349  0.00  0.00    +0.000 C 
ATOM     34  C   UNL     1       6.295   3.673  12.780  0.00  0.00    +0.000 C 
ENDBRANCH  32  34
ENDBRANCH  31  32
ENDBRANCH   1  31
TORSDOF 8
ENDMDL
MODEL 9
REMARK VINA RESULT:      -7.5      3.253      9.585
REMARK  Name = 
REMARK  11 active torsions:
REMARK  status: ('A' for Active; 'I' for Inactive)
REMARK    1  A    between atoms: C_1  and  C_2
REMARK    2  A    between atoms: C_2  and  C_3
REMARK    3  A    between atoms: C_3  and  O_4
REMARK    4  A    between atoms: O_4  and  C_5
REMARK    5  A    between atoms: C_10  and  N_11
REMARK    6  A    between atoms: N_11  and  C_12
REMARK    7  A    between atoms: C_15  and  N_16
REMARK    8  A    between atoms: N_16  and  S_17
REMARK    9  A    between atoms: S_17  and  C_18
REMARK   10  A    between atoms: C_22  and  O_23
REMARK   11  A    between atoms: O_23  and  C_24
REMARK                            x       y       z     vdW  Elec       q    Type
REMARK                         _______ _______ _______ _____ _____    ______ ____
ROOT
ATOM      1  C   UNL     1      -3.998  11.310  17.776  0.00  0.00    +0.000 A 
ATOM      2  C   UNL     1      -3.891  10.517  16.620  0.00  0.00    +0.000 A 
ATOM      3  C   UNL     1      -2.717   9.853  16.326  0.00  0.00    +0.000 A 
ATOM      4  C   UNL     1      -1.628  10.024  17.158  0.00  0.00    +0.000 A 
ATOM      5  C   UNL     1      -1.645  10.943  18.234  0.00  0.00    +0.000 A 
ATOM      6  C   UNL     1      -0.464  11.309  18.947  0.00  0.00    +0.000 A 
ATOM      7  C   UNL     1      -0.545  12.252  20.007  0.00  0.00    +0.000 A 
ATOM      8  C   UNL     1       0.567  12.775  20.719  0.00  0.00    +0.000 A 
ATOM      9  C   UNL     1       0.406  13.703  21.750  0.00  0.00    +0.000 A 
ATOM     10  C   UNL     1      -0.870  14.115  22.098  0.00  0.00    +0.000 A 
ATOM     11  C   UNL     1      -1.967  13.621  21.390  0.00  0.00    +0.000 A 
ATOM     12  C   UNL     1      -1.832  12.721  20.341  0.00  0.00    +0.000 A 
ATOM     13  N   UNL     1      -2.937  12.377  19.664  0.00  0.00    +0.000 NA
ATOM     14  C   UNL     1      -2.870  11.554  18.594  0.00  0.00    +0.000 A 
ENDROOT
BRANCH   6  15
ATOM     15  N   UNL     1       0.821  10.840  18.505  0.00  0.00    +0.000 N 
ATOM     16  H   UNL     1       1.059  11.159  17.574  0.00  0.00    +0.000 HD
BRANCH  15  17
ATOM     17  C   UNL     1       1.423   9.577  18.765  0.00  0.00    +0.000 A 
ATOM     18  C   UNL     1       2.139   8.916  17.745  0.00  0.00    +0.000 A 
ATOM     19  C   UNL     1       2.708   7.659  17.931  0.00  0.00    +0.000 A 
ATOM     20  C   UNL     1       2.590   7.033  19.159  0.00  0.00    +0.000 A 
ATOM     21  C   UNL     1       1.891   7.655  20.193  0.00  0.00    +0.000 A 
ATOM     22  C   UNL     1       1.288   8.914  20.003  0.00  0.00    +0.000 A 
BRANCH  20  23
ATOM     23  N   UNL     1       3.284   5.803  19.361  0.00  0.00    +0.000 N 
ATOM     24  H   UNL     1       4.299   5.844  19.246  0.00  0.00    +0.000 HD
BRANCH  23  25
ATOM     25  S   UNL     1       2.686   4.449  18.531  0.00  0.00    +0.000 S 
ATOM     26  C   UNL     1       3.998   4.132  17.362  0.00  0.00    +0.000 C 
ATOM     27  O   UNL     1       2.571   3.324  19.429  0.00  0.00    +0.000 OA
ATOM     28  O   UNL     1       1.548   4.936  17.783  0.00  0.00    +0.000 OA
ENDBRANCH  23  25
ENDBRANCH  20  23
BRANCH  22  29
ATOM     29  O   UNL     1       0.694   9.389  21.145  0.00  0.00    +0.000 OA
ATOM     30  C   UNL     1      -0.452   8.718  21.654  0.00  0.00    +0.000 C 
ENDBRANCH  22  29
ENDBRANCH  15  17
ENDBRANCH   6  15
BRANCH   1  31
ATOM     31  O   UNL     1      -5.199  11.906  18.150  0.00  0.00    +0.000 OA
BRANCH  31  32
ATOM     32  C   UNL     1      -6.053  12.266  17.063  0.00  0.00    +0.000 C 
BRANCH  32  34
ATOM     33  C   UNL     1      -7.743  13.329  18.539  0.00  0.00    +0.000 C 
ATOM     34  C   UNL     1      -6.835  13.543  17.335  0.00  0.00    +0.000 C 
ENDBRANCH  32  34
ENDBRANCH  31  32
ENDBRANCH   1  31
TORSDOF 8
ENDMDL
