MODEL 1
REMARK VINA RESULT:      -6.9      0.000      0.000
REMARK  Name = 
REMARK  5 active torsions:
REMARK  status: ('A' for Active; 'I' for Inactive)
REMARK    1  A    between atoms: C_1  and  C_2
REMARK    2  A    between atoms: C_14  and  C_15
REMARK    3  A    between atoms: C_15  and  C_16
REMARK    4  A    between atoms: C_15  and  C_17
REMARK    5  A    between atoms: C_15  and  C_18
REMARK                            x       y       z     vdW  Elec       q    Type
REMARK                         _______ _______ _______ _____ _____    ______ ____
ROOT
ATOM      1  C   UNL     1       2.167   9.725  17.691  0.00  0.00    +0.000 C 
ATOM      2  C   UNL     1       1.884   8.818  18.877  0.00  0.00    +0.000 A 
ATOM      3  C   UNL     1       2.489   7.533  18.995  0.00  0.00    +0.000 A 
ATOM      4  C   UNL     1       2.180   6.733  20.118  0.00  0.00    +0.000 A 
ATOM      5  N   UNL     1       1.342   7.198  21.077  0.00  0.00    +0.000 NA
ATOM      6  C   UNL     1       0.742   8.410  20.997  0.00  0.00    +0.000 A 
ATOM      7  C   UNL     1      -0.139   8.805  22.009  0.00  0.00    +0.000 A 
ATOM      8  C   UNL     1      -0.782  10.042  21.938  0.00  0.00    +0.000 A 
ATOM      9  C   UNL     1      -0.542  10.891  20.858  0.00  0.00    +0.000 A 
ATOM     10  C   UNL     1       0.340  10.509  19.844  0.00  0.00    +0.000 A 
ATOM     11  C   UNL     1       0.995   9.257  19.894  0.00  0.00    +0.000 A 
ATOM     12  C   UNL     1       2.734   5.346  20.287  0.00  0.00    +0.000 C 
ATOM     13  C   UNL     1       3.240   4.743  18.974  0.00  0.00    +0.000 C 
ATOM     14  C   UNL     1       4.207   5.716  18.279  0.00  0.00    +0.000 C 
ATOM     15  C   UNL     1       3.434   7.017  17.924  0.00  0.00    +0.000 C 
ENDROOT
BRANCH  14  16
ATOM     16  C   UNL     1       4.968   5.096  17.035  0.00  0.00    +0.000 C 
ATOM     17  C   UNL     1       5.099   6.099  15.861  0.00  0.00    +0.000 C 
ATOM     18  C   UNL     1       6.388   4.638  17.444  0.00  0.00    +0.000 C 
ATOM     19  C   UNL     1       4.217   3.846  16.518  0.00  0.00    +0.000 C 
ENDBRANCH  14  16
TORSDOF 1
ENDMDL
MODEL 2
REMARK VINA RESULT:      -6.9      0.121      1.008
REMARK  Name = 
REMARK  5 active torsions:
REMARK  status: ('A' for Active; 'I' for Inactive)
REMARK    1  A    between atoms: C_1  and  C_2
REMARK    2  A    between atoms: C_14  and  C_15
REMARK    3  A    between atoms: C_15  and  C_16
REMARK    4  A    between atoms: C_15  and  C_17
REMARK    5  A    between atoms: C_15  and  C_18
REMARK                            x       y       z     vdW  Elec       q    Type
REMARK                         _______ _______ _______ _____ _____    ______ ____
ROOT
ATOM      1  C   UNL     1       2.146   9.796  17.719  0.00  0.00    +0.000 C 
ATOM      2  C   UNL     1       1.846   8.902  18.911  0.00  0.00    +0.000 A 
ATOM      3  C   UNL     1       2.435   7.610  19.040  0.00  0.00    +0.000 A 
ATOM      4  C   UNL     1       2.111   6.823  20.168  0.00  0.00    +0.000 A 
ATOM      5  N   UNL     1       1.275   7.304  21.120  0.00  0.00    +0.000 NA
ATOM      6  C   UNL     1       0.691   8.524  21.029  0.00  0.00    +0.000 A 
ATOM      7  C   UNL     1      -0.189   8.936  22.034  0.00  0.00    +0.000 A 
ATOM      8  C   UNL     1      -0.816  10.181  21.951  0.00  0.00    +0.000 A 
ATOM      9  C   UNL     1      -0.562  11.019  20.866  0.00  0.00    +0.000 A 
ATOM     10  C   UNL     1       0.320  10.619  19.859  0.00  0.00    +0.000 A 
ATOM     11  C   UNL     1       0.959   9.359  19.921  0.00  0.00    +0.000 A 
ATOM     12  C   UNL     1       2.647   5.430  20.350  0.00  0.00    +0.000 C 
ATOM     13  C   UNL     1       3.151   4.811  19.043  0.00  0.00    +0.000 C 
ATOM     14  C   UNL     1       4.133   5.767  18.345  0.00  0.00    +0.000 C 
ATOM     15  C   UNL     1       3.378   7.075  17.977  0.00  0.00    +0.000 C 
ENDROOT
BRANCH  14  16
ATOM     16  C   UNL     1       4.891   5.128  17.108  0.00  0.00    +0.000 C 
ATOM     17  C   UNL     1       6.316   4.643  17.475  0.00  0.00    +0.000 C 
ATOM     18  C   UNL     1       4.095   3.925  16.551  0.00  0.00    +0.000 C 
ATOM     19  C   UNL     1       5.015   6.163  15.965  0.00  0.00    +0.000 C 
ENDBRANCH  14  16
TORSDOF 1
ENDMDL
MODEL 3
REMARK VINA RESULT:      -6.9      0.334      1.022
REMARK  Name = 
REMARK  5 active torsions:
REMARK  status: ('A' for Active; 'I' for Inactive)
REMARK    1  A    between atoms: C_1  and  C_2
REMARK    2  A    between atoms: C_14  and  C_15
REMARK    3  A    between atoms: C_15  and  C_16
REMARK    4  A    between atoms: C_15  and  C_17
REMARK    5  A    between atoms: C_15  and  C_18
REMARK                            x       y       z     vdW  Elec       q    Type
REMARK                         _______ _______ _______ _____ _____    ______ ____
ROOT
ATOM      1  C   UNL     1       2.004   9.772  17.809  0.00  0.00    +0.000 C 
ATOM      2  C   UNL     1       1.717   8.915  19.032  0.00  0.00    +0.000 A 
ATOM      3  C   UNL     1       2.285   7.616  19.181  0.00  0.00    +0.000 A 
ATOM      4  C   UNL     1       1.975   6.865  20.337  0.00  0.00    +0.000 A 
ATOM      5  N   UNL     1       1.172   7.388  21.296  0.00  0.00    +0.000 NA
ATOM      6  C   UNL     1       0.609   8.615  21.187  0.00  0.00    +0.000 A 
ATOM      7  C   UNL     1      -0.238   9.071  22.202  0.00  0.00    +0.000 A 
ATOM      8  C   UNL     1      -0.844  10.325  22.102  0.00  0.00    +0.000 A 
ATOM      9  C   UNL     1      -0.601  11.129  20.989  0.00  0.00    +0.000 A 
ATOM     10  C   UNL     1       0.248  10.685  19.970  0.00  0.00    +0.000 A 
ATOM     11  C   UNL     1       0.864   9.416  20.050  0.00  0.00    +0.000 A 
ATOM     12  C   UNL     1       2.489   5.467  20.543  0.00  0.00    +0.000 C 
ATOM     13  C   UNL     1       2.949   4.805  19.241  0.00  0.00    +0.000 C 
ATOM     14  C   UNL     1       3.930   5.723  18.494  0.00  0.00    +0.000 C 
ATOM     15  C   UNL     1       3.191   7.035  18.110  0.00  0.00    +0.000 C 
ENDROOT
BRANCH  14  16
ATOM     16  C   UNL     1       4.646   5.037  17.257  0.00  0.00    +0.000 C 
ATOM     17  C   UNL     1       3.812   3.875  16.661  0.00  0.00    +0.000 C 
ATOM     18  C   UNL     1       4.903   6.075  16.139  0.00  0.00    +0.000 C 
ATOM     19  C   UNL     1       6.022   4.472  17.681  0.00  0.00    +0.000 C 
ENDBRANCH  14  16
TORSDOF 1
ENDMDL
MODEL 4
REMARK VINA RESULT:      -6.7      1.348      6.676
REMARK  Name = 
REMARK  5 active torsions:
REMARK  status: ('A' for Active; 'I' for Inactive)
REMARK    1  A    between atoms: C_1  and  C_2
REMARK    2  A    between atoms: C_14  and  C_15
REMARK    3  A    between atoms: C_15  and  C_16
REMARK    4  A    between atoms: C_15  and  C_17
REMARK    5  A    between atoms: C_15  and  C_18
REMARK                            x       y       z     vdW  Elec       q    Type
REMARK                         _______ _______ _______ _____ _____    ______ ____
ROOT
ATOM      1  C   UNL     1       1.909   5.400  20.822  0.00  0.00    +0.000 C 
ATOM      2  C   UNL     1       2.462   6.109  19.596  0.00  0.00    +0.000 A 
ATOM      3  C   UNL     1       2.147   7.471  19.318  0.00  0.00    +0.000 A 
ATOM      4  C   UNL     1       2.686   8.072  18.158  0.00  0.00    +0.000 A 
ATOM      5  N   UNL     1       3.509   7.368  17.343  0.00  0.00    +0.000 NA
ATOM      6  C   UNL     1       3.826   6.070  17.571  0.00  0.00    +0.000 A 
ATOM      7  C   UNL     1       4.654   5.400  16.665  0.00  0.00    +0.000 A 
ATOM      8  C   UNL     1       4.979   4.057  16.871  0.00  0.00    +0.000 A 
ATOM      9  C   UNL     1       4.481   3.383  17.985  0.00  0.00    +0.000 A 
ATOM     10  C   UNL     1       3.658   4.044  18.900  0.00  0.00    +0.000 A 
ATOM     11  C   UNL     1       3.311   5.401  18.705  0.00  0.00    +0.000 A 
ATOM     12  C   UNL     1       2.358   9.485  17.765  0.00  0.00    +0.000 C 
ATOM     13  C   UNL     1       1.085  10.009  18.437  0.00  0.00    +0.000 C 
ATOM     14  C   UNL     1       1.155   9.788  19.957  0.00  0.00    +0.000 C 
ATOM     15  C   UNL     1       1.231   8.261  20.235  0.00  0.00    +0.000 C 
ENDROOT
BRANCH  14  16
ATOM     16  C   UNL     1      -0.002  10.503  20.770  0.00  0.00    +0.000 C 
ATOM     17  C   UNL     1       0.418  11.900  21.293  0.00  0.00    +0.000 C 
ATOM     18  C   UNL     1      -1.259  10.672  19.884  0.00  0.00    +0.000 C 
ATOM     19  C   UNL     1      -0.414   9.639  21.986  0.00  0.00    +0.000 C 
ENDBRANCH  14  16
TORSDOF 1
ENDMDL
MODEL 5
REMARK VINA RESULT:      -6.6      1.141      1.485
REMARK  Name = 
REMARK  5 active torsions:
REMARK  status: ('A' for Active; 'I' for Inactive)
REMARK    1  A    between atoms: C_1  and  C_2
REMARK    2  A    between atoms: C_14  and  C_15
REMARK    3  A    between atoms: C_15  and  C_16
REMARK    4  A    between atoms: C_15  and  C_17
REMARK    5  A    between atoms: C_15  and  C_18
REMARK                            x       y       z     vdW  Elec       q    Type
REMARK                         _______ _______ _______ _____ _____    ______ ____
ROOT
ATOM      1  C   UNL     1       2.337   8.839  17.555  0.00  0.00    +0.000 C 
ATOM      2  C   UNL     1       1.894   8.332  18.918  0.00  0.00    +0.000 A 
ATOM      3  C   UNL     1       2.117   6.983  19.321  0.00  0.00    +0.000 A 
ATOM      4  C   UNL     1       1.675   6.571  20.598  0.00  0.00    +0.000 A 
ATOM      5  N   UNL     1       1.074   7.455  21.431  0.00  0.00    +0.000 NA
ATOM      6  C   UNL     1       0.839   8.743  21.082  0.00  0.00    +0.000 A 
ATOM      7  C   UNL     1       0.181   9.586  21.983  0.00  0.00    +0.000 A 
ATOM      8  C   UNL     1      -0.089  10.911  21.637  0.00  0.00    +0.000 A 
ATOM      9  C   UNL     1       0.304  11.399  20.391  0.00  0.00    +0.000 A 
ATOM     10  C   UNL     1       0.966  10.567  19.485  0.00  0.00    +0.000 A 
ATOM     11  C   UNL     1       1.241   9.220  19.814  0.00  0.00    +0.000 A 
ATOM     12  C   UNL     1       1.824   5.153  21.075  0.00  0.00    +0.000 C 
ATOM     13  C   UNL     1       2.043   4.160  19.930  0.00  0.00    +0.000 C 
ATOM     14  C   UNL     1       3.194   4.634  19.026  0.00  0.00    +0.000 C 
ATOM     15  C   UNL     1       2.798   5.996  18.389  0.00  0.00    +0.000 C 
ENDROOT
BRANCH  14  16
ATOM     16  C   UNL     1       3.656   3.566  17.951  0.00  0.00    +0.000 C 
ATOM     17  C   UNL     1       4.872   4.050  17.121  0.00  0.00    +0.000 C 
ATOM     18  C   UNL     1       4.036   2.235  18.642  0.00  0.00    +0.000 C 
ATOM     19  C   UNL     1       2.498   3.257  16.972  0.00  0.00    +0.000 C 
ENDBRANCH  14  16
TORSDOF 1
ENDMDL
MODEL 6
REMARK VINA RESULT:      -6.6      1.348      6.687
REMARK  Name = 
REMARK  5 active torsions:
REMARK  status: ('A' for Active; 'I' for Inactive)
REMARK    1  A    between atoms: C_1  and  C_2
REMARK    2  A    between atoms: C_14  and  C_15
REMARK    3  A    between atoms: C_15  and  C_16
REMARK    4  A    between atoms: C_15  and  C_17
REMARK    5  A    between atoms: C_15  and  C_18
REMARK                            x       y       z     vdW  Elec       q    Type
REMARK                         _______ _______ _______ _____ _____    ______ ____
ROOT
ATOM      1  C   UNL     1       2.019   5.181  20.806  0.00  0.00    +0.000 C 
ATOM      2  C   UNL     1       2.543   5.927  19.590  0.00  0.00    +0.000 A 
ATOM      3  C   UNL     1       2.190   7.285  19.339  0.00  0.00    +0.000 A 
ATOM      4  C   UNL     1       2.704   7.922  18.187  0.00  0.00    +0.000 A 
ATOM      5  N   UNL     1       3.540   7.256  17.354  0.00  0.00    +0.000 NA
ATOM      6  C   UNL     1       3.894   5.964  17.555  0.00  0.00    +0.000 A 
ATOM      7  C   UNL     1       4.733   5.333  16.631  0.00  0.00    +0.000 A 
ATOM      8  C   UNL     1       5.094   3.996  16.809  0.00  0.00    +0.000 A 
ATOM      9  C   UNL     1       4.623   3.288  17.914  0.00  0.00    +0.000 A 
ATOM     10  C   UNL     1       3.789   3.910  18.846  0.00  0.00    +0.000 A 
ATOM     11  C   UNL     1       3.405   5.260  18.680  0.00  0.00    +0.000 A 
ATOM     12  C   UNL     1       2.335   9.334  17.824  0.00  0.00    +0.000 C 
ATOM     13  C   UNL     1       1.054   9.810  18.514  0.00  0.00    +0.000 C 
ATOM     14  C   UNL     1       1.141   9.563  20.029  0.00  0.00    +0.000 C 
ATOM     15  C   UNL     1       1.260   8.033  20.278  0.00  0.00    +0.000 C 
ENDROOT
BRANCH  14  16
ATOM     16  C   UNL     1      -0.029  10.231  20.864  0.00  0.00    +0.000 C 
ATOM     17  C   UNL     1      -1.293  10.492  20.006  0.00  0.00    +0.000 C 
ATOM     18  C   UNL     1      -0.427   9.328  22.055  0.00  0.00    +0.000 C 
ATOM     19  C   UNL     1       0.439  11.583  21.453  0.00  0.00    +0.000 C 
ENDBRANCH  14  16
TORSDOF 1
ENDMDL
MODEL 7
REMARK VINA RESULT:      -6.6      1.174      1.853
REMARK  Name = 
REMARK  5 active torsions:
REMARK  status: ('A' for Active; 'I' for Inactive)
REMARK    1  A    between atoms: C_1  and  C_2
REMARK    2  A    between atoms: C_14  and  C_15
REMARK    3  A    between atoms: C_15  and  C_16
REMARK    4  A    between atoms: C_15  and  C_17
REMARK    5  A    between atoms: C_15  and  C_18
REMARK                            x       y       z     vdW  Elec       q    Type
REMARK                         _______ _______ _______ _____ _____    ______ ____
ROOT
ATOM      1  C   UNL     1       2.402   8.776  17.492  0.00  0.00    +0.000 C 
ATOM      2  C   UNL     1       1.944   8.306  18.863  0.00  0.00    +0.000 A 
ATOM      3  C   UNL     1       2.139   6.961  19.294  0.00  0.00    +0.000 A 
ATOM      4  C   UNL     1       1.684   6.584  20.577  0.00  0.00    +0.000 A 
ATOM      5  N   UNL     1       1.098   7.496  21.390  0.00  0.00    +0.000 NA
ATOM      6  C   UNL     1       0.889   8.781  21.013  0.00  0.00    +0.000 A 
ATOM      7  C   UNL     1       0.245   9.655  21.895  0.00  0.00    +0.000 A 
ATOM      8  C   UNL     1       0.003  10.978  21.520  0.00  0.00    +0.000 A 
ATOM      9  C   UNL     1       0.410  11.433  20.267  0.00  0.00    +0.000 A 
ATOM     10  C   UNL     1       1.059  10.570  19.380  0.00  0.00    +0.000 A 
ATOM     11  C   UNL     1       1.306   9.225  19.738  0.00  0.00    +0.000 A 
ATOM     12  C   UNL     1       1.803   5.173  21.083  0.00  0.00    +0.000 C 
ATOM     13  C   UNL     1       2.006   4.153  19.959  0.00  0.00    +0.000 C 
ATOM     14  C   UNL     1       3.170   4.586  19.051  0.00  0.00    +0.000 C 
ATOM     15  C   UNL     1       2.803   5.942  18.385  0.00  0.00    +0.000 C 
ENDROOT
BRANCH  14  16
ATOM     16  C   UNL     1       3.615   3.487  17.999  0.00  0.00    +0.000 C 
ATOM     17  C   UNL     1       3.988   2.142  18.671  0.00  0.00    +0.000 C 
ATOM     18  C   UNL     1       2.481   3.225  16.980  0.00  0.00    +0.000 C 
ATOM     19  C   UNL     1       4.843   3.980  17.198  0.00  0.00    +0.000 C 
ENDBRANCH  14  16
TORSDOF 1
ENDMDL
MODEL 8
REMARK VINA RESULT:      -6.5      1.698      6.774
REMARK  Name = 
REMARK  5 active torsions:
REMARK  status: ('A' for Active; 'I' for Inactive)
REMARK    1  A    between atoms: C_1  and  C_2
REMARK    2  A    between atoms: C_14  and  C_15
REMARK    3  A    between atoms: C_15  and  C_16
REMARK    4  A    between atoms: C_15  and  C_17
REMARK    5  A    between atoms: C_15  and  C_18
REMARK                            x       y       z     vdW  Elec       q    Type
REMARK                         _______ _______ _______ _____ _____    ______ ____
ROOT
ATOM      1  C   UNL     1       1.595   3.883  21.247  0.00  0.00    +0.000 C 
ATOM      2  C   UNL     1       2.205   4.528  20.013  0.00  0.00    +0.000 A 
ATOM      3  C   UNL     1       2.138   5.935  19.796  0.00  0.00    +0.000 A 
ATOM      4  C   UNL     1       2.717   6.473  18.625  0.00  0.00    +0.000 A 
ATOM      5  N   UNL     1       3.348   5.663  17.740  0.00  0.00    +0.000 NA
ATOM      6  C   UNL     1       3.426   4.320  17.908  0.00  0.00    +0.000 A 
ATOM      7  C   UNL     1       4.063   3.546  16.933  0.00  0.00    +0.000 A 
ATOM      8  C   UNL     1       4.138   2.159  17.077  0.00  0.00    +0.000 A 
ATOM      9  C   UNL     1       3.584   1.543  18.198  0.00  0.00    +0.000 A 
ATOM     10  C   UNL     1       2.950   2.308  19.181  0.00  0.00    +0.000 A 
ATOM     11  C   UNL     1       2.856   3.712  19.050  0.00  0.00    +0.000 A 
ATOM     12  C   UNL     1       2.641   7.938  18.297  0.00  0.00    +0.000 C 
ATOM     13  C   UNL     1       1.528   8.662  19.061  0.00  0.00    +0.000 C 
ATOM     14  C   UNL     1       1.637   8.368  20.566  0.00  0.00    +0.000 C 
ATOM     15  C   UNL     1       1.438   6.843  20.792  0.00  0.00    +0.000 C 
ENDROOT
BRANCH  14  16
ATOM     16  C   UNL     1       0.681   9.252  21.470  0.00  0.00    +0.000 C 
ATOM     17  C   UNL     1       1.271   9.510  22.879  0.00  0.00    +0.000 C 
ATOM     18  C   UNL     1       0.412  10.618  20.796  0.00  0.00    +0.000 C 
ATOM     19  C   UNL     1      -0.688   8.551  21.644  0.00  0.00    +0.000 C 
ENDBRANCH  14  16
TORSDOF 1
ENDMDL
MODEL 9
REMARK VINA RESULT:      -6.5      1.941      3.657
REMARK  Name = 
REMARK  5 active torsions:
REMARK  status: ('A' for Active; 'I' for Inactive)
REMARK    1  A    between atoms: C_1  and  C_2
REMARK    2  A    between atoms: C_14  and  C_15
REMARK    3  A    between atoms: C_15  and  C_16
REMARK    4  A    between atoms: C_15  and  C_17
REMARK    5  A    between atoms: C_15  and  C_18
REMARK                            x       y       z     vdW  Elec       q    Type
REMARK                         _______ _______ _______ _____ _____    ______ ____
ROOT
ATOM      1  C   UNL     1       0.409   9.221  22.673  0.00  0.00    +0.000 C 
ATOM      2  C   UNL     1       0.575   9.807  21.280  0.00  0.00    +0.000 A 
ATOM      3  C   UNL     1       1.128   9.044  20.211  0.00  0.00    +0.000 A 
ATOM      4  C   UNL     1       1.263   9.647  18.941  0.00  0.00    +0.000 A 
ATOM      5  N   UNL     1       0.847  10.922  18.742  0.00  0.00    +0.000 NA
ATOM      6  C   UNL     1       0.323  11.681  19.735  0.00  0.00    +0.000 A 
ATOM      7  C   UNL     1      -0.050  13.001  19.461  0.00  0.00    +0.000 A 
ATOM      8  C   UNL     1      -0.574  13.807  20.473  0.00  0.00    +0.000 A 
ATOM      9  C   UNL     1      -0.733  13.295  21.761  0.00  0.00    +0.000 A 
ATOM     10  C   UNL     1      -0.368  11.976  22.044  0.00  0.00    +0.000 A 
ATOM     11  C   UNL     1       0.172  11.146  21.035  0.00  0.00    +0.000 A 
ATOM     12  C   UNL     1       1.886   8.928  17.777  0.00  0.00    +0.000 C 
ATOM     13  C   UNL     1       2.744   7.734  18.206  0.00  0.00    +0.000 C 
ATOM     14  C   UNL     1       1.946   6.816  19.147  0.00  0.00    +0.000 C 
ATOM     15  C   UNL     1       1.585   7.613  20.432  0.00  0.00    +0.000 C 
ENDROOT
BRANCH  14  16
ATOM     16  C   UNL     1       2.656   5.434  19.461  0.00  0.00    +0.000 C 
ATOM     17  C   UNL     1       4.201   5.547  19.447  0.00  0.00    +0.000 C 
ATOM     18  C   UNL     1       2.219   4.906  20.848  0.00  0.00    +0.000 C 
ATOM     19  C   UNL     1       2.242   4.371  18.416  0.00  0.00    +0.000 C 
ENDBRANCH  14  16
TORSDOF 1
ENDMDL
