MODEL 1
REMARK VINA RESULT:      -6.6      0.000      0.000
REMARK  Name = 
REMARK  3 active torsions:
REMARK  status: ('A' for Active; 'I' for Inactive)
REMARK    1  A    between atoms: O_1  and  C_2
REMARK    2  A    between atoms: C_2  and  C_3
REMARK    3  A    between atoms: C_3  and  C_4
REMARK                            x       y       z     vdW  Elec       q    Type
REMARK                         _______ _______ _______ _____ _____    ______ ____
ROOT
ATOM      1  C   UNL     1       6.242   4.401  17.762  0.00  0.00    +0.000 C 
ATOM      2  C   UNL     1       5.378   5.548  17.224  0.00  0.00    +0.000 C 
ATOM      3  O   UNL     1       4.077   5.079  16.821  0.00  0.00    +0.000 OA
ATOM      4  C   UNL     1       3.470   4.335  17.812  0.00  0.00    +0.000 A 
ATOM      5  C   UNL     1       2.089   4.168  17.697  0.00  0.00    +0.000 A 
ATOM      6  C   UNL     1       1.398   3.450  18.671  0.00  0.00    +0.000 A 
ATOM      7  C   UNL     1       2.100   2.911  19.744  0.00  0.00    +0.000 A 
ATOM      8  F   UNL     1       1.433   2.224  20.683  0.00  0.00    +0.000 F 
ATOM      9  C   UNL     1       3.480   3.053  19.852  0.00  0.00    +0.000 A 
ATOM     10  C   UNL     1       4.190   3.764  18.883  0.00  0.00    +0.000 A 
ATOM     11  N   UNL     1       5.580   3.792  18.914  0.00  0.00    +0.000 N 
ATOM     12  H   UNL     1       6.071   3.640  19.785  0.00  0.00    +0.000 HD
ENDROOT
BRANCH   1  13
ATOM     13  C   UNL     1       7.678   4.814  18.094  0.00  0.00    +0.000 C 
BRANCH  13  14
ATOM     14  C   UNL     1       7.818   5.999  19.041  0.00  0.00    +0.000 C 
BRANCH  14  15
ATOM     15  O   UNL     1       7.836   5.505  20.375  0.00  0.00    +0.000 OA
ATOM     16  H   UNL     1       6.912   5.422  20.667  0.00  0.00    +0.000 HD
ENDBRANCH  14  15
ENDBRANCH  13  14
ENDBRANCH   1  13
TORSDOF 3
ENDMDL
MODEL 2
REMARK VINA RESULT:      -6.2      2.949      4.826
REMARK  Name = 
REMARK  3 active torsions:
REMARK  status: ('A' for Active; 'I' for Inactive)
REMARK    1  A    between atoms: O_1  and  C_2
REMARK    2  A    between atoms: C_2  and  C_3
REMARK    3  A    between atoms: C_3  and  C_4
REMARK                            x       y       z     vdW  Elec       q    Type
REMARK                         _______ _______ _______ _____ _____    ______ ____
ROOT
ATOM      1  C   UNL     1       1.984   4.283  19.299  0.00  0.00    +0.000 C 
ATOM      2  C   UNL     1       1.999   3.163  18.251  0.00  0.00    +0.000 C 
ATOM      3  O   UNL     1       2.777   3.536  17.098  0.00  0.00    +0.000 OA
ATOM      4  C   UNL     1       4.031   3.992  17.450  0.00  0.00    +0.000 A 
ATOM      5  C   UNL     1       4.988   4.005  16.434  0.00  0.00    +0.000 A 
ATOM      6  C   UNL     1       6.286   4.429  16.716  0.00  0.00    +0.000 A 
ATOM      7  C   UNL     1       6.603   4.833  18.008  0.00  0.00    +0.000 A 
ATOM      8  F   UNL     1       7.853   5.237  18.278  0.00  0.00    +0.000 F 
ATOM      9  C   UNL     1       5.647   4.846  19.019  0.00  0.00    +0.000 A 
ATOM     10  C   UNL     1       4.341   4.430  18.755  0.00  0.00    +0.000 A 
ATOM     11  N   UNL     1       3.352   4.570  19.723  0.00  0.00    +0.000 N 
ATOM     12  H   UNL     1       3.604   4.611  20.702  0.00  0.00    +0.000 HD
ENDROOT
BRANCH   1  13
ATOM     13  C   UNL     1       1.074   3.995  20.496  0.00  0.00    +0.000 C 
BRANCH  13  14
ATOM     14  C   UNL     1       1.400   2.730  21.279  0.00  0.00    +0.000 C 
BRANCH  14  15
ATOM     15  O   UNL     1       2.435   3.034  22.207  0.00  0.00    +0.000 OA
ATOM     16  H   UNL     1       2.082   3.689  22.833  0.00  0.00    +0.000 HD
ENDBRANCH  14  15
ENDBRANCH  13  14
ENDBRANCH   1  13
TORSDOF 3
ENDMDL
MODEL 3
REMARK VINA RESULT:      -6.2      1.669      1.875
REMARK  Name = 
REMARK  3 active torsions:
REMARK  status: ('A' for Active; 'I' for Inactive)
REMARK    1  A    between atoms: O_1  and  C_2
REMARK    2  A    between atoms: C_2  and  C_3
REMARK    3  A    between atoms: C_3  and  C_4
REMARK                            x       y       z     vdW  Elec       q    Type
REMARK                         _______ _______ _______ _____ _____    ______ ____
ROOT
ATOM      1  C   UNL     1       4.715   4.101  16.801  0.00  0.00    +0.000 C 
ATOM      2  C   UNL     1       4.378   5.545  17.193  0.00  0.00    +0.000 C 
ATOM      3  O   UNL     1       3.078   5.631  17.805  0.00  0.00    +0.000 OA
ATOM      4  C   UNL     1       2.933   4.722  18.833  0.00  0.00    +0.000 A 
ATOM      5  C   UNL     1       1.897   4.973  19.735  0.00  0.00    +0.000 A 
ATOM      6  C   UNL     1       1.701   4.114  20.815  0.00  0.00    +0.000 A 
ATOM      7  C   UNL     1       2.544   3.020  20.976  0.00  0.00    +0.000 A 
ATOM      8  F   UNL     1       2.356   2.197  22.018  0.00  0.00    +0.000 F 
ATOM      9  C   UNL     1       3.563   2.750  20.067  0.00  0.00    +0.000 A 
ATOM     10  C   UNL     1       3.771   3.596  18.975  0.00  0.00    +0.000 A 
ATOM     11  N   UNL     1       4.697   3.257  17.994  0.00  0.00    +0.000 N 
ATOM     12  H   UNL     1       5.465   2.637  18.214  0.00  0.00    +0.000 HD
ENDROOT
BRANCH   1  13
ATOM     13  C   UNL     1       6.034   3.961  16.037  0.00  0.00    +0.000 C 
BRANCH  13  14
ATOM     14  C   UNL     1       7.217   4.721  16.623  0.00  0.00    +0.000 C 
BRANCH  14  15
ATOM     15  O   UNL     1       7.673   4.017  17.773  0.00  0.00    +0.000 OA
ATOM     16  H   UNL     1       7.639   3.068  17.565  0.00  0.00    +0.000 HD
ENDBRANCH  14  15
ENDBRANCH  13  14
ENDBRANCH   1  13
TORSDOF 3
ENDMDL
MODEL 4
REMARK VINA RESULT:      -6.1      1.987      2.577
REMARK  Name = 
REMARK  3 active torsions:
REMARK  status: ('A' for Active; 'I' for Inactive)
REMARK    1  A    between atoms: O_1  and  C_2
REMARK    2  A    between atoms: C_2  and  C_3
REMARK    3  A    between atoms: C_3  and  C_4
REMARK                            x       y       z     vdW  Elec       q    Type
REMARK                         _______ _______ _______ _____ _____    ______ ____
ROOT
ATOM      1  C   UNL     1       5.441   4.751  17.443  0.00  0.00    +0.000 C 
ATOM      2  C   UNL     1       5.631   4.992  18.947  0.00  0.00    +0.000 C 
ATOM      3  O   UNL     1       4.400   5.407  19.569  0.00  0.00    +0.000 OA
ATOM      4  C   UNL     1       3.358   4.557  19.263  0.00  0.00    +0.000 A 
ATOM      5  C   UNL     1       2.243   4.626  20.101  0.00  0.00    +0.000 A 
ATOM      6  C   UNL     1       1.157   3.782  19.874  0.00  0.00    +0.000 A 
ATOM      7  C   UNL     1       1.205   2.884  18.813  0.00  0.00    +0.000 A 
ATOM      8  F   UNL     1       0.161   2.070  18.597  0.00  0.00    +0.000 F 
ATOM      9  C   UNL     1       2.302   2.828  17.959  0.00  0.00    +0.000 A 
ATOM     10  C   UNL     1       3.397   3.670  18.168  0.00  0.00    +0.000 A 
ATOM     11  N   UNL     1       4.433   3.712  17.241  0.00  0.00    +0.000 N 
ATOM     12  H   UNL     1       4.605   2.921  16.635  0.00  0.00    +0.000 HD
ENDROOT
BRANCH   1  13
ATOM     13  C   UNL     1       6.740   4.423  16.703  0.00  0.00    +0.000 C 
BRANCH  13  14
ATOM     14  C   UNL     1       6.669   4.506  15.183  0.00  0.00    +0.000 C 
BRANCH  14  15
ATOM     15  O   UNL     1       7.697   5.382  14.736  0.00  0.00    +0.000 OA
ATOM     16  H   UNL     1       8.537   4.894  14.786  0.00  0.00    +0.000 HD
ENDBRANCH  14  15
ENDBRANCH  13  14
ENDBRANCH   1  13
TORSDOF 3
ENDMDL
MODEL 5
REMARK VINA RESULT:      -6.1      1.571      1.624
REMARK  Name = 
REMARK  3 active torsions:
REMARK  status: ('A' for Active; 'I' for Inactive)
REMARK    1  A    between atoms: O_1  and  C_2
REMARK    2  A    between atoms: C_2  and  C_3
REMARK    3  A    between atoms: C_3  and  C_4
REMARK                            x       y       z     vdW  Elec       q    Type
REMARK                         _______ _______ _______ _____ _____    ______ ____
ROOT
ATOM      1  C   UNL     1       5.462   4.223  17.868  0.00  0.00    +0.000 C 
ATOM      2  C   UNL     1       4.491   5.377  17.586  0.00  0.00    +0.000 C 
ATOM      3  O   UNL     1       3.128   4.913  17.543  0.00  0.00    +0.000 OA
ATOM      4  C   UNL     1       2.804   4.167  18.656  0.00  0.00    +0.000 A 
ATOM      5  C   UNL     1       1.441   4.005  18.913  0.00  0.00    +0.000 A 
ATOM      6  C   UNL     1       1.032   3.283  20.033  0.00  0.00    +0.000 A 
ATOM      7  C   UNL     1       1.992   2.737  20.877  0.00  0.00    +0.000 A 
ATOM      8  F   UNL     1       1.597   2.046  21.957  0.00  0.00    +0.000 F 
ATOM      9  C   UNL     1       3.352   2.873  20.614  0.00  0.00    +0.000 A 
ATOM     10  C   UNL     1       3.781   3.588  19.493  0.00  0.00    +0.000 A 
ATOM     11  N   UNL     1       5.129   3.611  19.153  0.00  0.00    +0.000 N 
ATOM     12  H   UNL     1       5.834   3.452  19.860  0.00  0.00    +0.000 HD
ENDROOT
BRANCH   1  13
ATOM     13  C   UNL     1       6.937   4.630  17.808  0.00  0.00    +0.000 C 
BRANCH  13  14
ATOM     14  C   UNL     1       7.208   6.044  17.309  0.00  0.00    +0.000 C 
BRANCH  14  15
ATOM     15  O   UNL     1       7.489   5.979  15.916  0.00  0.00    +0.000 OA
ATOM     16  H   UNL     1       8.045   6.746  15.695  0.00  0.00    +0.000 HD
ENDBRANCH  14  15
ENDBRANCH  13  14
ENDBRANCH   1  13
TORSDOF 3
ENDMDL
MODEL 6
REMARK VINA RESULT:      -6.1      2.002      2.618
REMARK  Name = 
REMARK  3 active torsions:
REMARK  status: ('A' for Active; 'I' for Inactive)
REMARK    1  A    between atoms: O_1  and  C_2
REMARK    2  A    between atoms: C_2  and  C_3
REMARK    3  A    between atoms: C_3  and  C_4
REMARK                            x       y       z     vdW  Elec       q    Type
REMARK                         _______ _______ _______ _____ _____    ______ ____
ROOT
ATOM      1  C   UNL     1       4.764   5.653  17.366  0.00  0.00    +0.000 C 
ATOM      2  C   UNL     1       5.280   5.482  18.801  0.00  0.00    +0.000 C 
ATOM      3  O   UNL     1       4.203   5.541  19.754  0.00  0.00    +0.000 OA
ATOM      4  C   UNL     1       3.174   4.684  19.421  0.00  0.00    +0.000 A 
ATOM      5  C   UNL     1       2.281   4.367  20.446  0.00  0.00    +0.000 A 
ATOM      6  C   UNL     1       1.229   3.488  20.197  0.00  0.00    +0.000 A 
ATOM      7  C   UNL     1       1.087   2.941  18.926  0.00  0.00    +0.000 A 
ATOM      8  F   UNL     1       0.076   2.092  18.688  0.00  0.00    +0.000 F 
ATOM      9  C   UNL     1       1.959   3.272  17.893  0.00  0.00    +0.000 A 
ATOM     10  C   UNL     1       3.016   4.155  18.123  0.00  0.00    +0.000 A 
ATOM     11  N   UNL     1       3.806   4.592  17.064  0.00  0.00    +0.000 N 
ATOM     12  H   UNL     1       3.884   4.033  16.225  0.00  0.00    +0.000 HD
ENDROOT
BRANCH   1  13
ATOM     13  C   UNL     1       5.875   5.720  16.315  0.00  0.00    +0.000 C 
BRANCH  13  14
ATOM     14  C   UNL     1       6.847   4.547  16.312  0.00  0.00    +0.000 C 
BRANCH  14  15
ATOM     15  O   UNL     1       6.131   3.375  15.939  0.00  0.00    +0.000 OA
ATOM     16  H   UNL     1       6.656   2.609  16.229  0.00  0.00    +0.000 HD
ENDBRANCH  14  15
ENDBRANCH  13  14
ENDBRANCH   1  13
TORSDOF 3
ENDMDL
MODEL 7
REMARK VINA RESULT:      -6.0      3.124      5.601
REMARK  Name = 
REMARK  3 active torsions:
REMARK  status: ('A' for Active; 'I' for Inactive)
REMARK    1  A    between atoms: O_1  and  C_2
REMARK    2  A    between atoms: C_2  and  C_3
REMARK    3  A    between atoms: C_3  and  C_4
REMARK                            x       y       z     vdW  Elec       q    Type
REMARK                         _______ _______ _______ _____ _____    ______ ____
ROOT
ATOM      1  C   UNL     1       3.522   4.116  17.892  0.00  0.00    +0.000 C 
ATOM      2  C   UNL     1       3.917   4.035  19.372  0.00  0.00    +0.000 C 
ATOM      3  O   UNL     1       5.347   4.046  19.533  0.00  0.00    +0.000 OA
ATOM      4  C   UNL     1       5.933   5.093  18.853  0.00  0.00    +0.000 A 
ATOM      5  C   UNL     1       7.229   5.434  19.245  0.00  0.00    +0.000 A 
ATOM      6  C   UNL     1       7.881   6.497  18.622  0.00  0.00    +0.000 A 
ATOM      7  C   UNL     1       7.225   7.202  17.618  0.00  0.00    +0.000 A 
ATOM      8  F   UNL     1       7.852   8.227  17.022  0.00  0.00    +0.000 F 
ATOM      9  C   UNL     1       5.943   6.852  17.205  0.00  0.00    +0.000 A 
ATOM     10  C   UNL     1       5.277   5.786  17.813  0.00  0.00    +0.000 A 
ATOM     11  N   UNL     1       4.055   5.348  17.313  0.00  0.00    +0.000 N 
ATOM     12  H   UNL     1       3.469   5.978  16.783  0.00  0.00    +0.000 HD
ENDROOT
BRANCH   1  13
ATOM     13  C   UNL     1       2.017   3.987  17.647  0.00  0.00    +0.000 C 
BRANCH  13  14
ATOM     14  C   UNL     1       1.257   3.138  18.658  0.00  0.00    +0.000 C 
BRANCH  14  15
ATOM     15  O   UNL     1       1.522   1.768  18.378  0.00  0.00    +0.000 OA
ATOM     16  H   UNL     1       2.206   1.471  19.002  0.00  0.00    +0.000 HD
ENDBRANCH  14  15
ENDBRANCH  13  14
ENDBRANCH   1  13
TORSDOF 3
ENDMDL
MODEL 8
REMARK VINA RESULT:      -6.0      1.453      1.581
REMARK  Name = 
REMARK  3 active torsions:
REMARK  status: ('A' for Active; 'I' for Inactive)
REMARK    1  A    between atoms: O_1  and  C_2
REMARK    2  A    between atoms: C_2  and  C_3
REMARK    3  A    between atoms: C_3  and  C_4
REMARK                            x       y       z     vdW  Elec       q    Type
REMARK                         _______ _______ _______ _____ _____    ______ ____
ROOT
ATOM      1  C   UNL     1       5.237   4.583  18.167  0.00  0.00    +0.000 C 
ATOM      2  C   UNL     1       4.159   5.002  17.159  0.00  0.00    +0.000 C 
ATOM      3  O   UNL     1       3.116   4.014  17.069  0.00  0.00    +0.000 OA
ATOM      4  C   UNL     1       2.621   3.673  18.310  0.00  0.00    +0.000 A 
ATOM      5  C   UNL     1       1.375   3.044  18.325  0.00  0.00    +0.000 A 
ATOM      6  C   UNL     1       0.796   2.690  19.543  0.00  0.00    +0.000 A 
ATOM      7  C   UNL     1       1.473   2.972  20.724  0.00  0.00    +0.000 A 
ATOM      8  F   UNL     1       0.912   2.635  21.896  0.00  0.00    +0.000 F 
ATOM      9  C   UNL     1       2.726   3.577  20.716  0.00  0.00    +0.000 A 
ATOM     10  C   UNL     1       3.324   3.934  19.505  0.00  0.00    +0.000 A 
ATOM     11  N   UNL     1       4.630   4.412  19.485  0.00  0.00    +0.000 N 
ATOM     12  H   UNL     1       5.023   4.851  20.308  0.00  0.00    +0.000 HD
ENDROOT
BRANCH   1  13
ATOM     13  C   UNL     1       6.435   5.535  18.220  0.00  0.00    +0.000 C 
BRANCH  13  14
ATOM     14  C   UNL     1       7.804   4.867  18.256  0.00  0.00    +0.000 C 
BRANCH  14  15
ATOM     15  O   UNL     1       7.980   4.146  17.042  0.00  0.00    +0.000 OA
ATOM     16  H   UNL     1       8.043   3.203  17.270  0.00  0.00    +0.000 HD
ENDBRANCH  14  15
ENDBRANCH  13  14
ENDBRANCH   1  13
TORSDOF 3
ENDMDL
MODEL 9
REMARK VINA RESULT:      -5.9      3.042      5.297
REMARK  Name = 
REMARK  3 active torsions:
REMARK  status: ('A' for Active; 'I' for Inactive)
REMARK    1  A    between atoms: O_1  and  C_2
REMARK    2  A    between atoms: C_2  and  C_3
REMARK    3  A    between atoms: C_3  and  C_4
REMARK                            x       y       z     vdW  Elec       q    Type
REMARK                         _______ _______ _______ _____ _____    ______ ____
ROOT
ATOM      1  C   UNL     1       3.037   3.856  19.038  0.00  0.00    +0.000 C 
ATOM      2  C   UNL     1       3.746   5.083  19.626  0.00  0.00    +0.000 C 
ATOM      3  O   UNL     1       5.175   4.981  19.478  0.00  0.00    +0.000 OA
ATOM      4  C   UNL     1       5.538   4.692  18.179  0.00  0.00    +0.000 A 
ATOM      5  C   UNL     1       6.866   4.955  17.838  0.00  0.00    +0.000 A 
ATOM      6  C   UNL     1       7.305   4.713  16.538  0.00  0.00    +0.000 A 
ATOM      7  C   UNL     1       6.408   4.212  15.601  0.00  0.00    +0.000 A 
ATOM      8  F   UNL     1       6.831   3.983  14.348  0.00  0.00    +0.000 F 
ATOM      9  C   UNL     1       5.090   3.924  15.940  0.00  0.00    +0.000 A 
ATOM     10  C   UNL     1       4.633   4.155  17.240  0.00  0.00    +0.000 A 
ATOM     11  N   UNL     1       3.360   3.743  17.617  0.00  0.00    +0.000 N 
ATOM     12  H   UNL     1       2.637   3.624  16.920  0.00  0.00    +0.000 HD
ENDROOT
BRANCH   1  13
ATOM     13  C   UNL     1       1.524   3.847  19.271  0.00  0.00    +0.000 C 
BRANCH  13  14
ATOM     14  C   UNL     1       0.801   2.577  18.844  0.00  0.00    +0.000 C 
BRANCH  14  15
ATOM     15  O   UNL     1       1.750   1.517  18.799  0.00  0.00    +0.000 OA
ATOM     16  H   UNL     1       2.228   1.519  19.646  0.00  0.00    +0.000 HD
ENDBRANCH  14  15
ENDBRANCH  13  14
ENDBRANCH   1  13
TORSDOF 3
ENDMDL
