MODEL 1
REMARK VINA RESULT:      -8.1      0.000      0.000
REMARK  Name = 
REMARK  4 active torsions:
REMARK  status: ('A' for Active; 'I' for Inactive)
REMARK    1  A    between atoms: C_1  and  O_2
REMARK    2  A    between atoms: O_2  and  C_3
REMARK    3  A    between atoms: C_6  and  C_7
REMARK    4  A    between atoms: C_12  and  C_13
REMARK                            x       y       z     vdW  Elec       q    Type
REMARK                         _______ _______ _______ _____ _____    ______ ____
ROOT
ATOM      1  C   UNL     1       1.294   8.502  20.369  0.00  0.00    +0.000 C 
ATOM      2  O   UNL     1       1.567   8.855  19.225  0.00  0.00    +0.000 OA
ATOM      3  N   UNL     1       1.584   7.274  20.927  0.00  0.00    +0.000 N 
ATOM      4  C   UNL     1       2.245   6.328  20.187  0.00  0.00    +0.000 A 
ATOM      5  N   UNL     1       2.929   6.449  19.080  0.00  0.00    +0.000 NA
ATOM      6  C   UNL     1       3.387   5.191  18.688  0.00  0.00    +0.000 A 
ATOM      7  N   UNL     1       3.059   4.135  19.450  0.00  0.00    +0.000 NA
ATOM      8  S   UNL     1       2.183   4.720  20.745  0.00  0.00    +0.000 S 
ATOM      9  H   UNL     1       1.167   6.980  21.797  0.00  0.00    +0.000 HD
ENDROOT
BRANCH   6  10
ATOM     10  C   UNL     1       4.224   5.061  17.489  0.00  0.00    +0.000 A 
ATOM     11  C   UNL     1       4.613   6.200  16.765  0.00  0.00    +0.000 A 
ATOM     12  C   UNL     1       5.433   6.085  15.637  0.00  0.00    +0.000 A 
ATOM     13  C   UNL     1       5.864   4.827  15.223  0.00  0.00    +0.000 A 
ATOM     14 BR   UNL     1       6.978   4.668  13.703  0.00  0.00    +0.000 Br
ATOM     15  C   UNL     1       5.485   3.684  15.922  0.00  0.00    +0.000 A 
ATOM     16  C   UNL     1       4.668   3.804  17.051  0.00  0.00    +0.000 A 
ENDBRANCH   6  10
BRANCH   1  20
ATOM     17  C   UNL     1      -0.813  11.383  22.762  0.00  0.00    +0.000 A 
ATOM     18  C   UNL     1      -0.194  11.745  21.565  0.00  0.00    +0.000 A 
ATOM     19  C   UNL     1       0.455  10.785  20.794  0.00  0.00    +0.000 A 
ATOM     20  C   UNL     1       0.512   9.447  21.210  0.00  0.00    +0.000 A 
ATOM     21  C   UNL     1      -0.101   9.082  22.417  0.00  0.00    +0.000 A 
ATOM     22  C   UNL     1      -0.757  10.052  23.187  0.00  0.00    +0.000 A 
BRANCH  17  24
ATOM     23  C   UNL     1      -2.801  12.534  23.307  0.00  0.00    +0.000 C 
ATOM     24  O   UNL     1      -1.392  12.413  23.451  0.00  0.00    +0.000 OA
ENDBRANCH  17  24
ENDBRANCH   1  20
TORSDOF 3
ENDMDL
MODEL 2
REMARK VINA RESULT:      -8.1      0.484      1.118
REMARK  Name = 
REMARK  4 active torsions:
REMARK  status: ('A' for Active; 'I' for Inactive)
REMARK    1  A    between atoms: C_1  and  O_2
REMARK    2  A    between atoms: O_2  and  C_3
REMARK    3  A    between atoms: C_6  and  C_7
REMARK    4  A    between atoms: C_12  and  C_13
REMARK                            x       y       z     vdW  Elec       q    Type
REMARK                         _______ _______ _______ _____ _____    ______ ____
ROOT
ATOM      1  C   UNL     1       1.202   8.562  20.386  0.00  0.00    +0.000 C 
ATOM      2  O   UNL     1       1.498   8.912  19.247  0.00  0.00    +0.000 OA
ATOM      3  N   UNL     1       1.489   7.341  20.958  0.00  0.00    +0.000 N 
ATOM      4  C   UNL     1       2.177   6.397  20.240  0.00  0.00    +0.000 A 
ATOM      5  N   UNL     1       2.887   6.518  19.150  0.00  0.00    +0.000 NA
ATOM      6  C   UNL     1       3.367   5.263  18.776  0.00  0.00    +0.000 A 
ATOM      7  N   UNL     1       3.031   4.208  19.536  0.00  0.00    +0.000 NA
ATOM      8  S   UNL     1       2.118   4.791  20.807  0.00  0.00    +0.000 S 
ATOM      9  H   UNL     1       1.054   7.048  21.819  0.00  0.00    +0.000 HD
ENDROOT
BRANCH   6  10
ATOM     10  C   UNL     1       4.234   5.135  17.599  0.00  0.00    +0.000 A 
ATOM     11  C   UNL     1       4.675   3.871  17.173  0.00  0.00    +0.000 A 
ATOM     12  C   UNL     1       5.478   3.740  16.035  0.00  0.00    +0.000 A 
ATOM     13  C   UNL     1       5.851   4.875  15.318  0.00  0.00    +0.000 A 
ATOM     14 BR   UNL     1       6.931   4.702  13.777  0.00  0.00    +0.000 Br
ATOM     15  C   UNL     1       5.430   6.138  15.727  0.00  0.00    +0.000 A 
ATOM     16  C   UNL     1       4.625   6.265  16.863  0.00  0.00    +0.000 A 
ENDBRANCH   6  10
BRANCH   1  20
ATOM     17  C   UNL     1      -1.017  11.446  22.673  0.00  0.00    +0.000 A 
ATOM     18  C   UNL     1      -0.574  11.728  21.379  0.00  0.00    +0.000 A 
ATOM     19  C   UNL     1       0.115  10.764  20.650  0.00  0.00    +0.000 A 
ATOM     20  C   UNL     1       0.389   9.505  21.202  0.00  0.00    +0.000 A 
ATOM     21  C   UNL     1      -0.045   9.222  22.504  0.00  0.00    +0.000 A 
ATOM     22  C   UNL     1      -0.744  10.195  23.233  0.00  0.00    +0.000 A 
BRANCH  17  24
ATOM     23  C   UNL     1      -1.022  13.747  23.203  0.00  0.00    +0.000 C 
ATOM     24  O   UNL     1      -1.654  12.477  23.306  0.00  0.00    +0.000 OA
ENDBRANCH  17  24
ENDBRANCH   1  20
TORSDOF 3
ENDMDL
MODEL 3
REMARK VINA RESULT:      -8.1      0.305      1.441
REMARK  Name = 
REMARK  4 active torsions:
REMARK  status: ('A' for Active; 'I' for Inactive)
REMARK    1  A    between atoms: C_1  and  O_2
REMARK    2  A    between atoms: O_2  and  C_3
REMARK    3  A    between atoms: C_6  and  C_7
REMARK    4  A    between atoms: C_12  and  C_13
REMARK                            x       y       z     vdW  Elec       q    Type
REMARK                         _______ _______ _______ _____ _____    ______ ____
ROOT
ATOM      1  C   UNL     1       1.230   8.635  20.306  0.00  0.00    +0.000 C 
ATOM      2  O   UNL     1       1.520   8.959  19.158  0.00  0.00    +0.000 OA
ATOM      3  N   UNL     1       1.515   7.424  20.901  0.00  0.00    +0.000 N 
ATOM      4  C   UNL     1       2.192   6.462  20.198  0.00  0.00    +0.000 A 
ATOM      5  N   UNL     1       2.894   6.556  19.099  0.00  0.00    +0.000 NA
ATOM      6  C   UNL     1       3.364   5.291  18.748  0.00  0.00    +0.000 A 
ATOM      7  N   UNL     1       3.028   4.253  19.532  0.00  0.00    +0.000 NA
ATOM      8  S   UNL     1       2.128   4.868  20.797  0.00  0.00    +0.000 S 
ATOM      9  H   UNL     1       1.085   7.151  21.772  0.00  0.00    +0.000 HD
ENDROOT
BRANCH   6  10
ATOM     10  C   UNL     1       4.220   5.133  17.566  0.00  0.00    +0.000 A 
ATOM     11  C   UNL     1       4.659   3.860  17.169  0.00  0.00    +0.000 A 
ATOM     12  C   UNL     1       5.453   3.700  16.028  0.00  0.00    +0.000 A 
ATOM     13  C   UNL     1       5.818   4.817  15.279  0.00  0.00    +0.000 A 
ATOM     14 BR   UNL     1       6.885   4.606  13.733  0.00  0.00    +0.000 Br
ATOM     15  C   UNL     1       5.399   6.090  15.659  0.00  0.00    +0.000 A 
ATOM     16  C   UNL     1       4.603   6.245  16.799  0.00  0.00    +0.000 A 
ENDBRANCH   6  10
BRANCH   1  20
ATOM     17  C   UNL     1      -1.192  11.251  22.706  0.00  0.00    +0.000 A 
ATOM     18  C   UNL     1      -0.722  10.034  23.203  0.00  0.00    +0.000 A 
ATOM     19  C   UNL     1       0.086   9.221  22.414  0.00  0.00    +0.000 A 
ATOM     20  C   UNL     1       0.430   9.599  21.110  0.00  0.00    +0.000 A 
ATOM     21  C   UNL     1      -0.048  10.816  20.603  0.00  0.00    +0.000 A 
ATOM     22  C   UNL     1      -0.858  11.634  21.404  0.00  0.00    +0.000 A 
BRANCH  17  24
ATOM     23  C   UNL     1      -3.217  12.430  22.993  0.00  0.00    +0.000 C 
ATOM     24  O   UNL     1      -2.003  11.951  23.556  0.00  0.00    +0.000 OA
ENDBRANCH  17  24
ENDBRANCH   1  20
TORSDOF 3
ENDMDL
MODEL 4
REMARK VINA RESULT:      -8.1      0.240      1.032
REMARK  Name = 
REMARK  4 active torsions:
REMARK  status: ('A' for Active; 'I' for Inactive)
REMARK    1  A    between atoms: C_1  and  O_2
REMARK    2  A    between atoms: O_2  and  C_3
REMARK    3  A    between atoms: C_6  and  C_7
REMARK    4  A    between atoms: C_12  and  C_13
REMARK                            x       y       z     vdW  Elec       q    Type
REMARK                         _______ _______ _______ _____ _____    ______ ____
ROOT
ATOM      1  C   UNL     1       1.281   8.708  20.338  0.00  0.00    +0.000 C 
ATOM      2  O   UNL     1       1.569   9.032  19.189  0.00  0.00    +0.000 OA
ATOM      3  N   UNL     1       1.531   7.482  20.920  0.00  0.00    +0.000 N 
ATOM      4  C   UNL     1       2.166   6.504  20.201  0.00  0.00    +0.000 A 
ATOM      5  N   UNL     1       2.859   6.583  19.096  0.00  0.00    +0.000 NA
ATOM      6  C   UNL     1       3.281   5.305  18.729  0.00  0.00    +0.000 A 
ATOM      7  N   UNL     1       2.918   4.274  19.508  0.00  0.00    +0.000 NA
ATOM      8  S   UNL     1       2.054   4.908  20.788  0.00  0.00    +0.000 S 
ATOM      9  H   UNL     1       1.101   7.217  21.793  0.00  0.00    +0.000 HD
ENDROOT
BRANCH   6  10
ATOM     10  C   UNL     1       4.119   5.129  17.536  0.00  0.00    +0.000 A 
ATOM     11  C   UNL     1       4.563   6.243  16.806  0.00  0.00    +0.000 A 
ATOM     12  C   UNL     1       5.384   6.082  15.685  0.00  0.00    +0.000 A 
ATOM     13  C   UNL     1       5.762   4.802  15.283  0.00  0.00    +0.000 A 
ATOM     14 BR   UNL     1       6.876   4.581  13.773  0.00  0.00    +0.000 Br
ATOM     15  C   UNL     1       5.327   3.684  15.989  0.00  0.00    +0.000 A 
ATOM     16  C   UNL     1       4.509   3.849  17.111  0.00  0.00    +0.000 A 
ENDBRANCH   6  10
BRANCH   1  20
ATOM     17  C   UNL     1      -1.048  11.392  22.754  0.00  0.00    +0.000 A 
ATOM     18  C   UNL     1      -0.808  10.077  23.153  0.00  0.00    +0.000 A 
ATOM     19  C   UNL     1      -0.024   9.238  22.366  0.00  0.00    +0.000 A 
ATOM     20  C   UNL     1       0.523   9.692  21.158  0.00  0.00    +0.000 A 
ATOM     21  C   UNL     1       0.276  11.010  20.749  0.00  0.00    +0.000 A 
ATOM     22  C   UNL     1      -0.511  11.851  21.548  0.00  0.00    +0.000 A 
BRANCH  17  24
ATOM     23  C   UNL     1      -3.184  12.330  23.123  0.00  0.00    +0.000 C 
ATOM     24  O   UNL     1      -1.857  12.114  23.588  0.00  0.00    +0.000 OA
ENDBRANCH  17  24
ENDBRANCH   1  20
TORSDOF 3
ENDMDL
MODEL 5
REMARK VINA RESULT:      -7.7      7.001      7.763
REMARK  Name = 
REMARK  4 active torsions:
REMARK  status: ('A' for Active; 'I' for Inactive)
REMARK    1  A    between atoms: C_1  and  O_2
REMARK    2  A    between atoms: O_2  and  C_3
REMARK    3  A    between atoms: C_6  and  C_7
REMARK    4  A    between atoms: C_12  and  C_13
REMARK                            x       y       z     vdW  Elec       q    Type
REMARK                         _______ _______ _______ _____ _____    ______ ____
ROOT
ATOM      1  C   UNL     1       8.556   9.309  18.243  0.00  0.00    +0.000 C 
ATOM      2  O   UNL     1       7.976   9.494  17.177  0.00  0.00    +0.000 OA
ATOM      3  N   UNL     1       8.648   8.109  18.917  0.00  0.00    +0.000 N 
ATOM      4  C   UNL     1       8.067   6.986  18.390  0.00  0.00    +0.000 A 
ATOM      5  N   UNL     1       7.640   6.746  17.178  0.00  0.00    +0.000 NA
ATOM      6  C   UNL     1       7.092   5.463  17.133  0.00  0.00    +0.000 A 
ATOM      7  N   UNL     1       7.079   4.743  18.266  0.00  0.00    +0.000 NA
ATOM      8  S   UNL     1       7.825   5.667  19.441  0.00  0.00    +0.000 S 
ATOM      9  H   UNL     1       8.969   8.065  19.872  0.00  0.00    +0.000 HD
ENDROOT
BRANCH   6  10
ATOM     10  C   UNL     1       6.577   4.935  15.864  0.00  0.00    +0.000 A 
ATOM     11  C   UNL     1       7.373   4.956  14.708  0.00  0.00    +0.000 A 
ATOM     12  C   UNL     1       6.898   4.428  13.503  0.00  0.00    +0.000 A 
ATOM     13  C   UNL     1       5.618   3.880  13.445  0.00  0.00    +0.000 A 
ATOM     14 BR   UNL     1       4.975   3.160  11.820  0.00  0.00    +0.000 Br
ATOM     15  C   UNL     1       4.810   3.856  14.579  0.00  0.00    +0.000 A 
ATOM     16  C   UNL     1       5.289   4.381  15.782  0.00  0.00    +0.000 A 
ENDBRANCH   6  10
BRANCH   1  20
ATOM     17  C   UNL     1      10.417  12.749  20.025  0.00  0.00    +0.000 A 
ATOM     18  C   UNL     1      10.240  12.651  18.644  0.00  0.00    +0.000 A 
ATOM     19  C   UNL     1       9.606  11.539  18.096  0.00  0.00    +0.000 A 
ATOM     20  C   UNL     1       9.149  10.497  18.915  0.00  0.00    +0.000 A 
ATOM     21  C   UNL     1       9.334  10.588  20.302  0.00  0.00    +0.000 A 
ATOM     22  C   UNL     1       9.969  11.712  20.848  0.00  0.00    +0.000 A 
BRANCH  17  24
ATOM     23  C   UNL     1      11.885  14.513  19.468  0.00  0.00    +0.000 C 
ATOM     24  O   UNL     1      11.080  13.868  20.447  0.00  0.00    +0.000 OA
ENDBRANCH  17  24
ENDBRANCH   1  20
TORSDOF 3
ENDMDL
MODEL 6
REMARK VINA RESULT:      -7.7      7.009      7.770
REMARK  Name = 
REMARK  4 active torsions:
REMARK  status: ('A' for Active; 'I' for Inactive)
REMARK    1  A    between atoms: C_1  and  O_2
REMARK    2  A    between atoms: O_2  and  C_3
REMARK    3  A    between atoms: C_6  and  C_7
REMARK    4  A    between atoms: C_12  and  C_13
REMARK                            x       y       z     vdW  Elec       q    Type
REMARK                         _______ _______ _______ _____ _____    ______ ____
ROOT
ATOM      1  C   UNL     1       8.541   9.271  18.221  0.00  0.00    +0.000 C 
ATOM      2  O   UNL     1       7.985   9.438  17.139  0.00  0.00    +0.000 OA
ATOM      3  N   UNL     1       8.616   8.082  18.917  0.00  0.00    +0.000 N 
ATOM      4  C   UNL     1       8.046   6.950  18.395  0.00  0.00    +0.000 A 
ATOM      5  N   UNL     1       7.646   6.691  17.178  0.00  0.00    +0.000 NA
ATOM      6  C   UNL     1       7.098   5.408  17.142  0.00  0.00    +0.000 A 
ATOM      7  N   UNL     1       7.059   4.707  18.287  0.00  0.00    +0.000 NA
ATOM      8  S   UNL     1       7.778   5.650  19.462  0.00  0.00    +0.000 S 
ATOM      9  H   UNL     1       8.915   8.054  19.879  0.00  0.00    +0.000 HD
ENDROOT
BRANCH   6  10
ATOM     10  C   UNL     1       6.611   4.859  15.871  0.00  0.00    +0.000 A 
ATOM     11  C   UNL     1       5.371   4.201  15.807  0.00  0.00    +0.000 A 
ATOM     12  C   UNL     1       4.890   3.700  14.593  0.00  0.00    +0.000 A 
ATOM     13  C   UNL     1       5.650   3.849  13.435  0.00  0.00    +0.000 A 
ATOM     14 BR   UNL     1       4.999   3.178  11.791  0.00  0.00    +0.000 Br
ATOM     15  C   UNL     1       6.884   4.491  13.478  0.00  0.00    +0.000 A 
ATOM     16  C   UNL     1       7.361   4.994  14.692  0.00  0.00    +0.000 A 
ENDBRANCH   6  10
BRANCH   1  20
ATOM     17  C   UNL     1      10.357  12.746  19.980  0.00  0.00    +0.000 A 
ATOM     18  C   UNL     1      10.146  12.653  18.603  0.00  0.00    +0.000 A 
ATOM     19  C   UNL     1       9.527  11.529  18.064  0.00  0.00    +0.000 A 
ATOM     20  C   UNL     1       9.120  10.469  18.886  0.00  0.00    +0.000 A 
ATOM     21  C   UNL     1       9.339  10.555  20.269  0.00  0.00    +0.000 A 
ATOM     22  C   UNL     1       9.959  11.692  20.807  0.00  0.00    +0.000 A 
BRANCH  17  24
ATOM     23  C   UNL     1      11.979  14.393  19.497  0.00  0.00    +0.000 C 
ATOM     24  O   UNL     1      11.001  13.879  20.393  0.00  0.00    +0.000 OA
ENDBRANCH  17  24
ENDBRANCH   1  20
TORSDOF 3
ENDMDL
MODEL 7
REMARK VINA RESULT:      -7.4      7.025      7.593
REMARK  Name = 
REMARK  4 active torsions:
REMARK  status: ('A' for Active; 'I' for Inactive)
REMARK    1  A    between atoms: C_1  and  O_2
REMARK    2  A    between atoms: O_2  and  C_3
REMARK    3  A    between atoms: C_6  and  C_7
REMARK    4  A    between atoms: C_12  and  C_13
REMARK                            x       y       z     vdW  Elec       q    Type
REMARK                         _______ _______ _______ _____ _____    ______ ____
ROOT
ATOM      1  C   UNL     1       8.469   9.374  18.160  0.00  0.00    +0.000 C 
ATOM      2  O   UNL     1       7.880   9.526  17.094  0.00  0.00    +0.000 OA
ATOM      3  N   UNL     1       8.605   8.185  18.846  0.00  0.00    +0.000 N 
ATOM      4  C   UNL     1       8.063   7.036  18.332  0.00  0.00    +0.000 A 
ATOM      5  N   UNL     1       7.643   6.768  17.124  0.00  0.00    +0.000 NA
ATOM      6  C   UNL     1       7.141   5.466  17.094  0.00  0.00    +0.000 A 
ATOM      7  N   UNL     1       7.157   4.758  18.235  0.00  0.00    +0.000 NA
ATOM      8  S   UNL     1       7.870   5.720  19.398  0.00  0.00    +0.000 S 
ATOM      9  H   UNL     1       8.929   8.163  19.801  0.00  0.00    +0.000 HD
ENDROOT
BRANCH   6  10
ATOM     10  C   UNL     1       6.643   4.906  15.832  0.00  0.00    +0.000 A 
ATOM     11  C   UNL     1       7.387   5.042  14.649  0.00  0.00    +0.000 A 
ATOM     12  C   UNL     1       6.931   4.487  13.449  0.00  0.00    +0.000 A 
ATOM     13  C   UNL     1       5.722   3.795  13.424  0.00  0.00    +0.000 A 
ATOM     14 BR   UNL     1       5.105   3.036  11.806  0.00  0.00    +0.000 Br
ATOM     15  C   UNL     1       4.965   3.654  14.584  0.00  0.00    +0.000 A 
ATOM     16  C   UNL     1       5.426   4.208  15.782  0.00  0.00    +0.000 A 
ENDBRANCH   6  10
BRANCH   1  20
ATOM     17  C   UNL     1       9.955  12.828  20.240  0.00  0.00    +0.000 A 
ATOM     18  C   UNL     1       9.865  11.584  20.867  0.00  0.00    +0.000 A 
ATOM     19  C   UNL     1       9.409  10.475  20.160  0.00  0.00    +0.000 A 
ATOM     20  C   UNL     1       9.020  10.589  18.818  0.00  0.00    +0.000 A 
ATOM     21  C   UNL     1       9.101  11.839  18.188  0.00  0.00    +0.000 A 
ATOM     22  C   UNL     1       9.565  12.951  18.904  0.00  0.00    +0.000 A 
BRANCH  17  24
ATOM     23  C   UNL     1      11.157  14.854  20.393  0.00  0.00    +0.000 C 
ATOM     24  O   UNL     1      10.385  13.850  21.040  0.00  0.00    +0.000 OA
ENDBRANCH  17  24
ENDBRANCH   1  20
TORSDOF 3
ENDMDL
MODEL 8
REMARK VINA RESULT:      -7.4      6.984      7.454
REMARK  Name = 
REMARK  4 active torsions:
REMARK  status: ('A' for Active; 'I' for Inactive)
REMARK    1  A    between atoms: C_1  and  O_2
REMARK    2  A    between atoms: O_2  and  C_3
REMARK    3  A    between atoms: C_6  and  C_7
REMARK    4  A    between atoms: C_12  and  C_13
REMARK                            x       y       z     vdW  Elec       q    Type
REMARK                         _______ _______ _______ _____ _____    ______ ____
ROOT
ATOM      1  C   UNL     1       8.478   9.331  18.194  0.00  0.00    +0.000 C 
ATOM      2  O   UNL     1       7.901   9.485  17.121  0.00  0.00    +0.000 OA
ATOM      3  N   UNL     1       8.594   8.144  18.886  0.00  0.00    +0.000 N 
ATOM      4  C   UNL     1       8.045   6.998  18.372  0.00  0.00    +0.000 A 
ATOM      5  N   UNL     1       7.633   6.730  17.161  0.00  0.00    +0.000 NA
ATOM      6  C   UNL     1       7.117   5.434  17.131  0.00  0.00    +0.000 A 
ATOM      7  N   UNL     1       7.114   4.730  18.276  0.00  0.00    +0.000 NA
ATOM      8  S   UNL     1       7.827   5.690  19.441  0.00  0.00    +0.000 S 
ATOM      9  H   UNL     1       8.908   8.122  19.844  0.00  0.00    +0.000 HD
ENDROOT
BRANCH   6  10
ATOM     10  C   UNL     1       6.625   4.874  15.867  0.00  0.00    +0.000 A 
ATOM     11  C   UNL     1       5.392   4.202  15.817  0.00  0.00    +0.000 A 
ATOM     12  C   UNL     1       4.906   3.690  14.610  0.00  0.00    +0.000 A 
ATOM     13  C   UNL     1       5.653   3.842  13.444  0.00  0.00    +0.000 A 
ATOM     14 BR   UNL     1       4.996   3.157  11.809  0.00  0.00    +0.000 Br
ATOM     15  C   UNL     1       6.881   4.498  13.473  0.00  0.00    +0.000 A 
ATOM     16  C   UNL     1       7.363   5.011  14.681  0.00  0.00    +0.000 A 
ENDBRANCH   6  10
BRANCH   1  20
ATOM     17  C   UNL     1       9.976  12.782  20.271  0.00  0.00    +0.000 A 
ATOM     18  C   UNL     1       9.824  11.553  20.916  0.00  0.00    +0.000 A 
ATOM     19  C   UNL     1       9.366  10.444  20.210  0.00  0.00    +0.000 A 
ATOM     20  C   UNL     1       9.036  10.543  18.852  0.00  0.00    +0.000 A 
ATOM     21  C   UNL     1       9.178  11.778  18.203  0.00  0.00    +0.000 A 
ATOM     22  C   UNL     1       9.644  12.891  18.917  0.00  0.00    +0.000 A 
BRANCH  17  24
ATOM     23  C   UNL     1       9.397  14.430  21.860  0.00  0.00    +0.000 C 
ATOM     24  O   UNL     1      10.401  13.808  21.069  0.00  0.00    +0.000 OA
ENDBRANCH  17  24
ENDBRANCH   1  20
TORSDOF 3
ENDMDL
MODEL 9
REMARK VINA RESULT:      -7.3      1.092      1.625
REMARK  Name = 
REMARK  4 active torsions:
REMARK  status: ('A' for Active; 'I' for Inactive)
REMARK    1  A    between atoms: C_1  and  O_2
REMARK    2  A    between atoms: O_2  and  C_3
REMARK    3  A    between atoms: C_6  and  C_7
REMARK    4  A    between atoms: C_12  and  C_13
REMARK                            x       y       z     vdW  Elec       q    Type
REMARK                         _______ _______ _______ _____ _____    ______ ____
ROOT
ATOM      1  C   UNL     1       1.890   8.086  19.794  0.00  0.00    +0.000 C 
ATOM      2  O   UNL     1       2.142   8.473  18.657  0.00  0.00    +0.000 OA
ATOM      3  N   UNL     1       2.273   6.879  20.341  0.00  0.00    +0.000 N 
ATOM      4  C   UNL     1       3.012   5.997  19.596  0.00  0.00    +0.000 A 
ATOM      5  N   UNL     1       3.691   6.185  18.496  0.00  0.00    +0.000 NA
ATOM      6  C   UNL     1       4.251   4.972  18.093  0.00  0.00    +0.000 A 
ATOM      7  N   UNL     1       4.003   3.884  18.841  0.00  0.00    +0.000 NA
ATOM      8  S   UNL     1       3.074   4.382  20.136  0.00  0.00    +0.000 S 
ATOM      9  H   UNL     1       1.875   6.543  21.205  0.00  0.00    +0.000 HD
ENDROOT
BRANCH   6  10
ATOM     10  C   UNL     1       5.103   4.923  16.899  0.00  0.00    +0.000 A 
ATOM     11  C   UNL     1       4.592   4.455  15.677  0.00  0.00    +0.000 A 
ATOM     12  C   UNL     1       5.391   4.432  14.530  0.00  0.00    +0.000 A 
ATOM     13  C   UNL     1       6.711   4.872  14.598  0.00  0.00    +0.000 A 
ATOM     14 BR   UNL     1       7.792   4.848  13.048  0.00  0.00    +0.000 Br
ATOM     15  C   UNL     1       7.240   5.333  15.801  0.00  0.00    +0.000 A 
ATOM     16  C   UNL     1       6.437   5.358  16.945  0.00  0.00    +0.000 A 
ENDBRANCH   6  10
BRANCH   1  20
ATOM     17  C   UNL     1      -0.644  10.427  22.356  0.00  0.00    +0.000 A 
ATOM     18  C   UNL     1       0.197   9.440  22.871  0.00  0.00    +0.000 A 
ATOM     19  C   UNL     1       1.031   8.718  22.021  0.00  0.00    +0.000 A 
ATOM     20  C   UNL     1       1.030   8.957  20.640  0.00  0.00    +0.000 A 
ATOM     21  C   UNL     1       0.178   9.942  20.118  0.00  0.00    +0.000 A 
ATOM     22  C   UNL     1      -0.655  10.669  20.980  0.00  0.00    +0.000 A 
BRANCH  17  24
ATOM     23  C   UNL     1      -2.025  12.276  22.858  0.00  0.00    +0.000 C 
ATOM     24  O   UNL     1      -1.441  11.049  23.278  0.00  0.00    +0.000 OA
ENDBRANCH  17  24
ENDBRANCH   1  20
TORSDOF 3
ENDMDL
