MODEL 1
REMARK VINA RESULT:      -6.8      0.000      0.000
REMARK  Name = 
REMARK  11 active torsions:
REMARK  status: ('A' for Active; 'I' for Inactive)
REMARK    1  A    between atoms: C_1  and  N_2
REMARK    2  A    between atoms: N_2  and  C_3
REMARK    3  A    between atoms: N_2  and  C_4
REMARK    4  A    between atoms: C_4  and  C_5
REMARK    5  A    between atoms: C_4  and  C_16
REMARK    6  A    between atoms: N_7  and  C_8
REMARK    7  A    between atoms: C_8  and  C_9
REMARK    8  A    between atoms: C_9  and  S_10
REMARK    9  A    between atoms: S_10  and  N_13
REMARK   10  A    between atoms: N_13  and  C_14
REMARK   11  A    between atoms: N_13  and  C_15
REMARK                            x       y       z     vdW  Elec       q    Type
REMARK                         _______ _______ _______ _____ _____    ______ ____
ROOT
ATOM      1  C   UNL     1       5.021   5.676  16.522  0.00  0.00    +0.000 C 
ATOM      2  O   UNL     1       4.698   6.697  15.909  0.00  0.00    +0.000 OA
ATOM      3  N   UNL     1       4.231   5.231  17.574  0.00  0.00    +0.000 N 
ATOM      4  H   UNL     1       4.422   4.295  17.936  0.00  0.00    +0.000 HD
ENDROOT
BRANCH   1   5
ATOM      5  C   UNL     1       6.332   4.854  16.241  0.00  0.00    +0.000 C 
BRANCH   5   6
ATOM      6  C   UNL     1       6.617   4.629  14.748  0.00  0.00    +0.000 A 
ATOM      7  C   UNL     1       7.615   5.350  14.064  0.00  0.00    +0.000 A 
ATOM      8  C   UNL     1       7.816   5.187  12.691  0.00  0.00    +0.000 A 
ATOM      9  C   UNL     1       7.044   4.271  11.983  0.00  0.00    +0.000 A 
ATOM     10  C   UNL     1       6.088   3.519  12.656  0.00  0.00    +0.000 A 
ATOM     11  F   UNL     1       5.359   2.627  11.974  0.00  0.00    +0.000 F 
ATOM     12  C   UNL     1       5.868   3.687  14.021  0.00  0.00    +0.000 A 
ENDBRANCH   5   6
BRANCH   5  14
ATOM     13  C   UNL     1       7.419   6.776  17.360  0.00  0.00    +0.000 C 
ATOM     14  N   UNL     1       7.543   5.380  16.944  0.00  0.00    +0.000 NA
ATOM     15  C   UNL     1       7.955   4.546  18.075  0.00  0.00    +0.000 C 
ENDBRANCH   5  14
ENDBRANCH   1   5
BRANCH   3  16
ATOM     16  C   UNL     1       2.871   5.727  17.689  0.00  0.00    +0.000 C 
BRANCH  16  17
ATOM     17  C   UNL     1       1.849   4.647  17.979  0.00  0.00    +0.000 C 
BRANCH  17  18
ATOM     18  S   UNL     1       2.079   4.012  19.630  0.00  0.00    +0.000 S 
ATOM     19  O   UNL     1       3.021   4.859  20.334  0.00  0.00    +0.000 OA
ATOM     20  O   UNL     1       0.767   3.746  20.181  0.00  0.00    +0.000 OA
BRANCH  18  21
ATOM     21  N   UNL     1       2.847   2.511  19.364  0.00  0.00    +0.000 NA
ATOM     22  C   UNL     1       2.812   2.018  17.969  0.00  0.00    +0.000 C 
ATOM     23  C   UNL     1       4.234   2.485  19.899  0.00  0.00    +0.000 C 
ENDBRANCH  18  21
ENDBRANCH  17  18
ENDBRANCH  16  17
ENDBRANCH   3  16
TORSDOF 7
ENDMDL
MODEL 2
REMARK VINA RESULT:      -6.8      1.290      1.426
REMARK  Name = 
REMARK  11 active torsions:
REMARK  status: ('A' for Active; 'I' for Inactive)
REMARK    1  A    between atoms: C_1  and  N_2
REMARK    2  A    between atoms: N_2  and  C_3
REMARK    3  A    between atoms: N_2  and  C_4
REMARK    4  A    between atoms: C_4  and  C_5
REMARK    5  A    between atoms: C_4  and  C_16
REMARK    6  A    between atoms: N_7  and  C_8
REMARK    7  A    between atoms: C_8  and  C_9
REMARK    8  A    between atoms: C_9  and  S_10
REMARK    9  A    between atoms: S_10  and  N_13
REMARK   10  A    between atoms: N_13  and  C_14
REMARK   11  A    between atoms: N_13  and  C_15
REMARK                            x       y       z     vdW  Elec       q    Type
REMARK                         _______ _______ _______ _____ _____    ______ ____
ROOT
ATOM      1  C   UNL     1       5.140   6.106  16.313  0.00  0.00    +0.000 C 
ATOM      2  O   UNL     1       4.789   6.930  15.463  0.00  0.00    +0.000 OA
ATOM      3  N   UNL     1       4.517   6.098  17.554  0.00  0.00    +0.000 N 
ATOM      4  H   UNL     1       4.699   5.297  18.160  0.00  0.00    +0.000 HD
ENDROOT
BRANCH   1   5
ATOM      5  C   UNL     1       6.317   5.082  16.118  0.00  0.00    +0.000 C 
BRANCH   5   6
ATOM      6  C   UNL     1       6.625   4.760  14.647  0.00  0.00    +0.000 A 
ATOM      7  C   UNL     1       7.642   5.426  13.937  0.00  0.00    +0.000 A 
ATOM      8  C   UNL     1       7.864   5.175  12.580  0.00  0.00    +0.000 A 
ATOM      9  C   UNL     1       7.094   4.224  11.918  0.00  0.00    +0.000 A 
ATOM     10  C   UNL     1       6.119   3.525  12.620  0.00  0.00    +0.000 A 
ATOM     11  F   UNL     1       5.392   2.599  11.983  0.00  0.00    +0.000 F 
ATOM     12  C   UNL     1       5.877   3.781  13.968  0.00  0.00    +0.000 A 
ENDBRANCH   5   6
BRANCH   5  14
ATOM     13  C   UNL     1       7.592   6.825  17.327  0.00  0.00    +0.000 C 
ATOM     14  N   UNL     1       7.565   5.440  16.860  0.00  0.00    +0.000 NA
ATOM     15  C   UNL     1       7.856   4.523  17.965  0.00  0.00    +0.000 C 
ENDBRANCH   5  14
ENDBRANCH   1   5
BRANCH   3  16
ATOM     16  C   UNL     1       3.239   6.770  17.703  0.00  0.00    +0.000 C 
BRANCH  16  17
ATOM     17  C   UNL     1       2.301   6.092  18.680  0.00  0.00    +0.000 C 
BRANCH  17  18
ATOM     18  S   UNL     1       2.677   4.351  18.784  0.00  0.00    +0.000 S 
ATOM     19  O   UNL     1       2.772   3.808  17.445  0.00  0.00    +0.000 OA
ATOM     20  O   UNL     1       3.767   4.198  19.724  0.00  0.00    +0.000 OA
BRANCH  18  21
ATOM     21  N   UNL     1       1.275   3.695  19.501  0.00  0.00    +0.000 NA
ATOM     22  C   UNL     1       0.716   2.500  18.829  0.00  0.00    +0.000 C 
ATOM     23  C   UNL     1       1.449   3.448  20.958  0.00  0.00    +0.000 C 
ENDBRANCH  18  21
ENDBRANCH  17  18
ENDBRANCH  16  17
ENDBRANCH   3  16
TORSDOF 7
ENDMDL
MODEL 3
REMARK VINA RESULT:      -6.8      1.300      1.880
REMARK  Name = 
REMARK  11 active torsions:
REMARK  status: ('A' for Active; 'I' for Inactive)
REMARK    1  A    between atoms: C_1  and  N_2
REMARK    2  A    between atoms: N_2  and  C_3
REMARK    3  A    between atoms: N_2  and  C_4
REMARK    4  A    between atoms: C_4  and  C_5
REMARK    5  A    between atoms: C_4  and  C_16
REMARK    6  A    between atoms: N_7  and  C_8
REMARK    7  A    between atoms: C_8  and  C_9
REMARK    8  A    between atoms: C_9  and  S_10
REMARK    9  A    between atoms: S_10  and  N_13
REMARK   10  A    between atoms: N_13  and  C_14
REMARK   11  A    between atoms: N_13  and  C_15
REMARK                            x       y       z     vdW  Elec       q    Type
REMARK                         _______ _______ _______ _____ _____    ______ ____
ROOT
ATOM      1  C   UNL     1       4.958   5.861  16.729  0.00  0.00    +0.000 C 
ATOM      2  O   UNL     1       4.595   6.820  16.041  0.00  0.00    +0.000 OA
ATOM      3  N   UNL     1       4.274   5.563  17.899  0.00  0.00    +0.000 N 
ATOM      4  H   UNL     1       4.480   4.666  18.343  0.00  0.00    +0.000 HD
ENDROOT
BRANCH   1   5
ATOM      5  C   UNL     1       6.213   4.968  16.409  0.00  0.00    +0.000 C 
BRANCH   5   6
ATOM      6  C   UNL     1       6.430   4.716  14.908  0.00  0.00    +0.000 A 
ATOM      7  C   UNL     1       5.671   3.769  14.195  0.00  0.00    +0.000 A 
ATOM      8  C   UNL     1       5.928   3.498  12.848  0.00  0.00    +0.000 A 
ATOM      9  C   UNL     1       6.926   4.200  12.180  0.00  0.00    +0.000 A 
ATOM     10  C   UNL     1       7.650   5.172  12.861  0.00  0.00    +0.000 A 
ATOM     11  F   UNL     1       8.599   5.857  12.209  0.00  0.00    +0.000 F 
ATOM     12  C   UNL     1       7.415   5.436  14.208  0.00  0.00    +0.000 A 
ENDBRANCH   5   6
BRANCH   5  14
ATOM     13  C   UNL     1       7.426   6.828  17.503  0.00  0.00    +0.000 C 
ATOM     14  N   UNL     1       7.474   5.435  17.062  0.00  0.00    +0.000 NA
ATOM     15  C   UNL     1       7.903   4.567  18.160  0.00  0.00    +0.000 C 
ENDBRANCH   5  14
ENDBRANCH   1   5
BRANCH   3  16
ATOM     16  C   UNL     1       2.945   6.114  18.097  0.00  0.00    +0.000 C 
BRANCH  16  17
ATOM     17  C   UNL     1       2.142   5.408  19.169  0.00  0.00    +0.000 C 
BRANCH  17  18
ATOM     18  S   UNL     1       1.807   3.726  18.677  0.00  0.00    +0.000 S 
ATOM     19  O   UNL     1       0.810   3.165  19.566  0.00  0.00    +0.000 OA
ATOM     20  O   UNL     1       1.605   3.725  17.243  0.00  0.00    +0.000 OA
BRANCH  18  21
ATOM     21  N   UNL     1       3.281   2.929  18.997  0.00  0.00    +0.000 NA
ATOM     22  C   UNL     1       3.534   2.606  20.419  0.00  0.00    +0.000 C 
ATOM     23  C   UNL     1       3.469   1.727  18.141  0.00  0.00    +0.000 C 
ENDBRANCH  18  21
ENDBRANCH  17  18
ENDBRANCH  16  17
ENDBRANCH   3  16
TORSDOF 7
ENDMDL
MODEL 4
REMARK VINA RESULT:      -6.8      1.189      1.455
REMARK  Name = 
REMARK  11 active torsions:
REMARK  status: ('A' for Active; 'I' for Inactive)
REMARK    1  A    between atoms: C_1  and  N_2
REMARK    2  A    between atoms: N_2  and  C_3
REMARK    3  A    between atoms: N_2  and  C_4
REMARK    4  A    between atoms: C_4  and  C_5
REMARK    5  A    between atoms: C_4  and  C_16
REMARK    6  A    between atoms: N_7  and  C_8
REMARK    7  A    between atoms: C_8  and  C_9
REMARK    8  A    between atoms: C_9  and  S_10
REMARK    9  A    between atoms: S_10  and  N_13
REMARK   10  A    between atoms: N_13  and  C_14
REMARK   11  A    between atoms: N_13  and  C_15
REMARK                            x       y       z     vdW  Elec       q    Type
REMARK                         _______ _______ _______ _____ _____    ______ ____
ROOT
ATOM      1  C   UNL     1       4.991   5.545  16.662  0.00  0.00    +0.000 C 
ATOM      2  O   UNL     1       4.578   6.521  16.029  0.00  0.00    +0.000 OA
ATOM      3  N   UNL     1       4.285   5.103  17.773  0.00  0.00    +0.000 N 
ATOM      4  H   UNL     1       4.547   4.194  18.159  0.00  0.00    +0.000 HD
ENDROOT
BRANCH   1   5
ATOM      5  C   UNL     1       6.328   4.783  16.339  0.00  0.00    +0.000 C 
BRANCH   5   6
ATOM      6  C   UNL     1       6.582   4.583  14.836  0.00  0.00    +0.000 A 
ATOM      7  C   UNL     1       7.607   5.270  14.157  0.00  0.00    +0.000 A 
ATOM      8  C   UNL     1       7.782   5.133  12.777  0.00  0.00    +0.000 A 
ATOM      9  C   UNL     1       6.956   4.276  12.058  0.00  0.00    +0.000 A 
ATOM     10  C   UNL     1       5.971   3.556  12.724  0.00  0.00    +0.000 A 
ATOM     11  F   UNL     1       5.189   2.719  12.030  0.00  0.00    +0.000 F 
ATOM     12  C   UNL     1       5.777   3.699  14.096  0.00  0.00    +0.000 A 
ENDBRANCH   5   6
BRANCH   5  14
ATOM     13  C   UNL     1       7.391   6.767  17.368  0.00  0.00    +0.000 C 
ATOM     14  N   UNL     1       7.533   5.355  17.014  0.00  0.00    +0.000 NA
ATOM     15  C   UNL     1       7.958   4.578  18.179  0.00  0.00    +0.000 C 
ENDBRANCH   5  14
ENDBRANCH   1   5
BRANCH   3  16
ATOM     16  C   UNL     1       2.908   5.529  17.946  0.00  0.00    +0.000 C 
BRANCH  16  17
ATOM     17  C   UNL     1       1.890   4.446  17.655  0.00  0.00    +0.000 C 
BRANCH  17  18
ATOM     18  S   UNL     1       2.407   2.905  18.392  0.00  0.00    +0.000 S 
ATOM     19  O   UNL     1       1.236   2.097  18.665  0.00  0.00    +0.000 OA
ATOM     20  O   UNL     1       3.497   2.385  17.594  0.00  0.00    +0.000 OA
BRANCH  18  21
ATOM     21  N   UNL     1       3.050   3.393  19.896  0.00  0.00    +0.000 NA
ATOM     22  C   UNL     1       2.054   3.640  20.963  0.00  0.00    +0.000 C 
ATOM     23  C   UNL     1       4.121   2.479  20.375  0.00  0.00    +0.000 C 
ENDBRANCH  18  21
ENDBRANCH  17  18
ENDBRANCH  16  17
ENDBRANCH   3  16
TORSDOF 7
ENDMDL
MODEL 5
REMARK VINA RESULT:      -6.7      3.237      6.746
REMARK  Name = 
REMARK  11 active torsions:
REMARK  status: ('A' for Active; 'I' for Inactive)
REMARK    1  A    between atoms: C_1  and  N_2
REMARK    2  A    between atoms: N_2  and  C_3
REMARK    3  A    between atoms: N_2  and  C_4
REMARK    4  A    between atoms: C_4  and  C_5
REMARK    5  A    between atoms: C_4  and  C_16
REMARK    6  A    between atoms: N_7  and  C_8
REMARK    7  A    between atoms: C_8  and  C_9
REMARK    8  A    between atoms: C_9  and  S_10
REMARK    9  A    between atoms: S_10  and  N_13
REMARK   10  A    between atoms: N_13  and  C_14
REMARK   11  A    between atoms: N_13  and  C_15
REMARK                            x       y       z     vdW  Elec       q    Type
REMARK                         _______ _______ _______ _____ _____    ______ ____
ROOT
ATOM      1  C   UNL     1       3.854   4.009  19.654  0.00  0.00    +0.000 C 
ATOM      2  O   UNL     1       4.229   2.882  19.989  0.00  0.00    +0.000 OA
ATOM      3  N   UNL     1       4.796   5.005  19.433  0.00  0.00    +0.000 N 
ATOM      4  H   UNL     1       4.470   5.862  18.983  0.00  0.00    +0.000 HD
ENDROOT
BRANCH   1   5
ATOM      5  C   UNL     1       2.346   4.436  19.519  0.00  0.00    +0.000 C 
BRANCH   5   6
ATOM      6  C   UNL     1       2.127   5.957  19.528  0.00  0.00    +0.000 A 
ATOM      7  C   UNL     1       1.712   6.642  20.686  0.00  0.00    +0.000 A 
ATOM      8  C   UNL     1       1.448   8.014  20.662  0.00  0.00    +0.000 A 
ATOM      9  C   UNL     1       1.630   8.733  19.485  0.00  0.00    +0.000 A 
ATOM     10  C   UNL     1       2.085   8.076  18.347  0.00  0.00    +0.000 A 
ATOM     11  F   UNL     1       2.275   8.775  17.221  0.00  0.00    +0.000 F 
ATOM     12  C   UNL     1       2.334   6.706  18.356  0.00  0.00    +0.000 A 
ENDBRANCH   5   6
BRANCH   5  14
ATOM     13  C   UNL     1       2.515   3.442  17.258  0.00  0.00    +0.000 C 
ATOM     14  N   UNL     1       1.634   3.799  18.369  0.00  0.00    +0.000 NA
ATOM     15  C   UNL     1       0.823   2.646  18.767  0.00  0.00    +0.000 C 
ENDBRANCH   5  14
ENDBRANCH   1   5
BRANCH   3  16
ATOM     16  C   UNL     1       6.182   4.627  19.221  0.00  0.00    +0.000 C 
BRANCH  16  17
ATOM     17  C   UNL     1       7.058   5.760  18.728  0.00  0.00    +0.000 C 
BRANCH  17  18
ATOM     18  S   UNL     1       7.263   5.651  16.959  0.00  0.00    +0.000 S 
ATOM     19  O   UNL     1       7.734   6.926  16.459  0.00  0.00    +0.000 OA
ATOM     20  O   UNL     1       7.990   4.431  16.680  0.00  0.00    +0.000 OA
BRANCH  18  21
ATOM     21  N   UNL     1       5.665   5.445  16.397  0.00  0.00    +0.000 NA
ATOM     22  C   UNL     1       4.983   6.680  15.950  0.00  0.00    +0.000 C 
ATOM     23  C   UNL     1       5.564   4.382  15.361  0.00  0.00    +0.000 C 
ENDBRANCH  18  21
ENDBRANCH  17  18
ENDBRANCH  16  17
ENDBRANCH   3  16
TORSDOF 7
ENDMDL
MODEL 6
REMARK VINA RESULT:      -6.6      3.771      6.987
REMARK  Name = 
REMARK  11 active torsions:
REMARK  status: ('A' for Active; 'I' for Inactive)
REMARK    1  A    between atoms: C_1  and  N_2
REMARK    2  A    between atoms: N_2  and  C_3
REMARK    3  A    between atoms: N_2  and  C_4
REMARK    4  A    between atoms: C_4  and  C_5
REMARK    5  A    between atoms: C_4  and  C_16
REMARK    6  A    between atoms: N_7  and  C_8
REMARK    7  A    between atoms: C_8  and  C_9
REMARK    8  A    between atoms: C_9  and  S_10
REMARK    9  A    between atoms: S_10  and  N_13
REMARK   10  A    between atoms: N_13  and  C_14
REMARK   11  A    between atoms: N_13  and  C_15
REMARK                            x       y       z     vdW  Elec       q    Type
REMARK                         _______ _______ _______ _____ _____    ______ ____
ROOT
ATOM      1  C   UNL     1       3.379   4.067  18.398  0.00  0.00    +0.000 C 
ATOM      2  O   UNL     1       2.556   3.451  17.716  0.00  0.00    +0.000 OA
ATOM      3  N   UNL     1       4.719   4.048  18.034  0.00  0.00    +0.000 N 
ATOM      4  H   UNL     1       5.339   4.709  18.505  0.00  0.00    +0.000 HD
ENDROOT
BRANCH   1   5
ATOM      5  C   UNL     1       3.030   4.837  19.725  0.00  0.00    +0.000 C 
BRANCH   5   6
ATOM      6  C   UNL     1       2.482   6.255  19.495  0.00  0.00    +0.000 A 
ATOM      7  C   UNL     1       2.524   6.872  18.230  0.00  0.00    +0.000 A 
ATOM      8  C   UNL     1       2.088   8.188  18.050  0.00  0.00    +0.000 A 
ATOM      9  C   UNL     1       1.568   8.897  19.128  0.00  0.00    +0.000 A 
ATOM     10  C   UNL     1       1.477   8.282  20.371  0.00  0.00    +0.000 A 
ATOM     11  F   UNL     1       0.960   8.963  21.402  0.00  0.00    +0.000 F 
ATOM     12  C   UNL     1       1.926   6.978  20.565  0.00  0.00    +0.000 A 
ENDBRANCH   5   6
BRANCH   5  14
ATOM     13  C   UNL     1       0.823   3.789  20.120  0.00  0.00    +0.000 C 
ATOM     14  N   UNL     1       2.153   4.070  20.660  0.00  0.00    +0.000 NA
ATOM     15  C   UNL     1       2.776   2.837  21.147  0.00  0.00    +0.000 C 
ENDBRANCH   5  14
ENDBRANCH   1   5
BRANCH   3  16
ATOM     16  C   UNL     1       5.074   3.648  16.684  0.00  0.00    +0.000 C 
BRANCH  16  17
ATOM     17  C   UNL     1       5.473   4.801  15.788  0.00  0.00    +0.000 C 
BRANCH  17  18
ATOM     18  S   UNL     1       7.174   5.251  16.085  0.00  0.00    +0.000 S 
ATOM     19  O   UNL     1       7.742   4.331  17.050  0.00  0.00    +0.000 OA
ATOM     20  O   UNL     1       7.801   5.454  14.797  0.00  0.00    +0.000 OA
BRANCH  18  21
ATOM     21  N   UNL     1       7.044   6.771  16.848  0.00  0.00    +0.000 NA
ATOM     22  C   UNL     1       5.669   7.305  16.975  0.00  0.00    +0.000 C 
ATOM     23  C   UNL     1       7.747   6.806  18.159  0.00  0.00    +0.000 C 
ENDBRANCH  18  21
ENDBRANCH  17  18
ENDBRANCH  16  17
ENDBRANCH   3  16
TORSDOF 7
ENDMDL
MODEL 7
REMARK VINA RESULT:      -6.6      1.932      2.598
REMARK  Name = 
REMARK  11 active torsions:
REMARK  status: ('A' for Active; 'I' for Inactive)
REMARK    1  A    between atoms: C_1  and  N_2
REMARK    2  A    between atoms: N_2  and  C_3
REMARK    3  A    between atoms: N_2  and  C_4
REMARK    4  A    between atoms: C_4  and  C_5
REMARK    5  A    between atoms: C_4  and  C_16
REMARK    6  A    between atoms: N_7  and  C_8
REMARK    7  A    between atoms: C_8  and  C_9
REMARK    8  A    between atoms: C_9  and  S_10
REMARK    9  A    between atoms: S_10  and  N_13
REMARK   10  A    between atoms: N_13  and  C_14
REMARK   11  A    between atoms: N_13  and  C_15
REMARK                            x       y       z     vdW  Elec       q    Type
REMARK                         _______ _______ _______ _____ _____    ______ ____
ROOT
ATOM      1  C   UNL     1       5.661   4.578  18.396  0.00  0.00    +0.000 C 
ATOM      2  O   UNL     1       4.790   5.408  18.673  0.00  0.00    +0.000 OA
ATOM      3  N   UNL     1       5.613   3.317  18.975  0.00  0.00    +0.000 N 
ATOM      4  H   UNL     1       6.233   2.604  18.588  0.00  0.00    +0.000 HD
ENDROOT
BRANCH   1   5
ATOM      5  C   UNL     1       6.894   4.869  17.464  0.00  0.00    +0.000 C 
BRANCH   5   6
ATOM      6  C   UNL     1       6.609   4.652  15.969  0.00  0.00    +0.000 A 
ATOM      7  C   UNL     1       5.453   3.985  15.522  0.00  0.00    +0.000 A 
ATOM      8  C   UNL     1       5.241   3.731  14.164  0.00  0.00    +0.000 A 
ATOM      9  C   UNL     1       6.168   4.174  13.225  0.00  0.00    +0.000 A 
ATOM     10  C   UNL     1       7.290   4.876  13.651  0.00  0.00    +0.000 A 
ATOM     11  F   UNL     1       8.170   5.314  12.742  0.00  0.00    +0.000 F 
ATOM     12  C   UNL     1       7.519   5.117  15.003  0.00  0.00    +0.000 A 
ENDBRANCH   5   6
BRANCH   5  14
ATOM     13  C   UNL     1       6.676   7.332  17.352  0.00  0.00    +0.000 C 
ATOM     14  N   UNL     1       7.534   6.200  17.699  0.00  0.00    +0.000 NA
ATOM     15  C   UNL     1       8.053   6.352  19.060  0.00  0.00    +0.000 C 
ENDBRANCH   5  14
ENDBRANCH   1   5
BRANCH   3  16
ATOM     16  C   UNL     1       4.369   2.866  19.573  0.00  0.00    +0.000 C 
BRANCH  16  17
ATOM     17  C   UNL     1       3.355   2.358  18.569  0.00  0.00    +0.000 C 
BRANCH  17  18
ATOM     18  S   UNL     1       1.782   3.161  18.825  0.00  0.00    +0.000 S 
ATOM     19  O   UNL     1       1.690   4.308  17.946  0.00  0.00    +0.000 OA
ATOM     20  O   UNL     1       0.763   2.134  18.812  0.00  0.00    +0.000 OA
BRANCH  18  21
ATOM     21  N   UNL     1       1.906   3.752  20.421  0.00  0.00    +0.000 NA
ATOM     22  C   UNL     1       1.507   5.165  20.609  0.00  0.00    +0.000 C 
ATOM     23  C   UNL     1       1.216   2.873  21.403  0.00  0.00    +0.000 C 
ENDBRANCH  18  21
ENDBRANCH  17  18
ENDBRANCH  16  17
ENDBRANCH   3  16
TORSDOF 7
ENDMDL
MODEL 8
REMARK VINA RESULT:      -6.5      1.944      2.494
REMARK  Name = 
REMARK  11 active torsions:
REMARK  status: ('A' for Active; 'I' for Inactive)
REMARK    1  A    between atoms: C_1  and  N_2
REMARK    2  A    between atoms: N_2  and  C_3
REMARK    3  A    between atoms: N_2  and  C_4
REMARK    4  A    between atoms: C_4  and  C_5
REMARK    5  A    between atoms: C_4  and  C_16
REMARK    6  A    between atoms: N_7  and  C_8
REMARK    7  A    between atoms: C_8  and  C_9
REMARK    8  A    between atoms: C_9  and  S_10
REMARK    9  A    between atoms: S_10  and  N_13
REMARK   10  A    between atoms: N_13  and  C_14
REMARK   11  A    between atoms: N_13  and  C_15
REMARK                            x       y       z     vdW  Elec       q    Type
REMARK                         _______ _______ _______ _____ _____    ______ ____
ROOT
ATOM      1  C   UNL     1       4.917   4.098  16.875  0.00  0.00    +0.000 C 
ATOM      2  O   UNL     1       3.981   4.902  16.876  0.00  0.00    +0.000 OA
ATOM      3  N   UNL     1       4.710   2.808  17.346  0.00  0.00    +0.000 N 
ATOM      4  H   UNL     1       5.445   2.122  17.162  0.00  0.00    +0.000 HD
ENDROOT
BRANCH   1   5
ATOM      5  C   UNL     1       6.385   4.450  16.434  0.00  0.00    +0.000 C 
BRANCH   5   6
ATOM      6  C   UNL     1       6.594   4.449  14.911  0.00  0.00    +0.000 A 
ATOM      7  C   UNL     1       5.826   3.635  14.056  0.00  0.00    +0.000 A 
ATOM      8  C   UNL     1       6.074   3.589  12.681  0.00  0.00    +0.000 A 
ATOM      9  C   UNL     1       7.073   4.387  12.132  0.00  0.00    +0.000 A 
ATOM     10  C   UNL     1       7.806   5.231  12.959  0.00  0.00    +0.000 A 
ATOM     11  F   UNL     1       8.755   6.009  12.424  0.00  0.00    +0.000 F 
ATOM     12  C   UNL     1       7.579   5.269  14.333  0.00  0.00    +0.000 A 
ENDBRANCH   5   6
BRANCH   5  14
ATOM     13  C   UNL     1       5.985   6.827  16.995  0.00  0.00    +0.000 C 
ATOM     14  N   UNL     1       6.920   5.705  17.046  0.00  0.00    +0.000 NA
ATOM     15  C   UNL     1       7.409   5.510  18.412  0.00  0.00    +0.000 C 
ENDBRANCH   5  14
ENDBRANCH   1   5
BRANCH   3  16
ATOM     16  C   UNL     1       3.350   2.313  17.463  0.00  0.00    +0.000 C 
BRANCH  16  17
ATOM     17  C   UNL     1       2.798   2.370  18.872  0.00  0.00    +0.000 C 
BRANCH  17  18
ATOM     18  S   UNL     1       1.138   3.025  18.854  0.00  0.00    +0.000 S 
ATOM     19  O   UNL     1       1.059   4.082  17.866  0.00  0.00    +0.000 OA
ATOM     20  O   UNL     1       0.227   1.901  18.810  0.00  0.00    +0.000 OA
BRANCH  18  21
ATOM     21  N   UNL     1       0.993   3.753  20.390  0.00  0.00    +0.000 NA
ATOM     22  C   UNL     1       1.410   2.913  21.535  0.00  0.00    +0.000 C 
ATOM     23  C   UNL     1       1.652   5.086  20.446  0.00  0.00    +0.000 C 
ENDBRANCH  18  21
ENDBRANCH  17  18
ENDBRANCH  16  17
ENDBRANCH   3  16
TORSDOF 7
ENDMDL
MODEL 9
REMARK VINA RESULT:      -6.5      1.591      2.016
REMARK  Name = 
REMARK  11 active torsions:
REMARK  status: ('A' for Active; 'I' for Inactive)
REMARK    1  A    between atoms: C_1  and  N_2
REMARK    2  A    between atoms: N_2  and  C_3
REMARK    3  A    between atoms: N_2  and  C_4
REMARK    4  A    between atoms: C_4  and  C_5
REMARK    5  A    between atoms: C_4  and  C_16
REMARK    6  A    between atoms: N_7  and  C_8
REMARK    7  A    between atoms: C_8  and  C_9
REMARK    8  A    between atoms: C_9  and  S_10
REMARK    9  A    between atoms: S_10  and  N_13
REMARK   10  A    between atoms: N_13  and  C_14
REMARK   11  A    between atoms: N_13  and  C_15
REMARK                            x       y       z     vdW  Elec       q    Type
REMARK                         _______ _______ _______ _____ _____    ______ ____
ROOT
ATOM      1  C   UNL     1       4.941   5.754  17.611  0.00  0.00    +0.000 C 
ATOM      2  O   UNL     1       4.344   6.645  17.000  0.00  0.00    +0.000 OA
ATOM      3  N   UNL     1       4.439   5.304  18.825  0.00  0.00    +0.000 N 
ATOM      4  H   UNL     1       4.847   4.451  19.210  0.00  0.00    +0.000 HD
ENDROOT
BRANCH   1   5
ATOM      5  C   UNL     1       6.301   5.118  17.143  0.00  0.00    +0.000 C 
BRANCH   5   6
ATOM      6  C   UNL     1       6.358   4.810  15.638  0.00  0.00    +0.000 A 
ATOM      7  C   UNL     1       5.382   4.017  15.004  0.00  0.00    +0.000 A 
ATOM      8  C   UNL     1       5.483   3.685  13.650  0.00  0.00    +0.000 A 
ATOM      9  C   UNL     1       6.547   4.173  12.897  0.00  0.00    +0.000 A 
ATOM     10  C   UNL     1       7.491   4.995  13.500  0.00  0.00    +0.000 A 
ATOM     11  F   UNL     1       8.504   5.475  12.768  0.00  0.00    +0.000 F 
ATOM     12  C   UNL     1       7.409   5.317  14.853  0.00  0.00    +0.000 A 
ENDBRANCH   5   6
BRANCH   5  14
ATOM     13  C   UNL     1       7.330   7.331  17.558  0.00  0.00    +0.000 C 
ATOM     14  N   UNL     1       7.511   5.880  17.579  0.00  0.00    +0.000 NA
ATOM     15  C   UNL     1       8.019   5.449  18.883  0.00  0.00    +0.000 C 
ENDBRANCH   5  14
ENDBRANCH   1   5
BRANCH   3  16
ATOM     16  C   UNL     1       3.057   5.594  19.165  0.00  0.00    +0.000 C 
BRANCH  16  17
ATOM     17  C   UNL     1       2.594   4.945  20.453  0.00  0.00    +0.000 C 
BRANCH  17  18
ATOM     18  S   UNL     1       2.679   3.169  20.310  0.00  0.00    +0.000 S 
ATOM     19  O   UNL     1       4.069   2.762  20.309  0.00  0.00    +0.000 OA
ATOM     20  O   UNL     1       1.744   2.611  21.264  0.00  0.00    +0.000 OA
BRANCH  18  21
ATOM     21  N   UNL     1       2.063   2.877  18.745  0.00  0.00    +0.000 NA
ATOM     22  C   UNL     1       2.950   2.105  17.846  0.00  0.00    +0.000 C 
ATOM     23  C   UNL     1       0.699   2.285  18.778  0.00  0.00    +0.000 C 
ENDBRANCH  18  21
ENDBRANCH  17  18
ENDBRANCH  16  17
ENDBRANCH   3  16
TORSDOF 7
ENDMDL
