MODEL 1
REMARK VINA RESULT:      -6.9      0.000      0.000
REMARK  Name = 
REMARK  7 active torsions:
REMARK  status: ('A' for Active; 'I' for Inactive)
REMARK    1  A    between atoms: C_1  and  C_2
REMARK    2  A    between atoms: C_2  and  C_3
REMARK    3  A    between atoms: C_2  and  C_4
REMARK    4  A    between atoms: C_4  and  C_5
REMARK    5  A    between atoms: C_5  and  N_6
REMARK    6  A    between atoms: N_15  and  C_16
REMARK    7  A    between atoms: C_24  and  C_25
REMARK                            x       y       z     vdW  Elec       q    Type
REMARK                         _______ _______ _______ _____ _____    ______ ____
ROOT
ATOM      1  N   UNL     1       0.240   9.813  19.169  0.00  0.00    +0.000 N 
ATOM      2  C   UNL     1      -0.215   9.426  17.933  0.00  0.00    +0.000 A 
ATOM      3  C   UNL     1      -1.412  10.063  17.814  0.00  0.00    +0.000 A 
ATOM      4  C   UNL     1      -1.615  10.790  18.988  0.00  0.00    +0.000 A 
ATOM      5  N   UNL     1      -2.742  11.605  19.230  0.00  0.00    +0.000 NA
ATOM      6  C   UNL     1      -3.604  11.652  18.245  0.00  0.00    +0.000 A 
ATOM      7  N   UNL     1      -4.777  12.393  18.284  0.00  0.00    +0.000 N 
ATOM      8  C   UNL     1      -5.333  13.142  19.303  0.00  0.00    +0.000 C 
ATOM      9  O   UNL     1      -6.434  13.662  19.149  0.00  0.00    +0.000 OA
ATOM     10  N   UNL     1      -4.615  13.218  20.462  0.00  0.00    +0.000 N 
ATOM     11  N   UNL     1      -3.462  10.961  17.012  0.00  0.00    +0.000 N 
ATOM     12  N   UNL     1      -4.275  11.012  15.928  0.00  0.00    +0.000 NA
ATOM     13  C   UNL     1      -3.614  10.192  15.074  0.00  0.00    +0.000 A 
ATOM     14  N   UNL     1      -2.461   9.623  15.577  0.00  0.00    +0.000 NA
ATOM     15  C   UNL     1      -2.398  10.148  16.765  0.00  0.00    +0.000 A 
ATOM     16  N   UNL     1      -0.601  10.652  19.836  0.00  0.00    +0.000 NA
ATOM     17  H   UNL     1      -5.376  12.353  17.463  0.00  0.00    +0.000 HD
ATOM     18  H   UNL     1      -3.643  12.924  20.407  0.00  0.00    +0.000 HD
ENDROOT
BRANCH  10  19
ATOM     19  C   UNL     1      -5.054  13.962  21.644  0.00  0.00    +0.000 C 
ATOM     20  C   UNL     1      -5.040  13.075  22.899  0.00  0.00    +0.000 C 
ATOM     21  C   UNL     1      -3.623  12.696  23.326  0.00  0.00    +0.000 C 
ATOM     22  C   UNL     1      -2.751  13.931  23.538  0.00  0.00    +0.000 C 
ATOM     23  C   UNL     1      -2.776  14.875  22.336  0.00  0.00    +0.000 C 
ATOM     24  C   UNL     1      -4.199  15.214  21.887  0.00  0.00    +0.000 C 
ENDBRANCH  10  19
BRANCH  13  25
ATOM     25  C   UNL     1      -4.016   9.910  13.658  0.00  0.00    +0.000 A 
ATOM     26  C   UNL     1      -3.139   9.812  12.589  0.00  0.00    +0.000 A 
ATOM     27  C   UNL     1      -3.912   9.575  11.432  0.00  0.00    +0.000 A 
ATOM     28  C   UNL     1      -5.221   9.549  11.858  0.00  0.00    +0.000 A 
ATOM     29  O   UNL     1      -5.294   9.736  13.200  0.00  0.00    +0.000 OA
ENDBRANCH  13  25
BRANCH   1  30
ATOM     30  C   UNL     1       1.509   9.425  19.754  0.00  0.00    +0.000 C 
BRANCH  30  31
ATOM     31  C   UNL     1       1.435   8.145  20.589  0.00  0.00    +0.000 C 
BRANCH  31  33
ATOM     32  C   UNL     1       1.782   5.620  20.475  0.00  0.00    +0.000 C 
ATOM     33  C   UNL     1       2.332   6.993  20.089  0.00  0.00    +0.000 C 
ATOM     34  C   UNL     1       2.489   7.079  18.570  0.00  0.00    +0.000 C 
ENDBRANCH  31  33
ENDBRANCH  30  31
ENDBRANCH   1  30
TORSDOF 5
ENDMDL
MODEL 2
REMARK VINA RESULT:      -6.8      2.725      6.647
REMARK  Name = 
REMARK  7 active torsions:
REMARK  status: ('A' for Active; 'I' for Inactive)
REMARK    1  A    between atoms: C_1  and  C_2
REMARK    2  A    between atoms: C_2  and  C_3
REMARK    3  A    between atoms: C_2  and  C_4
REMARK    4  A    between atoms: C_4  and  C_5
REMARK    5  A    between atoms: C_5  and  N_6
REMARK    6  A    between atoms: N_15  and  C_16
REMARK    7  A    between atoms: C_24  and  C_25
REMARK                            x       y       z     vdW  Elec       q    Type
REMARK                         _______ _______ _______ _____ _____    ______ ____
ROOT
ATOM      1  N   UNL     1      -1.352  13.450  22.620  0.00  0.00    +0.000 N 
ATOM      2  C   UNL     1      -0.413  12.511  22.273  0.00  0.00    +0.000 A 
ATOM      3  C   UNL     1      -0.883  11.999  21.104  0.00  0.00    +0.000 A 
ATOM      4  C   UNL     1      -2.084  12.651  20.816  0.00  0.00    +0.000 A 
ATOM      5  N   UNL     1      -2.860  12.408  19.663  0.00  0.00    +0.000 NA
ATOM      6  C   UNL     1      -2.360  11.515  18.845  0.00  0.00    +0.000 A 
ATOM      7  N   UNL     1      -2.970  11.132  17.658  0.00  0.00    +0.000 N 
ATOM      8  C   UNL     1      -4.188  11.495  17.116  0.00  0.00    +0.000 C 
ATOM      9  O   UNL     1      -4.575  10.969  16.077  0.00  0.00    +0.000 OA
ATOM     10  N   UNL     1      -4.917  12.410  17.820  0.00  0.00    +0.000 N 
ATOM     11  N   UNL     1      -1.137  10.823  19.054  0.00  0.00    +0.000 N 
ATOM     12  N   UNL     1      -0.528   9.939  18.225  0.00  0.00    +0.000 NA
ATOM     13  C   UNL     1       0.594   9.658  18.933  0.00  0.00    +0.000 A 
ATOM     14  N   UNL     1       0.696  10.295  20.154  0.00  0.00    +0.000 NA
ATOM     15  C   UNL     1      -0.383  11.021  20.170  0.00  0.00    +0.000 A 
ATOM     16  N   UNL     1      -2.387  13.557  21.740  0.00  0.00    +0.000 NA
ATOM     17  H   UNL     1      -2.494  10.426  17.102  0.00  0.00    +0.000 HD
ATOM     18  H   UNL     1      -4.417  12.919  18.545  0.00  0.00    +0.000 HD
ENDROOT
BRANCH  10  19
ATOM     19  C   UNL     1      -6.229  12.904  17.397  0.00  0.00    +0.000 C 
ATOM     20  C   UNL     1      -7.363  12.048  17.982  0.00  0.00    +0.000 C 
ATOM     21  C   UNL     1      -7.487  12.206  19.496  0.00  0.00    +0.000 C 
ATOM     22  C   UNL     1      -7.665  13.668  19.896  0.00  0.00    +0.000 C 
ATOM     23  C   UNL     1      -6.590  14.572  19.291  0.00  0.00    +0.000 C 
ATOM     24  C   UNL     1      -6.442  14.376  17.781  0.00  0.00    +0.000 C 
ENDBRANCH  10  19
BRANCH  13  25
ATOM     25  C   UNL     1       1.709   8.768  18.473  0.00  0.00    +0.000 A 
ATOM     26  C   UNL     1       2.158   7.644  19.150  0.00  0.00    +0.000 A 
ATOM     27  C   UNL     1       3.235   7.111  18.409  0.00  0.00    +0.000 A 
ATOM     28  C   UNL     1       3.390   7.945  17.325  0.00  0.00    +0.000 A 
ATOM     29  O   UNL     1       2.467   8.939  17.346  0.00  0.00    +0.000 OA
ENDBRANCH  13  25
BRANCH   1  30
ATOM     30  C   UNL     1      -1.288  14.308  23.788  0.00  0.00    +0.000 C 
BRANCH  30  31
ATOM     31  C   UNL     1      -1.832  15.718  23.546  0.00  0.00    +0.000 C 
BRANCH  31  33
ATOM     32  C   UNL     1      -3.792  16.440  25.012  0.00  0.00    +0.000 C 
ATOM     33  C   UNL     1      -2.275  16.468  24.819  0.00  0.00    +0.000 C 
ATOM     34  C   UNL     1      -1.588  15.863  26.045  0.00  0.00    +0.000 C 
ENDBRANCH  31  33
ENDBRANCH  30  31
ENDBRANCH   1  30
TORSDOF 5
ENDMDL
MODEL 3
REMARK VINA RESULT:      -6.8      3.919      7.138
REMARK  Name = 
REMARK  7 active torsions:
REMARK  status: ('A' for Active; 'I' for Inactive)
REMARK    1  A    between atoms: C_1  and  C_2
REMARK    2  A    between atoms: C_2  and  C_3
REMARK    3  A    between atoms: C_2  and  C_4
REMARK    4  A    between atoms: C_4  and  C_5
REMARK    5  A    between atoms: C_5  and  N_6
REMARK    6  A    between atoms: N_15  and  C_16
REMARK    7  A    between atoms: C_24  and  C_25
REMARK                            x       y       z     vdW  Elec       q    Type
REMARK                         _______ _______ _______ _____ _____    ______ ____
ROOT
ATOM      1  N   UNL     1      -3.269  11.085  18.079  0.00  0.00    +0.000 N 
ATOM      2  C   UNL     1      -2.425  10.029  17.839  0.00  0.00    +0.000 A 
ATOM      3  C   UNL     1      -1.187  10.545  18.069  0.00  0.00    +0.000 A 
ATOM      4  C   UNL     1      -1.353  11.884  18.426  0.00  0.00    +0.000 A 
ATOM      5  N   UNL     1      -0.292  12.750  18.767  0.00  0.00    +0.000 NA
ATOM      6  C   UNL     1       0.895  12.197  18.743  0.00  0.00    +0.000 A 
ATOM      7  N   UNL     1       2.068  12.876  19.044  0.00  0.00    +0.000 N 
ATOM      8  C   UNL     1       2.283  14.208  19.341  0.00  0.00    +0.000 C 
ATOM      9  O   UNL     1       3.427  14.622  19.500  0.00  0.00    +0.000 OA
ATOM     10  N   UNL     1       1.175  15.005  19.394  0.00  0.00    +0.000 N 
ATOM     11  N   UNL     1       1.147  10.838  18.411  0.00  0.00    +0.000 N 
ATOM     12  N   UNL     1       2.334  10.182  18.428  0.00  0.00    +0.000 NA
ATOM     13  C   UNL     1       1.941   8.936  18.064  0.00  0.00    +0.000 A 
ATOM     14  N   UNL     1       0.593   8.796  17.801  0.00  0.00    +0.000 NA
ATOM     15  C   UNL     1       0.144   9.990  18.054  0.00  0.00    +0.000 A 
ATOM     16  N   UNL     1      -2.634  12.235  18.444  0.00  0.00    +0.000 NA
ATOM     17  H   UNL     1       2.935  12.347  18.988  0.00  0.00    +0.000 HD
ATOM     18  H   UNL     1       0.280  14.525  19.447  0.00  0.00    +0.000 HD
ENDROOT
BRANCH  10  19
ATOM     19  C   UNL     1       1.217  16.438  19.690  0.00  0.00    +0.000 C 
ATOM     20  C   UNL     1       0.963  17.277  18.428  0.00  0.00    +0.000 C 
ATOM     21  C   UNL     1      -0.472  17.144  17.922  0.00  0.00    +0.000 C 
ATOM     22  C   UNL     1      -1.485  17.499  19.007  0.00  0.00    +0.000 C 
ATOM     23  C   UNL     1      -1.240  16.730  20.306  0.00  0.00    +0.000 C 
ATOM     24  C   UNL     1       0.211  16.831  20.782  0.00  0.00    +0.000 C 
ENDBRANCH  10  19
BRANCH  13  25
ATOM     25  C   UNL     1       2.836   7.737  17.975  0.00  0.00    +0.000 A 
ATOM     26  C   UNL     1       2.725   6.604  18.766  0.00  0.00    +0.000 A 
ATOM     27  C   UNL     1       3.770   5.729  18.396  0.00  0.00    +0.000 A 
ATOM     28  C   UNL     1       4.467   6.382  17.403  0.00  0.00    +0.000 A 
ATOM     29  O   UNL     1       3.905   7.586  17.132  0.00  0.00    +0.000 OA
ENDBRANCH  13  25
BRANCH   1  30
ATOM     30  C   UNL     1      -4.716  11.036  18.003  0.00  0.00    +0.000 C 
BRANCH  30  31
ATOM     31  C   UNL     1      -5.418  11.760  19.154  0.00  0.00    +0.000 C 
BRANCH  31  33
ATOM     32  C   UNL     1      -6.968   9.740  19.312  0.00  0.00    +0.000 C 
ATOM     33  C   UNL     1      -6.843  11.257  19.463  0.00  0.00    +0.000 C 
ATOM     34  C   UNL     1      -7.244  11.670  20.880  0.00  0.00    +0.000 C 
ENDBRANCH  31  33
ENDBRANCH  30  31
ENDBRANCH   1  30
TORSDOF 5
ENDMDL
MODEL 4
REMARK VINA RESULT:      -6.8      3.410      6.599
REMARK  Name = 
REMARK  7 active torsions:
REMARK  status: ('A' for Active; 'I' for Inactive)
REMARK    1  A    between atoms: C_1  and  C_2
REMARK    2  A    between atoms: C_2  and  C_3
REMARK    3  A    between atoms: C_2  and  C_4
REMARK    4  A    between atoms: C_4  and  C_5
REMARK    5  A    between atoms: C_5  and  N_6
REMARK    6  A    between atoms: N_15  and  C_16
REMARK    7  A    between atoms: C_24  and  C_25
REMARK                            x       y       z     vdW  Elec       q    Type
REMARK                         _______ _______ _______ _____ _____    ______ ____
ROOT
ATOM      1  N   UNL     1      -4.095  11.271  18.019  0.00  0.00    +0.000 N 
ATOM      2  C   UNL     1      -3.113  10.395  17.630  0.00  0.00    +0.000 A 
ATOM      3  C   UNL     1      -2.010  10.826  18.299  0.00  0.00    +0.000 A 
ATOM      4  C   UNL     1      -2.386  11.944  19.047  0.00  0.00    +0.000 A 
ATOM      5  N   UNL     1      -1.514  12.657  19.897  0.00  0.00    +0.000 NA
ATOM      6  C   UNL     1      -0.296  12.181  19.956  0.00  0.00    +0.000 A 
ATOM      7  N   UNL     1       0.712  12.738  20.731  0.00  0.00    +0.000 N 
ATOM      8  C   UNL     1       0.719  13.880  21.509  0.00  0.00    +0.000 C 
ATOM      9  O   UNL     1       1.757  14.239  22.058  0.00  0.00    +0.000 OA
ATOM     10  N   UNL     1      -0.454  14.575  21.579  0.00  0.00    +0.000 N 
ATOM     11  N   UNL     1       0.161  11.039  19.245  0.00  0.00    +0.000 N 
ATOM     12  N   UNL     1       1.382  10.452  19.305  0.00  0.00    +0.000 NA
ATOM     13  C   UNL     1       1.206   9.409  18.456  0.00  0.00    +0.000 A 
ATOM     14  N   UNL     1      -0.037   9.338  17.860  0.00  0.00    +0.000 NA
ATOM     15  C   UNL     1      -0.653  10.349  18.399  0.00  0.00    +0.000 A 
ATOM     16  N   UNL     1      -3.674  12.230  18.891  0.00  0.00    +0.000 NA
ATOM     17  H   UNL     1       1.623  12.287  20.697  0.00  0.00    +0.000 HD
ATOM     18  H   UNL     1      -1.285  14.084  21.257  0.00  0.00    +0.000 HD
ENDROOT
BRANCH  10  19
ATOM     19  C   UNL     1      -0.625  15.807  22.350  0.00  0.00    +0.000 C 
ATOM     20  C   UNL     1      -1.655  16.739  21.693  0.00  0.00    +0.000 C 
ATOM     21  C   UNL     1      -3.074  16.176  21.760  0.00  0.00    +0.000 C 
ATOM     22  C   UNL     1      -3.484  15.858  23.195  0.00  0.00    +0.000 C 
ATOM     23  C   UNL     1      -2.461  14.977  23.913  0.00  0.00    +0.000 C 
ATOM     24  C   UNL     1      -1.037  15.525  23.803  0.00  0.00    +0.000 C 
ENDBRANCH  10  19
BRANCH  13  25
ATOM     25  C   UNL     1       2.222   8.346  18.167  0.00  0.00    +0.000 A 
ATOM     26  C   UNL     1       2.382   7.180  18.901  0.00  0.00    +0.000 A 
ATOM     27  C   UNL     1       3.459   6.469  18.330  0.00  0.00    +0.000 A 
ATOM     28  C   UNL     1       3.904   7.245  17.283  0.00  0.00    +0.000 A 
ATOM     29  O   UNL     1       3.157   8.371  17.167  0.00  0.00    +0.000 OA
ENDBRANCH  13  25
BRANCH   1  30
ATOM     30  C   UNL     1      -5.483  11.215  17.603  0.00  0.00    +0.000 C 
BRANCH  30  31
ATOM     31  C   UNL     1      -6.422  10.641  18.666  0.00  0.00    +0.000 C 
BRANCH  31  33
ATOM     32  C   UNL     1      -6.938  12.100  20.695  0.00  0.00    +0.000 C 
ATOM     33  C   UNL     1      -7.386  11.665  19.299  0.00  0.00    +0.000 C 
ATOM     34  C   UNL     1      -7.512  12.891  18.392  0.00  0.00    +0.000 C 
ENDBRANCH  31  33
ENDBRANCH  30  31
ENDBRANCH   1  30
TORSDOF 5
ENDMDL
MODEL 5
REMARK VINA RESULT:      -6.8      5.152      7.229
REMARK  Name = 
REMARK  7 active torsions:
REMARK  status: ('A' for Active; 'I' for Inactive)
REMARK    1  A    between atoms: C_1  and  C_2
REMARK    2  A    between atoms: C_2  and  C_3
REMARK    3  A    between atoms: C_2  and  C_4
REMARK    4  A    between atoms: C_4  and  C_5
REMARK    5  A    between atoms: C_5  and  N_6
REMARK    6  A    between atoms: N_15  and  C_16
REMARK    7  A    between atoms: C_24  and  C_25
REMARK                            x       y       z     vdW  Elec       q    Type
REMARK                         _______ _______ _______ _____ _____    ______ ____
ROOT
ATOM      1  N   UNL     1       0.531  10.154  22.113  0.00  0.00    +0.000 N 
ATOM      2  C   UNL     1      -0.730  10.285  22.639  0.00  0.00    +0.000 A 
ATOM      3  C   UNL     1      -1.054  11.582  22.388  0.00  0.00    +0.000 A 
ATOM      4  C   UNL     1       0.033  12.163  21.733  0.00  0.00    +0.000 A 
ATOM      5  N   UNL     1       0.064  13.501  21.284  0.00  0.00    +0.000 NA
ATOM      6  C   UNL     1      -1.033  14.180  21.511  0.00  0.00    +0.000 A 
ATOM      7  N   UNL     1      -1.204  15.509  21.150  0.00  0.00    +0.000 N 
ATOM      8  C   UNL     1      -0.321  16.407  20.582  0.00  0.00    +0.000 C 
ATOM      9  O   UNL     1      -0.659  17.574  20.415  0.00  0.00    +0.000 OA
ATOM     10  N   UNL     1       0.920  15.926  20.277  0.00  0.00    +0.000 N 
ATOM     11  N   UNL     1      -2.188  13.658  22.152  0.00  0.00    +0.000 N 
ATOM     12  N   UNL     1      -3.376  14.277  22.363  0.00  0.00    +0.000 NA
ATOM     13  C   UNL     1      -4.078  13.284  22.965  0.00  0.00    +0.000 A 
ATOM     14  N   UNL     1      -3.384  12.106  23.158  0.00  0.00    +0.000 NA
ATOM     15  C   UNL     1      -2.234  12.379  22.617  0.00  0.00    +0.000 A 
ATOM     16  N   UNL     1       1.021  11.294  21.548  0.00  0.00    +0.000 NA
ATOM     17  H   UNL     1      -2.097  15.939  21.381  0.00  0.00    +0.000 HD
ATOM     18  H   UNL     1       1.020  14.914  20.270  0.00  0.00    +0.000 HD
ENDROOT
BRANCH  10  19
ATOM     19  C   UNL     1       1.981  16.736  19.675  0.00  0.00    +0.000 C 
ATOM     20  C   UNL     1       3.284  16.640  20.484  0.00  0.00    +0.000 C 
ATOM     21  C   UNL     1       3.919  15.253  20.398  0.00  0.00    +0.000 C 
ATOM     22  C   UNL     1       4.159  14.834  18.951  0.00  0.00    +0.000 C 
ATOM     23  C   UNL     1       2.903  14.965  18.090  0.00  0.00    +0.000 C 
ATOM     24  C   UNL     1       2.249  16.343  18.215  0.00  0.00    +0.000 C 
ENDBRANCH  10  19
BRANCH  13  25
ATOM     25  C   UNL     1      -5.516  13.367  23.379  0.00  0.00    +0.000 A 
ATOM     26  C   UNL     1      -6.189  14.542  23.678  0.00  0.00    +0.000 A 
ATOM     27  C   UNL     1      -7.504  14.188  24.054  0.00  0.00    +0.000 A 
ATOM     28  C   UNL     1      -7.557  12.815  23.970  0.00  0.00    +0.000 A 
ATOM     29  O   UNL     1      -6.370  12.311  23.551  0.00  0.00    +0.000 OA
ENDBRANCH  13  25
BRANCH   1  30
ATOM     30  C   UNL     1       1.311   8.932  22.097  0.00  0.00    +0.000 C 
BRANCH  30  31
ATOM     31  C   UNL     1       0.926   7.971  20.971  0.00  0.00    +0.000 C 
BRANCH  31  33
ATOM     32  C   UNL     1       2.033   5.805  20.199  0.00  0.00    +0.000 C 
ATOM     33  C   UNL     1       2.118   7.332  20.229  0.00  0.00    +0.000 C 
ATOM     34  C   UNL     1       2.191   7.873  18.800  0.00  0.00    +0.000 C 
ENDBRANCH  31  33
ENDBRANCH  30  31
ENDBRANCH   1  30
TORSDOF 5
ENDMDL
MODEL 6
REMARK VINA RESULT:      -6.7      1.848      2.219
REMARK  Name = 
REMARK  7 active torsions:
REMARK  status: ('A' for Active; 'I' for Inactive)
REMARK    1  A    between atoms: C_1  and  C_2
REMARK    2  A    between atoms: C_2  and  C_3
REMARK    3  A    between atoms: C_2  and  C_4
REMARK    4  A    between atoms: C_4  and  C_5
REMARK    5  A    between atoms: C_5  and  N_6
REMARK    6  A    between atoms: N_15  and  C_16
REMARK    7  A    between atoms: C_24  and  C_25
REMARK                            x       y       z     vdW  Elec       q    Type
REMARK                         _______ _______ _______ _____ _____    ______ ____
ROOT
ATOM      1  N   UNL     1      -0.539  11.398  20.235  0.00  0.00    +0.000 N 
ATOM      2  C   UNL     1      -0.621  10.880  18.966  0.00  0.00    +0.000 A 
ATOM      3  C   UNL     1      -1.905  11.132  18.595  0.00  0.00    +0.000 A 
ATOM      4  C   UNL     1      -2.528  11.779  19.664  0.00  0.00    +0.000 A 
ATOM      5  N   UNL     1      -3.867  12.226  19.646  0.00  0.00    +0.000 NA
ATOM      6  C   UNL     1      -4.503  12.004  18.523  0.00  0.00    +0.000 A 
ATOM      7  N   UNL     1      -5.825  12.365  18.303  0.00  0.00    +0.000 N 
ATOM      8  C   UNL     1      -6.757  12.926  19.156  0.00  0.00    +0.000 C 
ATOM      9  O   UNL     1      -7.911  13.094  18.774  0.00  0.00    +0.000 OA
ATOM     10  N   UNL     1      -6.324  13.224  20.416  0.00  0.00    +0.000 N 
ATOM     11  N   UNL     1      -3.936  11.372  17.384  0.00  0.00    +0.000 N 
ATOM     12  N   UNL     1      -4.509  11.167  16.172  0.00  0.00    +0.000 NA
ATOM     13  C   UNL     1      -3.490  10.571  15.506  0.00  0.00    +0.000 A 
ATOM     14  N   UNL     1      -2.339  10.375  16.242  0.00  0.00    +0.000 NA
ATOM     15  C   UNL     1      -2.656  10.909  17.385  0.00  0.00    +0.000 A 
ATOM     16  N   UNL     1      -1.697  11.958  20.685  0.00  0.00    +0.000 NA
ATOM     17  H   UNL     1      -6.221  12.139  17.394  0.00  0.00    +0.000 HD
ATOM     18  H   UNL     1      -5.316  13.232  20.554  0.00  0.00    +0.000 HD
ENDROOT
BRANCH  10  19
ATOM     19  C   UNL     1      -7.175  13.818  21.449  0.00  0.00    +0.000 C 
ATOM     20  C   UNL     1      -7.013  13.090  22.793  0.00  0.00    +0.000 C 
ATOM     21  C   UNL     1      -5.635  13.315  23.412  0.00  0.00    +0.000 C 
ATOM     22  C   UNL     1      -5.327  14.801  23.573  0.00  0.00    +0.000 C 
ATOM     23  C   UNL     1      -5.528  15.581  22.273  0.00  0.00    +0.000 C 
ATOM     24  C   UNL     1      -6.894  15.316  21.636  0.00  0.00    +0.000 C 
ENDBRANCH  10  19
BRANCH  13  25
ATOM     25  C   UNL     1      -3.518  10.166  14.063  0.00  0.00    +0.000 A 
ATOM     26  C   UNL     1      -4.665  10.048  13.293  0.00  0.00    +0.000 A 
ATOM     27  C   UNL     1      -4.267   9.615  12.010  0.00  0.00    +0.000 A 
ATOM     28  C   UNL     1      -2.898   9.484  12.070  0.00  0.00    +0.000 A 
ATOM     29  O   UNL     1      -2.434   9.827  13.297  0.00  0.00    +0.000 OA
ENDBRANCH  13  25
BRANCH   1  30
ATOM     30  C   UNL     1       0.653  11.411  21.061  0.00  0.00    +0.000 C 
BRANCH  30  31
ATOM     31  C   UNL     1       1.240  10.021  21.315  0.00  0.00    +0.000 C 
BRANCH  31  33
ATOM     32  C   UNL     1      -0.411  10.009  23.260  0.00  0.00    +0.000 C 
ATOM     33  C   UNL     1       0.455   9.161  22.327  0.00  0.00    +0.000 C 
ATOM     34  C   UNL     1      -0.422   8.153  21.582  0.00  0.00    +0.000 C 
ENDBRANCH  31  33
ENDBRANCH  30  31
ENDBRANCH   1  30
TORSDOF 5
ENDMDL
MODEL 7
REMARK VINA RESULT:      -6.7      3.764      6.556
REMARK  Name = 
REMARK  7 active torsions:
REMARK  status: ('A' for Active; 'I' for Inactive)
REMARK    1  A    between atoms: C_1  and  C_2
REMARK    2  A    between atoms: C_2  and  C_3
REMARK    3  A    between atoms: C_2  and  C_4
REMARK    4  A    between atoms: C_4  and  C_5
REMARK    5  A    between atoms: C_5  and  N_6
REMARK    6  A    between atoms: N_15  and  C_16
REMARK    7  A    between atoms: C_24  and  C_25
REMARK                            x       y       z     vdW  Elec       q    Type
REMARK                         _______ _______ _______ _____ _____    ______ ____
ROOT
ATOM      1  N   UNL     1      -5.066  12.380  18.799  0.00  0.00    +0.000 N 
ATOM      2  C   UNL     1      -4.084  11.509  18.397  0.00  0.00    +0.000 A 
ATOM      3  C   UNL     1      -2.994  11.898  19.112  0.00  0.00    +0.000 A 
ATOM      4  C   UNL     1      -3.377  12.986  19.898  0.00  0.00    +0.000 A 
ATOM      5  N   UNL     1      -2.520  13.652  20.800  0.00  0.00    +0.000 NA
ATOM      6  C   UNL     1      -1.309  13.158  20.870  0.00  0.00    +0.000 A 
ATOM      7  N   UNL     1      -0.316  13.669  21.694  0.00  0.00    +0.000 N 
ATOM      8  C   UNL     1      -0.316  14.777  22.520  0.00  0.00    +0.000 C 
ATOM      9  O   UNL     1       0.711  15.099  23.110  0.00  0.00    +0.000 OA
ATOM     10  N   UNL     1      -1.483  15.482  22.590  0.00  0.00    +0.000 N 
ATOM     11  N   UNL     1      -0.847  12.043  20.121  0.00  0.00    +0.000 N 
ATOM     12  N   UNL     1       0.366  11.439  20.187  0.00  0.00    +0.000 NA
ATOM     13  C   UNL     1       0.201  10.437  19.289  0.00  0.00    +0.000 A 
ATOM     14  N   UNL     1      -1.027  10.406  18.660  0.00  0.00    +0.000 NA
ATOM     15  C   UNL     1      -1.645  11.400  19.226  0.00  0.00    +0.000 A 
ATOM     16  N   UNL     1      -4.657  13.295  19.722  0.00  0.00    +0.000 NA
ATOM     17  H   UNL     1       0.591  13.210  21.663  0.00  0.00    +0.000 HD
ATOM     18  H   UNL     1      -2.311  15.016  22.226  0.00  0.00    +0.000 HD
ENDROOT
BRANCH  10  19
ATOM     19  C   UNL     1      -1.661  16.682  23.410  0.00  0.00    +0.000 C 
ATOM     20  C   UNL     1      -2.769  17.585  22.846  0.00  0.00    +0.000 C 
ATOM     21  C   UNL     1      -4.154  16.955  22.980  0.00  0.00    +0.000 C 
ATOM     22  C   UNL     1      -4.462  16.577  24.426  0.00  0.00    +0.000 C 
ATOM     23  C   UNL     1      -3.359  15.723  25.052  0.00  0.00    +0.000 C 
ATOM     24  C   UNL     1      -1.969  16.338  24.875  0.00  0.00    +0.000 C 
ENDBRANCH  10  19
BRANCH  13  25
ATOM     25  C   UNL     1       1.212   9.375  18.981  0.00  0.00    +0.000 A 
ATOM     26  C   UNL     1       1.910   9.265  17.787  0.00  0.00    +0.000 A 
ATOM     27  C   UNL     1       2.731   8.121  17.884  0.00  0.00    +0.000 A 
ATOM     28  C   UNL     1       2.483   7.589  19.129  0.00  0.00    +0.000 A 
ATOM     29  O   UNL     1       1.580   8.344  19.804  0.00  0.00    +0.000 OA
ENDBRANCH  13  25
BRANCH   1  30
ATOM     30  C   UNL     1      -6.444  12.358  18.345  0.00  0.00    +0.000 C 
BRANCH  30  31
ATOM     31  C   UNL     1      -7.161  11.035  18.617  0.00  0.00    +0.000 C 
BRANCH  31  33
ATOM     32  C   UNL     1      -7.822  11.214  21.075  0.00  0.00    +0.000 C 
ATOM     33  C   UNL     1      -6.969  10.476  20.042  0.00  0.00    +0.000 C 
ATOM     34  C   UNL     1      -7.305   8.984  20.065  0.00  0.00    +0.000 C 
ENDBRANCH  31  33
ENDBRANCH  30  31
ENDBRANCH   1  30
TORSDOF 5
ENDMDL
MODEL 8
REMARK VINA RESULT:      -6.7      4.453      7.395
REMARK  Name = 
REMARK  7 active torsions:
REMARK  status: ('A' for Active; 'I' for Inactive)
REMARK    1  A    between atoms: C_1  and  C_2
REMARK    2  A    between atoms: C_2  and  C_3
REMARK    3  A    between atoms: C_2  and  C_4
REMARK    4  A    between atoms: C_4  and  C_5
REMARK    5  A    between atoms: C_5  and  N_6
REMARK    6  A    between atoms: N_15  and  C_16
REMARK    7  A    between atoms: C_24  and  C_25
REMARK                            x       y       z     vdW  Elec       q    Type
REMARK                         _______ _______ _______ _____ _____    ______ ____
ROOT
ATOM      1  N   UNL     1      -2.675  12.339  19.860  0.00  0.00    +0.000 N 
ATOM      2  C   UNL     1      -2.066  11.155  19.525  0.00  0.00    +0.000 A 
ATOM      3  C   UNL     1      -0.828  11.533  19.106  0.00  0.00    +0.000 A 
ATOM      4  C   UNL     1      -0.763  12.924  19.203  0.00  0.00    +0.000 A 
ATOM      5  N   UNL     1       0.380  13.687  18.881  0.00  0.00    +0.000 NA
ATOM      6  C   UNL     1       1.414  12.985  18.489  0.00  0.00    +0.000 A 
ATOM      7  N   UNL     1       2.631  13.544  18.125  0.00  0.00    +0.000 N 
ATOM      8  C   UNL     1       3.014  14.867  18.013  0.00  0.00    +0.000 C 
ATOM      9  O   UNL     1       4.133  15.145  17.594  0.00  0.00    +0.000 OA
ATOM     10  N   UNL     1       2.076  15.801  18.347  0.00  0.00    +0.000 N 
ATOM     11  N   UNL     1       1.436  11.568  18.383  0.00  0.00    +0.000 N 
ATOM     12  N   UNL     1       2.482  10.773  18.049  0.00  0.00    +0.000 NA
ATOM     13  C   UNL     1       1.914   9.546  18.156  0.00  0.00    +0.000 A 
ATOM     14  N   UNL     1       0.580   9.543  18.510  0.00  0.00    +0.000 NA
ATOM     15  C   UNL     1       0.339  10.812  18.663  0.00  0.00    +0.000 A 
ATOM     16  N   UNL     1      -1.893  13.440  19.674  0.00  0.00    +0.000 NA
ATOM     17  H   UNL     1       3.364  12.903  17.832  0.00  0.00    +0.000 HD
ATOM     18  H   UNL     1       1.270  15.460  18.866  0.00  0.00    +0.000 HD
ENDROOT
BRANCH  10  19
ATOM     19  C   UNL     1       2.307  17.245  18.284  0.00  0.00    +0.000 C 
ATOM     20  C   UNL     1       1.570  17.877  17.093  0.00  0.00    +0.000 C 
ATOM     21  C   UNL     1       0.053  17.851  17.269  0.00  0.00    +0.000 C 
ATOM     22  C   UNL     1      -0.373  18.520  18.572  0.00  0.00    +0.000 C 
ATOM     23  C   UNL     1       0.375  17.964  19.785  0.00  0.00    +0.000 C 
ATOM     24  C   UNL     1       1.891  17.953  19.583  0.00  0.00    +0.000 C 
ENDBRANCH  10  19
BRANCH  13  25
ATOM     25  C   UNL     1       2.627   8.241  17.965  0.00  0.00    +0.000 A 
ATOM     26  C   UNL     1       2.258   7.042  18.555  0.00  0.00    +0.000 A 
ATOM     27  C   UNL     1       3.200   6.069  18.152  0.00  0.00    +0.000 A 
ATOM     28  C   UNL     1       4.097   6.732  17.346  0.00  0.00    +0.000 A 
ATOM     29  O   UNL     1       3.754   8.038  17.214  0.00  0.00    +0.000 OA
ENDBRANCH  13  25
BRANCH   1  30
ATOM     30  C   UNL     1      -4.014  12.471  20.400  0.00  0.00    +0.000 C 
BRANCH  30  31
ATOM     31  C   UNL     1      -5.103  12.563  19.330  0.00  0.00    +0.000 C 
BRANCH  31  33
ATOM     32  C   UNL     1      -6.808  10.813  18.594  0.00  0.00    +0.000 C 
ATOM     33  C   UNL     1      -5.347  11.260  18.540  0.00  0.00    +0.000 C 
ATOM     34  C   UNL     1      -4.918  11.448  17.083  0.00  0.00    +0.000 C 
ENDBRANCH  31  33
ENDBRANCH  30  31
ENDBRANCH   1  30
TORSDOF 5
ENDMDL
MODEL 9
REMARK VINA RESULT:      -6.7      4.018      7.301
REMARK  Name = 
REMARK  7 active torsions:
REMARK  status: ('A' for Active; 'I' for Inactive)
REMARK    1  A    between atoms: C_1  and  C_2
REMARK    2  A    between atoms: C_2  and  C_3
REMARK    3  A    between atoms: C_2  and  C_4
REMARK    4  A    between atoms: C_4  and  C_5
REMARK    5  A    between atoms: C_5  and  N_6
REMARK    6  A    between atoms: N_15  and  C_16
REMARK    7  A    between atoms: C_24  and  C_25
REMARK                            x       y       z     vdW  Elec       q    Type
REMARK                         _______ _______ _______ _____ _____    ______ ____
ROOT
ATOM      1  N   UNL     1      -3.285  11.108  18.110  0.00  0.00    +0.000 N 
ATOM      2  C   UNL     1      -2.443  10.046  17.894  0.00  0.00    +0.000 A 
ATOM      3  C   UNL     1      -1.205  10.563  18.121  0.00  0.00    +0.000 A 
ATOM      4  C   UNL     1      -1.369  11.909  18.451  0.00  0.00    +0.000 A 
ATOM      5  N   UNL     1      -0.308  12.779  18.782  0.00  0.00    +0.000 NA
ATOM      6  C   UNL     1       0.878  12.222  18.776  0.00  0.00    +0.000 A 
ATOM      7  N   UNL     1       2.050  12.904  19.070  0.00  0.00    +0.000 N 
ATOM      8  C   UNL     1       2.267  14.242  19.343  0.00  0.00    +0.000 C 
ATOM      9  O   UNL     1       3.411  14.655  19.501  0.00  0.00    +0.000 OA
ATOM     10  N   UNL     1       1.161  15.041  19.375  0.00  0.00    +0.000 N 
ATOM     11  N   UNL     1       1.128  10.857  18.472  0.00  0.00    +0.000 N 
ATOM     12  N   UNL     1       2.313  10.198  18.508  0.00  0.00    +0.000 NA
ATOM     13  C   UNL     1       1.919   8.946  18.166  0.00  0.00    +0.000 A 
ATOM     14  N   UNL     1       0.572   8.805  17.897  0.00  0.00    +0.000 NA
ATOM     15  C   UNL     1       0.125  10.004  18.125  0.00  0.00    +0.000 A 
ATOM     16  N   UNL     1      -2.650  12.263  18.456  0.00  0.00    +0.000 NA
ATOM     17  H   UNL     1       2.916  12.372  19.030  0.00  0.00    +0.000 HD
ATOM     18  H   UNL     1       0.264  14.565  19.431  0.00  0.00    +0.000 HD
ENDROOT
BRANCH  10  19
ATOM     19  C   UNL     1       1.205  16.480  19.643  0.00  0.00    +0.000 C 
ATOM     20  C   UNL     1       0.994  17.295  18.357  0.00  0.00    +0.000 C 
ATOM     21  C   UNL     1      -0.427  17.162  17.813  0.00  0.00    +0.000 C 
ATOM     22  C   UNL     1      -1.468  17.545  18.861  0.00  0.00    +0.000 C 
ATOM     23  C   UNL     1      -1.267  16.801  20.181  0.00  0.00    +0.000 C 
ATOM     24  C   UNL     1       0.170  16.902  20.697  0.00  0.00    +0.000 C 
ENDBRANCH  10  19
BRANCH  13  25
ATOM     25  C   UNL     1       2.811   7.744  18.105  0.00  0.00    +0.000 A 
ATOM     26  C   UNL     1       3.834   7.560  17.187  0.00  0.00    +0.000 A 
ATOM     27  C   UNL     1       4.405   6.294  17.443  0.00  0.00    +0.000 A 
ATOM     28  C   UNL     1       3.693   5.771  18.499  0.00  0.00    +0.000 A 
ATOM     29  O   UNL     1       2.739   6.642  18.915  0.00  0.00    +0.000 OA
ENDBRANCH  13  25
BRANCH   1  30
ATOM     30  C   UNL     1      -4.733  11.062  18.026  0.00  0.00    +0.000 C 
BRANCH  30  31
ATOM     31  C   UNL     1      -5.322  12.047  17.015  0.00  0.00    +0.000 C 
BRANCH  31  33
ATOM     32  C   UNL     1      -7.183  12.150  18.757  0.00  0.00    +0.000 C 
ATOM     33  C   UNL     1      -6.750  12.532  17.341  0.00  0.00    +0.000 C 
ATOM     34  C   UNL     1      -6.837  14.049  17.165  0.00  0.00    +0.000 C 
ENDBRANCH  31  33
ENDBRANCH  30  31
ENDBRANCH   1  30
TORSDOF 5
ENDMDL
