MODEL 1
REMARK VINA RESULT:      -6.2      0.000      0.000
REMARK  Name = 
REMARK  5 active torsions:
REMARK  status: ('A' for Active; 'I' for Inactive)
REMARK    1  A    between atoms: C_1  and  N_2
REMARK    2  A    between atoms: N_2  and  C_3
REMARK    3  A    between atoms: N_2  and  C_4
REMARK    4  A    between atoms: N_7  and  C_8
REMARK    5  A    between atoms: C_8  and  C_9
REMARK                            x       y       z     vdW  Elec       q    Type
REMARK                         _______ _______ _______ _____ _____    ______ ____
ROOT
ATOM      1  C   UNL     1       1.013   9.992  19.033  0.00  0.00    +0.000 A 
ATOM      2  C   UNL     1       0.991   9.241  20.214  0.00  0.00    +0.000 A 
ATOM      3  C   UNL     1       1.658   8.025  20.310  0.00  0.00    +0.000 A 
ATOM      4  N   UNL     1       2.341   7.529  19.260  0.00  0.00    +0.000 N 
ATOM      5  C   UNL     1       2.313   8.172  18.073  0.00  0.00    +0.000 A 
ATOM      6  C   UNL     1       1.649   9.392  17.943  0.00  0.00    +0.000 A 
ENDROOT
BRANCH   1   8
ATOM      7  C   UNL     1       1.275  12.414  18.729  0.00  0.00    +0.000 C 
ATOM      8  N   UNL     1       0.412  11.247  18.960  0.00  0.00    +0.000 N 
ATOM      9  C   UNL     1      -0.963  11.385  18.479  0.00  0.00    +0.000 C 
ENDBRANCH   1   8
BRANCH   4  10
ATOM     10  C   UNL     1       3.169   6.310  19.426  0.00  0.00    +0.000 C 
BRANCH  10  11
ATOM     11  C   UNL     1       2.323   5.068  19.431  0.00  0.00    +0.000 A 
ATOM     12  C   UNL     1       1.900   4.502  20.642  0.00  0.00    +0.000 A 
ATOM     13  C   UNL     1       1.128   3.338  20.648  0.00  0.00    +0.000 A 
ATOM     14  C   UNL     1       0.781   2.727  19.447  0.00  0.00    +0.000 A 
ATOM     15  C   UNL     1       1.185   3.285  18.238  0.00  0.00    +0.000 A 
ATOM     16  C   UNL     1       1.954   4.448  18.227  0.00  0.00    +0.000 A 
ENDBRANCH  10  11
ENDBRANCH   4  10
TORSDOF 3
ENDMDL
MODEL 2
REMARK VINA RESULT:      -6.2      0.459      1.492
REMARK  Name = 
REMARK  5 active torsions:
REMARK  status: ('A' for Active; 'I' for Inactive)
REMARK    1  A    between atoms: C_1  and  N_2
REMARK    2  A    between atoms: N_2  and  C_3
REMARK    3  A    between atoms: N_2  and  C_4
REMARK    4  A    between atoms: N_7  and  C_8
REMARK    5  A    between atoms: C_8  and  C_9
REMARK                            x       y       z     vdW  Elec       q    Type
REMARK                         _______ _______ _______ _____ _____    ______ ____
ROOT
ATOM      1  C   UNL     1       0.947   9.978  19.204  0.00  0.00    +0.000 A 
ATOM      2  C   UNL     1       0.983   9.194  20.363  0.00  0.00    +0.000 A 
ATOM      3  C   UNL     1       1.671   7.986  20.398  0.00  0.00    +0.000 A 
ATOM      4  N   UNL     1       2.317   7.529  19.307  0.00  0.00    +0.000 N 
ATOM      5  C   UNL     1       2.232   8.205  18.141  0.00  0.00    +0.000 A 
ATOM      6  C   UNL     1       1.546   9.418  18.072  0.00  0.00    +0.000 A 
ENDROOT
BRANCH   1   8
ATOM      7  C   UNL     1      -0.939  11.359  18.454  0.00  0.00    +0.000 C 
ATOM      8  N   UNL     1       0.326  11.225  19.191  0.00  0.00    +0.000 N 
ATOM      9  C   UNL     1       0.493  12.150  20.312  0.00  0.00    +0.000 C 
ENDBRANCH   1   8
BRANCH   4  10
ATOM     10  C   UNL     1       3.168   6.320  19.405  0.00  0.00    +0.000 C 
BRANCH  10  11
ATOM     11  C   UNL     1       2.340   5.066  19.419  0.00  0.00    +0.000 A 
ATOM     12  C   UNL     1       1.971   4.443  18.218  0.00  0.00    +0.000 A 
ATOM     13  C   UNL     1       1.188   3.288  18.230  0.00  0.00    +0.000 A 
ATOM     14  C   UNL     1       0.759   2.750  19.441  0.00  0.00    +0.000 A 
ATOM     15  C   UNL     1       1.128   3.352  20.640  0.00  0.00    +0.000 A 
ATOM     16  C   UNL     1       1.913   4.504  20.632  0.00  0.00    +0.000 A 
ENDBRANCH  10  11
ENDBRANCH   4  10
TORSDOF 3
ENDMDL
MODEL 3
REMARK VINA RESULT:      -6.1      4.308      6.423
REMARK  Name = 
REMARK  5 active torsions:
REMARK  status: ('A' for Active; 'I' for Inactive)
REMARK    1  A    between atoms: C_1  and  N_2
REMARK    2  A    between atoms: N_2  and  C_3
REMARK    3  A    between atoms: N_2  and  C_4
REMARK    4  A    between atoms: N_7  and  C_8
REMARK    5  A    between atoms: C_8  and  C_9
REMARK                            x       y       z     vdW  Elec       q    Type
REMARK                         _______ _______ _______ _____ _____    ______ ____
ROOT
ATOM      1  C   UNL     1       6.441   4.764  15.375  0.00  0.00    +0.000 A 
ATOM      2  C   UNL     1       7.186   4.430  16.511  0.00  0.00    +0.000 A 
ATOM      3  C   UNL     1       6.696   4.661  17.792  0.00  0.00    +0.000 A 
ATOM      4  N   UNL     1       5.487   5.227  17.975  0.00  0.00    +0.000 N 
ATOM      5  C   UNL     1       4.773   5.651  16.910  0.00  0.00    +0.000 A 
ATOM      6  C   UNL     1       5.239   5.437  15.613  0.00  0.00    +0.000 A 
ENDROOT
BRANCH   1   8
ATOM      7  C   UNL     1       6.022   3.662  13.222  0.00  0.00    +0.000 C 
ATOM      8  N   UNL     1       6.896   4.460  14.094  0.00  0.00    +0.000 N 
ATOM      9  C   UNL     1       7.812   5.364  13.397  0.00  0.00    +0.000 C 
ENDBRANCH   1   8
BRANCH   4  10
ATOM     10  C   UNL     1       4.917   5.327  19.340  0.00  0.00    +0.000 C 
BRANCH  10  11
ATOM     11  C   UNL     1       3.695   4.466  19.489  0.00  0.00    +0.000 A 
ATOM     12  C   UNL     1       3.753   3.093  19.208  0.00  0.00    +0.000 A 
ATOM     13  C   UNL     1       2.614   2.296  19.330  0.00  0.00    +0.000 A 
ATOM     14  C   UNL     1       1.406   2.864  19.726  0.00  0.00    +0.000 A 
ATOM     15  C   UNL     1       1.337   4.223  20.019  0.00  0.00    +0.000 A 
ATOM     16  C   UNL     1       2.473   5.022  19.901  0.00  0.00    +0.000 A 
ENDBRANCH  10  11
ENDBRANCH   4  10
TORSDOF 3
ENDMDL
MODEL 4
REMARK VINA RESULT:      -6.1      4.022      6.197
REMARK  Name = 
REMARK  5 active torsions:
REMARK  status: ('A' for Active; 'I' for Inactive)
REMARK    1  A    between atoms: C_1  and  N_2
REMARK    2  A    between atoms: N_2  and  C_3
REMARK    3  A    between atoms: N_2  and  C_4
REMARK    4  A    between atoms: N_7  and  C_8
REMARK    5  A    between atoms: C_8  and  C_9
REMARK                            x       y       z     vdW  Elec       q    Type
REMARK                         _______ _______ _______ _____ _____    ______ ____
ROOT
ATOM      1  C   UNL     1       6.038   4.851  15.394  0.00  0.00    +0.000 A 
ATOM      2  C   UNL     1       6.081   4.034  16.530  0.00  0.00    +0.000 A 
ATOM      3  C   UNL     1       5.428   4.392  17.705  0.00  0.00    +0.000 A 
ATOM      4  N   UNL     1       4.740   5.549  17.785  0.00  0.00    +0.000 N 
ATOM      5  C   UNL     1       4.749   6.411  16.746  0.00  0.00    +0.000 A 
ATOM      6  C   UNL     1       5.398   6.083  15.556  0.00  0.00    +0.000 A 
ENDROOT
BRANCH   1   8
ATOM      7  C   UNL     1       5.818   3.658  13.261  0.00  0.00    +0.000 C 
ATOM      8  N   UNL     1       6.624   4.457  14.194  0.00  0.00    +0.000 N 
ATOM      9  C   UNL     1       7.667   5.274  13.572  0.00  0.00    +0.000 C 
ENDBRANCH   1   8
BRANCH   4  10
ATOM     10  C   UNL     1       3.928   5.842  18.989  0.00  0.00    +0.000 C 
BRANCH  10  11
ATOM     11  C   UNL     1       2.863   4.803  19.200  0.00  0.00    +0.000 A 
ATOM     12  C   UNL     1       2.086   4.352  18.123  0.00  0.00    +0.000 A 
ATOM     13  C   UNL     1       1.085   3.399  18.322  0.00  0.00    +0.000 A 
ATOM     14  C   UNL     1       0.847   2.896  19.598  0.00  0.00    +0.000 A 
ATOM     15  C   UNL     1       1.618   3.326  20.673  0.00  0.00    +0.000 A 
ATOM     16  C   UNL     1       2.620   4.276  20.478  0.00  0.00    +0.000 A 
ENDBRANCH  10  11
ENDBRANCH   4  10
TORSDOF 3
ENDMDL
MODEL 5
REMARK VINA RESULT:      -6.1      4.195      6.399
REMARK  Name = 
REMARK  5 active torsions:
REMARK  status: ('A' for Active; 'I' for Inactive)
REMARK    1  A    between atoms: C_1  and  N_2
REMARK    2  A    between atoms: N_2  and  C_3
REMARK    3  A    between atoms: N_2  and  C_4
REMARK    4  A    between atoms: N_7  and  C_8
REMARK    5  A    between atoms: C_8  and  C_9
REMARK                            x       y       z     vdW  Elec       q    Type
REMARK                         _______ _______ _______ _____ _____    ______ ____
ROOT
ATOM      1  C   UNL     1       6.239   4.495  15.479  0.00  0.00    +0.000 A 
ATOM      2  C   UNL     1       4.889   4.795  15.695  0.00  0.00    +0.000 A 
ATOM      3  C   UNL     1       4.399   5.048  16.971  0.00  0.00    +0.000 A 
ATOM      4  N   UNL     1       5.213   5.000  18.044  0.00  0.00    +0.000 N 
ATOM      5  C   UNL     1       6.501   4.624  17.896  0.00  0.00    +0.000 A 
ATOM      6  C   UNL     1       7.023   4.360  16.629  0.00  0.00    +0.000 A 
ENDROOT
BRANCH   1   8
ATOM      7  C   UNL     1       5.913   3.616  13.211  0.00  0.00    +0.000 C 
ATOM      8  N   UNL     1       6.748   4.320  14.194  0.00  0.00    +0.000 N 
ATOM      9  C   UNL     1       7.691   5.287  13.631  0.00  0.00    +0.000 C 
ENDBRANCH   1   8
BRANCH   4  10
ATOM     10  C   UNL     1       4.709   5.419  19.373  0.00  0.00    +0.000 C 
BRANCH  10  11
ATOM     11  C   UNL     1       3.496   4.628  19.774  0.00  0.00    +0.000 A 
ATOM     12  C   UNL     1       3.558   3.230  19.871  0.00  0.00    +0.000 A 
ATOM     13  C   UNL     1       2.427   2.493  20.226  0.00  0.00    +0.000 A 
ATOM     14  C   UNL     1       1.223   3.145  20.479  0.00  0.00    +0.000 A 
ATOM     15  C   UNL     1       1.151   4.532  20.398  0.00  0.00    +0.000 A 
ATOM     16  C   UNL     1       2.279   5.272  20.046  0.00  0.00    +0.000 A 
ENDBRANCH  10  11
ENDBRANCH   4  10
TORSDOF 3
ENDMDL
MODEL 6
REMARK VINA RESULT:      -6.0      4.217      6.362
REMARK  Name = 
REMARK  5 active torsions:
REMARK  status: ('A' for Active; 'I' for Inactive)
REMARK    1  A    between atoms: C_1  and  N_2
REMARK    2  A    between atoms: N_2  and  C_3
REMARK    3  A    between atoms: N_2  and  C_4
REMARK    4  A    between atoms: N_7  and  C_8
REMARK    5  A    between atoms: C_8  and  C_9
REMARK                            x       y       z     vdW  Elec       q    Type
REMARK                         _______ _______ _______ _____ _____    ______ ____
ROOT
ATOM      1  C   UNL     1       6.022   4.615  14.963  0.00  0.00    +0.000 A 
ATOM      2  C   UNL     1       5.465   5.881  15.178  0.00  0.00    +0.000 A 
ATOM      3  C   UNL     1       4.843   6.204  16.379  0.00  0.00    +0.000 A 
ATOM      4  N   UNL     1       4.751   5.297  17.372  0.00  0.00    +0.000 N 
ATOM      5  C   UNL     1       5.191   4.036  17.175  0.00  0.00    +0.000 A 
ATOM      6  C   UNL     1       5.815   3.679  15.980  0.00  0.00    +0.000 A 
ENDROOT
BRANCH   1   8
ATOM      7  C   UNL     1       6.023   3.526  12.763  0.00  0.00    +0.000 C 
ATOM      8  N   UNL     1       6.714   4.317  13.791  0.00  0.00    +0.000 N 
ATOM      9  C   UNL     1       7.750   5.221  13.289  0.00  0.00    +0.000 C 
ENDBRANCH   1   8
BRANCH   4  10
ATOM     10  C   UNL     1       4.222   5.703  18.696  0.00  0.00    +0.000 C 
BRANCH  10  11
ATOM     11  C   UNL     1       3.030   4.876  19.088  0.00  0.00    +0.000 A 
ATOM     12  C   UNL     1       2.739   4.644  20.440  0.00  0.00    +0.000 A 
ATOM     13  C   UNL     1       1.641   3.862  20.804  0.00  0.00    +0.000 A 
ATOM     14  C   UNL     1       0.831   3.299  19.821  0.00  0.00    +0.000 A 
ATOM     15  C   UNL     1       1.102   3.531  18.477  0.00  0.00    +0.000 A 
ATOM     16  C   UNL     1       2.196   4.314  18.109  0.00  0.00    +0.000 A 
ENDBRANCH  10  11
ENDBRANCH   4  10
TORSDOF 3
ENDMDL
MODEL 7
REMARK VINA RESULT:      -6.0      4.228      6.465
REMARK  Name = 
REMARK  5 active torsions:
REMARK  status: ('A' for Active; 'I' for Inactive)
REMARK    1  A    between atoms: C_1  and  N_2
REMARK    2  A    between atoms: N_2  and  C_3
REMARK    3  A    between atoms: N_2  and  C_4
REMARK    4  A    between atoms: N_7  and  C_8
REMARK    5  A    between atoms: C_8  and  C_9
REMARK                            x       y       z     vdW  Elec       q    Type
REMARK                         _______ _______ _______ _____ _____    ______ ____
ROOT
ATOM      1  C   UNL     1       6.275   4.477  15.321  0.00  0.00    +0.000 A 
ATOM      2  C   UNL     1       4.942   4.822  15.572  0.00  0.00    +0.000 A 
ATOM      3  C   UNL     1       4.493   5.085  16.862  0.00  0.00    +0.000 A 
ATOM      4  N   UNL     1       5.332   5.002  17.914  0.00  0.00    +0.000 N 
ATOM      5  C   UNL     1       6.602   4.582  17.731  0.00  0.00    +0.000 A 
ATOM      6  C   UNL     1       7.082   4.308  16.450  0.00  0.00    +0.000 A 
ENDROOT
BRANCH   1   8
ATOM      7  C   UNL     1       5.879   3.583  13.070  0.00  0.00    +0.000 C 
ATOM      8  N   UNL     1       6.745   4.292  14.023  0.00  0.00    +0.000 N 
ATOM      9  C   UNL     1       7.673   5.252  13.425  0.00  0.00    +0.000 C 
ENDBRANCH   1   8
BRANCH   4  10
ATOM     10  C   UNL     1       4.876   5.430  19.258  0.00  0.00    +0.000 C 
BRANCH  10  11
ATOM     11  C   UNL     1       3.653   4.671  19.690  0.00  0.00    +0.000 A 
ATOM     12  C   UNL     1       2.477   5.354  20.032  0.00  0.00    +0.000 A 
ATOM     13  C   UNL     1       1.346   4.650  20.450  0.00  0.00    +0.000 A 
ATOM     14  C   UNL     1       1.383   3.261  20.538  0.00  0.00    +0.000 A 
ATOM     15  C   UNL     1       2.540   2.572  20.190  0.00  0.00    +0.000 A 
ATOM     16  C   UNL     1       3.671   3.270  19.770  0.00  0.00    +0.000 A 
ENDBRANCH  10  11
ENDBRANCH   4  10
TORSDOF 3
ENDMDL
MODEL 8
REMARK VINA RESULT:      -6.0      0.779      1.462
REMARK  Name = 
REMARK  5 active torsions:
REMARK  status: ('A' for Active; 'I' for Inactive)
REMARK    1  A    between atoms: C_1  and  N_2
REMARK    2  A    between atoms: N_2  and  C_3
REMARK    3  A    between atoms: N_2  and  C_4
REMARK    4  A    between atoms: N_7  and  C_8
REMARK    5  A    between atoms: C_8  and  C_9
REMARK                            x       y       z     vdW  Elec       q    Type
REMARK                         _______ _______ _______ _____ _____    ______ ____
ROOT
ATOM      1  C   UNL     1       0.418   9.853  19.554  0.00  0.00    +0.000 A 
ATOM      2  C   UNL     1       1.089   9.572  18.358  0.00  0.00    +0.000 A 
ATOM      3  C   UNL     1       1.993   8.519  18.266  0.00  0.00    +0.000 A 
ATOM      4  N   UNL     1       2.257   7.743  19.336  0.00  0.00    +0.000 N 
ATOM      5  C   UNL     1       1.705   8.035  20.533  0.00  0.00    +0.000 A 
ATOM      6  C   UNL     1       0.797   9.086  20.659  0.00  0.00    +0.000 A 
ENDROOT
BRANCH   1   8
ATOM      7  C   UNL     1      -0.635  11.642  20.865  0.00  0.00    +0.000 C 
ATOM      8  N   UNL     1      -0.546  10.856  19.626  0.00  0.00    +0.000 N 
ATOM      9  C   UNL     1      -0.986  11.552  18.416  0.00  0.00    +0.000 C 
ENDBRANCH   1   8
BRANCH   4  10
ATOM     10  C   UNL     1       3.105   6.537  19.182  0.00  0.00    +0.000 C 
BRANCH  10  11
ATOM     11  C   UNL     1       2.296   5.277  19.304  0.00  0.00    +0.000 A 
ATOM     12  C   UNL     1       1.947   4.775  20.567  0.00  0.00    +0.000 A 
ATOM     13  C   UNL     1       1.209   3.596  20.681  0.00  0.00    +0.000 A 
ATOM     14  C   UNL     1       0.822   2.903  19.537  0.00  0.00    +0.000 A 
ATOM     15  C   UNL     1       1.152   3.396  18.279  0.00  0.00    +0.000 A 
ATOM     16  C   UNL     1       1.886   4.575  18.160  0.00  0.00    +0.000 A 
ENDBRANCH  10  11
ENDBRANCH   4  10
TORSDOF 3
ENDMDL
MODEL 9
REMARK VINA RESULT:      -6.0      4.033      6.739
REMARK  Name = 
REMARK  5 active torsions:
REMARK  status: ('A' for Active; 'I' for Inactive)
REMARK    1  A    between atoms: C_1  and  N_2
REMARK    2  A    between atoms: N_2  and  C_3
REMARK    3  A    between atoms: N_2  and  C_4
REMARK    4  A    between atoms: N_7  and  C_8
REMARK    5  A    between atoms: C_8  and  C_9
REMARK                            x       y       z     vdW  Elec       q    Type
REMARK                         _______ _______ _______ _____ _____    ______ ____
ROOT
ATOM      1  C   UNL     1       2.462   3.821  18.544  0.00  0.00    +0.000 A 
ATOM      2  C   UNL     1       3.276   3.140  17.632  0.00  0.00    +0.000 A 
ATOM      3  C   UNL     1       4.204   3.814  16.846  0.00  0.00    +0.000 A 
ATOM      4  N   UNL     1       4.338   5.152  16.934  0.00  0.00    +0.000 N 
ATOM      5  C   UNL     1       3.511   5.861  17.731  0.00  0.00    +0.000 A 
ATOM      6  C   UNL     1       2.567   5.215  18.529  0.00  0.00    +0.000 A 
ENDROOT
BRANCH   1   8
ATOM      7  C   UNL     1       1.177   3.798  20.636  0.00  0.00    +0.000 C 
ATOM      8  N   UNL     1       1.589   3.139  19.388  0.00  0.00    +0.000 N 
ATOM      9  C   UNL     1       0.626   2.181  18.844  0.00  0.00    +0.000 C 
ENDBRANCH   1   8
BRANCH   4  10
ATOM     10  C   UNL     1       5.432   5.834  16.202  0.00  0.00    +0.000 C 
BRANCH  10  11
ATOM     11  C   UNL     1       6.473   6.369  17.144  0.00  0.00    +0.000 A 
ATOM     12  C   UNL     1       6.969   7.672  16.991  0.00  0.00    +0.000 A 
ATOM     13  C   UNL     1       7.949   8.163  17.855  0.00  0.00    +0.000 A 
ATOM     14  C   UNL     1       8.447   7.355  18.874  0.00  0.00    +0.000 A 
ATOM     15  C   UNL     1       7.955   6.065  19.043  0.00  0.00    +0.000 A 
ATOM     16  C   UNL     1       6.975   5.571  18.184  0.00  0.00    +0.000 A 
ENDBRANCH  10  11
ENDBRANCH   4  10
TORSDOF 3
ENDMDL
