MODEL 1
REMARK VINA RESULT:      -7.4      0.000      0.000
REMARK  Name = 
REMARK  8 active torsions:
REMARK  status: ('A' for Active; 'I' for Inactive)
REMARK    1  A    between atoms: C_2  and  C_12
REMARK    2  A    between atoms: N_3  and  C_4
REMARK    3  A    between atoms: C_4  and  C_5
REMARK    4  A    between atoms: C_17  and  C_18
REMARK    5  A    between atoms: C_18  and  C_19
REMARK    6  A    between atoms: C_19  and  C_20
REMARK    7  A    between atoms: C_20  and  O_21
REMARK    8  A    between atoms: C_24  and  O_25
REMARK                            x       y       z     vdW  Elec       q    Type
REMARK                         _______ _______ _______ _____ _____    ______ ____
ROOT
ATOM      1  C   UNL     1       5.307   5.467  17.406  0.00  0.00    +0.000 A 
ATOM      2  C   UNL     1       6.485   6.161  17.178  0.00  0.00    +0.000 A 
ATOM      3  N   UNL     1       7.240   6.076  16.067  0.00  0.00    +0.000 NA
ATOM      4  C   UNL     1       6.755   5.231  15.134  0.00  0.00    +0.000 A 
ATOM      5  S   UNL     1       7.607   4.983  13.686  0.00  0.00    +0.000 S 
ATOM      6  C   UNL     1       6.433   3.888  13.095  0.00  0.00    +0.000 A 
ATOM      7  C   UNL     1       5.401   3.724  14.000  0.00  0.00    +0.000 A 
ATOM      8  C   UNL     1       5.580   4.489  15.206  0.00  0.00    +0.000 A 
ATOM      9  C   UNL     1       4.829   4.620  16.396  0.00  0.00    +0.000 A 
ENDROOT
BRANCH   1  11
ATOM     10  O   UNL     1       5.275   5.322  19.743  0.00  0.00    +0.000 OA
ATOM     11  C   UNL     1       4.665   5.653  18.719  0.00  0.00    +0.000 C 
ATOM     12  N   UNL     1       3.404   6.175  18.731  0.00  0.00    +0.000 N 
ATOM     13  H   UNL     1       3.004   6.501  17.851  0.00  0.00    +0.000 HD
BRANCH  12  14
ATOM     14  C   UNL     1       2.676   6.331  19.955  0.00  0.00    +0.000 C 
BRANCH  14  15
ATOM     15  C   UNL     1       1.886   7.612  20.001  0.00  0.00    +0.000 A 
ATOM     16  C   UNL     1       1.829   8.449  18.876  0.00  0.00    +0.000 A 
ATOM     17  C   UNL     1       1.067   9.619  18.897  0.00  0.00    +0.000 A 
ATOM     18  C   UNL     1       0.368   9.968  20.050  0.00  0.00    +0.000 A 
ATOM     19 CL   UNL     1      -0.569  11.411  20.076  0.00  0.00    +0.000 Cl
ATOM     20  C   UNL     1       0.419   9.154  21.180  0.00  0.00    +0.000 A 
ATOM     21  C   UNL     1       1.179   7.980  21.156  0.00  0.00    +0.000 A 
ENDBRANCH  14  15
ENDBRANCH  12  14
ENDBRANCH   1  11
BRANCH   9  22
ATOM     22  O   UNL     1       3.643   3.937  16.577  0.00  0.00    +0.000 OA
ATOM     23  H   UNL     1       3.841   3.060  16.947  0.00  0.00    +0.000 HD
ENDBRANCH   9  22
BRANCH   6  24
ATOM     24  C   UNL     1       6.617   3.242  11.749  0.00  0.00    +0.000 C 
BRANCH  24  25
ATOM     25  C   UNL     1       5.777   1.978  11.557  0.00  0.00    +0.000 C 
BRANCH  25  26
ATOM     26  C   UNL     1       6.572   0.820  10.977  0.00  0.00    +0.000 C 
BRANCH  26  27
ATOM     27  O   UNL     1       6.015  -0.408  11.429  0.00  0.00    +0.000 OA
ATOM     28  H   UNL     1       5.646  -0.870  10.655  0.00  0.00    +0.000 HD
ENDBRANCH  26  27
ENDBRANCH  25  26
ENDBRANCH  24  25
ENDBRANCH   6  24
TORSDOF 8
ENDMDL
MODEL 2
REMARK VINA RESULT:      -7.2      3.537      5.137
REMARK  Name = 
REMARK  8 active torsions:
REMARK  status: ('A' for Active; 'I' for Inactive)
REMARK    1  A    between atoms: C_2  and  C_12
REMARK    2  A    between atoms: N_3  and  C_4
REMARK    3  A    between atoms: C_4  and  C_5
REMARK    4  A    between atoms: C_17  and  C_18
REMARK    5  A    between atoms: C_18  and  C_19
REMARK    6  A    between atoms: C_19  and  C_20
REMARK    7  A    between atoms: C_20  and  O_21
REMARK    8  A    between atoms: C_24  and  O_25
REMARK                            x       y       z     vdW  Elec       q    Type
REMARK                         _______ _______ _______ _____ _____    ______ ____
ROOT
ATOM      1  C   UNL     1       2.087   7.283  19.835  0.00  0.00    +0.000 A 
ATOM      2  C   UNL     1       2.033   6.079  20.521  0.00  0.00    +0.000 A 
ATOM      3  N   UNL     1       2.613   4.930  20.130  0.00  0.00    +0.000 NA
ATOM      4  C   UNL     1       3.293   5.023  18.969  0.00  0.00    +0.000 A 
ATOM      5  S   UNL     1       4.056   3.651  18.318  0.00  0.00    +0.000 S 
ATOM      6  C   UNL     1       4.649   4.527  16.973  0.00  0.00    +0.000 A 
ATOM      7  C   UNL     1       4.266   5.854  17.032  0.00  0.00    +0.000 A 
ATOM      8  C   UNL     1       3.459   6.159  18.183  0.00  0.00    +0.000 A 
ATOM      9  C   UNL     1       2.827   7.336  18.645  0.00  0.00    +0.000 A 
ENDROOT
BRANCH   1  11
ATOM     10  O   UNL     1       0.991   8.377  21.591  0.00  0.00    +0.000 OA
ATOM     11  C   UNL     1       1.327   8.410  20.401  0.00  0.00    +0.000 C 
ATOM     12  N   UNL     1       1.016   9.441  19.562  0.00  0.00    +0.000 N 
ATOM     13  H   UNL     1       1.401   9.433  18.617  0.00  0.00    +0.000 HD
BRANCH  12  14
ATOM     14  C   UNL     1       0.222  10.548  20.006  0.00  0.00    +0.000 C 
BRANCH  14  15
ATOM     15  C   UNL     1      -1.005  10.760  19.160  0.00  0.00    +0.000 A 
ATOM     16  C   UNL     1      -1.992  11.674  19.560  0.00  0.00    +0.000 A 
ATOM     17  C   UNL     1      -3.114  11.904  18.761  0.00  0.00    +0.000 A 
ATOM     18  C   UNL     1      -3.263  11.211  17.563  0.00  0.00    +0.000 A 
ATOM     19 CL   UNL     1      -4.647  11.495  16.580  0.00  0.00    +0.000 Cl
ATOM     20  C   UNL     1      -2.298  10.294  17.153  0.00  0.00    +0.000 A 
ATOM     21  C   UNL     1      -1.173  10.066  17.951  0.00  0.00    +0.000 A 
ENDBRANCH  14  15
ENDBRANCH  12  14
ENDBRANCH   1  11
BRANCH   9  22
ATOM     22  O   UNL     1       2.928   8.526  17.952  0.00  0.00    +0.000 OA
ATOM     23  H   UNL     1       2.810   8.346  17.004  0.00  0.00    +0.000 HD
ENDBRANCH   9  22
BRANCH   6  24
ATOM     24  C   UNL     1       5.463   3.827  15.920  0.00  0.00    +0.000 C 
BRANCH  24  25
ATOM     25  C   UNL     1       6.877   4.390  15.766  0.00  0.00    +0.000 C 
BRANCH  25  26
ATOM     26  C   UNL     1       7.437   4.949  17.064  0.00  0.00    +0.000 C 
BRANCH  26  27
ATOM     27  O   UNL     1       8.285   3.979  17.669  0.00  0.00    +0.000 OA
ATOM     28  H   UNL     1       8.777   3.531  16.958  0.00  0.00    +0.000 HD
ENDBRANCH  26  27
ENDBRANCH  25  26
ENDBRANCH  24  25
ENDBRANCH   6  24
TORSDOF 8
ENDMDL
MODEL 3
REMARK VINA RESULT:      -7.2      0.585      1.130
REMARK  Name = 
REMARK  8 active torsions:
REMARK  status: ('A' for Active; 'I' for Inactive)
REMARK    1  A    between atoms: C_2  and  C_12
REMARK    2  A    between atoms: N_3  and  C_4
REMARK    3  A    between atoms: C_4  and  C_5
REMARK    4  A    between atoms: C_17  and  C_18
REMARK    5  A    between atoms: C_18  and  C_19
REMARK    6  A    between atoms: C_19  and  C_20
REMARK    7  A    between atoms: C_20  and  O_21
REMARK    8  A    between atoms: C_24  and  O_25
REMARK                            x       y       z     vdW  Elec       q    Type
REMARK                         _______ _______ _______ _____ _____    ______ ____
ROOT
ATOM      1  C   UNL     1       5.631   5.321  17.007  0.00  0.00    +0.000 A 
ATOM      2  C   UNL     1       6.814   5.995  16.742  0.00  0.00    +0.000 A 
ATOM      3  N   UNL     1       7.530   5.898  15.607  0.00  0.00    +0.000 NA
ATOM      4  C   UNL     1       7.000   5.064  14.689  0.00  0.00    +0.000 A 
ATOM      5  S   UNL     1       7.800   4.803  13.214  0.00  0.00    +0.000 S 
ATOM      6  C   UNL     1       6.587   3.731  12.660  0.00  0.00    +0.000 A 
ATOM      7  C   UNL     1       5.583   3.584  13.598  0.00  0.00    +0.000 A 
ATOM      8  C   UNL     1       5.814   4.343  14.798  0.00  0.00    +0.000 A 
ATOM      9  C   UNL     1       5.105   4.486  16.012  0.00  0.00    +0.000 A 
ENDROOT
BRANCH   1  11
ATOM     10  O   UNL     1       5.726   5.317  19.347  0.00  0.00    +0.000 OA
ATOM     11  C   UNL     1       5.036   5.517  18.341  0.00  0.00    +0.000 C 
ATOM     12  N   UNL     1       3.726   5.899  18.391  0.00  0.00    +0.000 N 
ATOM     13  H   UNL     1       3.250   6.125  17.518  0.00  0.00    +0.000 HD
BRANCH  12  14
ATOM     14  C   UNL     1       3.044   6.049  19.643  0.00  0.00    +0.000 C 
BRANCH  14  15
ATOM     15  C   UNL     1       2.208   7.301  19.701  0.00  0.00    +0.000 A 
ATOM     16  C   UNL     1       1.541   7.651  20.885  0.00  0.00    +0.000 A 
ATOM     17  C   UNL     1       0.796   8.830  20.959  0.00  0.00    +0.000 A 
ATOM     18  C   UNL     1       0.702   9.660  19.845  0.00  0.00    +0.000 A 
ATOM     19 CL   UNL     1      -0.218  11.112  19.937  0.00  0.00    +0.000 Cl
ATOM     20  C   UNL     1       1.351   9.324  18.659  0.00  0.00    +0.000 A 
ATOM     21  C   UNL     1       2.099   8.146  18.586  0.00  0.00    +0.000 A 
ENDBRANCH  14  15
ENDBRANCH  12  14
ENDBRANCH   1  11
BRANCH   9  22
ATOM     22  O   UNL     1       3.913   3.824  16.230  0.00  0.00    +0.000 OA
ATOM     23  H   UNL     1       3.508   3.618  15.370  0.00  0.00    +0.000 HD
ENDBRANCH   9  22
BRANCH   6  24
ATOM     24  C   UNL     1       6.716   3.084  11.308  0.00  0.00    +0.000 C 
BRANCH  24  25
ATOM     25  C   UNL     1       7.084   1.601  11.372  0.00  0.00    +0.000 C 
BRANCH  25  26
ATOM     26  C   UNL     1       5.910   0.685  11.064  0.00  0.00    +0.000 C 
BRANCH  26  27
ATOM     27  O   UNL     1       6.310  -0.669  11.237  0.00  0.00    +0.000 OA
ATOM     28  H   UNL     1       6.179  -1.128  10.388  0.00  0.00    +0.000 HD
ENDBRANCH  26  27
ENDBRANCH  25  26
ENDBRANCH  24  25
ENDBRANCH   6  24
TORSDOF 8
ENDMDL
MODEL 4
REMARK VINA RESULT:      -7.1      4.124      6.333
REMARK  Name = 
REMARK  8 active torsions:
REMARK  status: ('A' for Active; 'I' for Inactive)
REMARK    1  A    between atoms: C_2  and  C_12
REMARK    2  A    between atoms: N_3  and  C_4
REMARK    3  A    between atoms: C_4  and  C_5
REMARK    4  A    between atoms: C_17  and  C_18
REMARK    5  A    between atoms: C_18  and  C_19
REMARK    6  A    between atoms: C_19  and  C_20
REMARK    7  A    between atoms: C_20  and  O_21
REMARK    8  A    between atoms: C_24  and  O_25
REMARK                            x       y       z     vdW  Elec       q    Type
REMARK                         _______ _______ _______ _____ _____    ______ ____
ROOT
ATOM      1  C   UNL     1       1.230   9.299  19.492  0.00  0.00    +0.000 A 
ATOM      2  C   UNL     1       1.151   8.483  20.610  0.00  0.00    +0.000 A 
ATOM      3  N   UNL     1       1.700   7.259  20.725  0.00  0.00    +0.000 NA
ATOM      4  C   UNL     1       2.372   6.852  19.629  0.00  0.00    +0.000 A 
ATOM      5  S   UNL     1       3.095   5.315  19.597  0.00  0.00    +0.000 S 
ATOM      6  C   UNL     1       3.699   5.550  18.014  0.00  0.00    +0.000 A 
ATOM      7  C   UNL     1       3.350   6.794  17.524  0.00  0.00    +0.000 A 
ATOM      8  C   UNL     1       2.560   7.564  18.448  0.00  0.00    +0.000 A 
ATOM      9  C   UNL     1       1.962   8.843  18.387  0.00  0.00    +0.000 A 
ENDROOT
BRANCH   1  11
ATOM     10  O   UNL     1       0.460  11.207  20.612  0.00  0.00    +0.000 OA
ATOM     11  C   UNL     1       0.502  10.579  19.547  0.00  0.00    +0.000 C 
ATOM     12  N   UNL     1      -0.110  11.000  18.402  0.00  0.00    +0.000 N 
ATOM     13  H   UNL     1       0.042  10.469  17.545  0.00  0.00    +0.000 HD
BRANCH  12  14
ATOM     14  C   UNL     1      -0.895  12.199  18.377  0.00  0.00    +0.000 C 
BRANCH  14  15
ATOM     15  C   UNL     1      -2.375  11.922  18.328  0.00  0.00    +0.000 A 
ATOM     16  C   UNL     1      -2.932  11.243  17.233  0.00  0.00    +0.000 A 
ATOM     17  C   UNL     1      -4.296  10.948  17.198  0.00  0.00    +0.000 A 
ATOM     18  C   UNL     1      -5.116  11.342  18.252  0.00  0.00    +0.000 A 
ATOM     19 CL   UNL     1      -6.797  10.978  18.207  0.00  0.00    +0.000 Cl
ATOM     20  C   UNL     1      -4.582  12.024  19.344  0.00  0.00    +0.000 A 
ATOM     21  C   UNL     1      -3.216  12.316  19.380  0.00  0.00    +0.000 A 
ENDBRANCH  14  15
ENDBRANCH  12  14
ENDBRANCH   1  11
BRANCH   9  22
ATOM     22  O   UNL     1       2.087   9.643  17.269  0.00  0.00    +0.000 OA
ATOM     23  H   UNL     1       3.031   9.827  17.121  0.00  0.00    +0.000 HD
ENDBRANCH   9  22
BRANCH   6  24
ATOM     24  C   UNL     1       4.488   4.459  17.340  0.00  0.00    +0.000 C 
BRANCH  24  25
ATOM     25  C   UNL     1       5.283   4.941  16.126  0.00  0.00    +0.000 C 
BRANCH  25  26
ATOM     26  C   UNL     1       6.786   4.924  16.358  0.00  0.00    +0.000 C 
BRANCH  26  27
ATOM     27  O   UNL     1       7.430   5.669  15.331  0.00  0.00    +0.000 OA
ATOM     28  H   UNL     1       6.765   5.873  14.650  0.00  0.00    +0.000 HD
ENDBRANCH  26  27
ENDBRANCH  25  26
ENDBRANCH  24  25
ENDBRANCH   6  24
TORSDOF 8
ENDMDL
MODEL 5
REMARK VINA RESULT:      -7.1      3.015      4.638
REMARK  Name = 
REMARK  8 active torsions:
REMARK  status: ('A' for Active; 'I' for Inactive)
REMARK    1  A    between atoms: C_2  and  C_12
REMARK    2  A    between atoms: N_3  and  C_4
REMARK    3  A    between atoms: C_4  and  C_5
REMARK    4  A    between atoms: C_17  and  C_18
REMARK    5  A    between atoms: C_18  and  C_19
REMARK    6  A    between atoms: C_19  and  C_20
REMARK    7  A    between atoms: C_20  and  O_21
REMARK    8  A    between atoms: C_24  and  O_25
REMARK                            x       y       z     vdW  Elec       q    Type
REMARK                         _______ _______ _______ _____ _____    ______ ____
ROOT
ATOM      1  C   UNL     1       2.162   7.170  19.732  0.00  0.00    +0.000 A 
ATOM      2  C   UNL     1       2.130   5.974  20.432  0.00  0.00    +0.000 A 
ATOM      3  N   UNL     1       2.739   4.833  20.058  0.00  0.00    +0.000 NA
ATOM      4  C   UNL     1       3.424   4.927  18.900  0.00  0.00    +0.000 A 
ATOM      5  S   UNL     1       4.221   3.566  18.270  0.00  0.00    +0.000 S 
ATOM      6  C   UNL     1       4.803   4.439  16.919  0.00  0.00    +0.000 A 
ATOM      7  C   UNL     1       4.391   5.758  16.959  0.00  0.00    +0.000 A 
ATOM      8  C   UNL     1       3.570   6.058  18.102  0.00  0.00    +0.000 A 
ATOM      9  C   UNL     1       2.909   7.226  18.547  0.00  0.00    +0.000 A 
ENDROOT
BRANCH   1  11
ATOM     10  O   UNL     1       0.884   8.183  21.412  0.00  0.00    +0.000 OA
ATOM     11  C   UNL     1       1.373   8.286  20.281  0.00  0.00    +0.000 C 
ATOM     12  N   UNL     1       1.211   9.386  19.489  0.00  0.00    +0.000 N 
ATOM     13  H   UNL     1       1.716   9.429  18.604  0.00  0.00    +0.000 HD
BRANCH  12  14
ATOM     14  C   UNL     1       0.405  10.494  19.911  0.00  0.00    +0.000 C 
BRANCH  14  15
ATOM     15  C   UNL     1      -0.804  10.698  19.037  0.00  0.00    +0.000 A 
ATOM     16  C   UNL     1      -0.934   9.989  17.833  0.00  0.00    +0.000 A 
ATOM     17  C   UNL     1      -2.070  10.143  17.036  0.00  0.00    +0.000 A 
ATOM     18  C   UNL     1      -3.078  11.020  17.430  0.00  0.00    +0.000 A 
ATOM     19 CL   UNL     1      -4.477  11.211  16.446  0.00  0.00    +0.000 Cl
ATOM     20  C   UNL     1      -2.962  11.739  18.618  0.00  0.00    +0.000 A 
ATOM     21  C   UNL     1      -1.826  11.581  19.418  0.00  0.00    +0.000 A 
ENDBRANCH  14  15
ENDBRANCH  12  14
ENDBRANCH   1  11
BRANCH   9  22
ATOM     22  O   UNL     1       2.988   8.410  17.840  0.00  0.00    +0.000 OA
ATOM     23  H   UNL     1       2.694   9.137  18.416  0.00  0.00    +0.000 HD
ENDBRANCH   9  22
BRANCH   6  24
ATOM     24  C   UNL     1       5.640   3.745  15.878  0.00  0.00    +0.000 C 
BRANCH  24  25
ATOM     25  C   UNL     1       6.749   4.625  15.299  0.00  0.00    +0.000 C 
BRANCH  25  26
ATOM     26  C   UNL     1       6.839   4.542  13.783  0.00  0.00    +0.000 C 
BRANCH  26  27
ATOM     27  O   UNL     1       6.246   3.328  13.341  0.00  0.00    +0.000 OA
ATOM     28  H   UNL     1       6.937   2.641  13.345  0.00  0.00    +0.000 HD
ENDBRANCH  26  27
ENDBRANCH  25  26
ENDBRANCH  24  25
ENDBRANCH   6  24
TORSDOF 8
ENDMDL
MODEL 6
REMARK VINA RESULT:      -7.1      4.471      9.977
REMARK  Name = 
REMARK  8 active torsions:
REMARK  status: ('A' for Active; 'I' for Inactive)
REMARK    1  A    between atoms: C_2  and  C_12
REMARK    2  A    between atoms: N_3  and  C_4
REMARK    3  A    between atoms: C_4  and  C_5
REMARK    4  A    between atoms: C_17  and  C_18
REMARK    5  A    between atoms: C_18  and  C_19
REMARK    6  A    between atoms: C_19  and  C_20
REMARK    7  A    between atoms: C_20  and  O_21
REMARK    8  A    between atoms: C_24  and  O_25
REMARK                            x       y       z     vdW  Elec       q    Type
REMARK                         _______ _______ _______ _____ _____    ______ ____
ROOT
ATOM      1  C   UNL     1       2.386   6.970  19.035  0.00  0.00    +0.000 A 
ATOM      2  C   UNL     1       2.231   8.061  18.194  0.00  0.00    +0.000 A 
ATOM      3  N   UNL     1       1.619   9.216  18.515  0.00  0.00    +0.000 NA
ATOM      4  C   UNL     1       1.141   9.254  19.775  0.00  0.00    +0.000 A 
ATOM      5  S   UNL     1       0.309  10.628  20.329  0.00  0.00    +0.000 S 
ATOM      6  C   UNL     1       0.066   9.949  21.880  0.00  0.00    +0.000 A 
ATOM      7  C   UNL     1       0.622   8.686  21.966  0.00  0.00    +0.000 A 
ATOM      8  C   UNL     1       1.241   8.256  20.740  0.00  0.00    +0.000 A 
ATOM      9  C   UNL     1       1.895   7.067  20.345  0.00  0.00    +0.000 A 
ENDROOT
BRANCH   1  11
ATOM     10  O   UNL     1       2.380   5.030  17.724  0.00  0.00    +0.000 OA
ATOM     11  C   UNL     1       3.031   5.774  18.467  0.00  0.00    +0.000 C 
ATOM     12  N   UNL     1       4.332   5.542  18.811  0.00  0.00    +0.000 N 
ATOM     13  H   UNL     1       4.824   6.246  19.360  0.00  0.00    +0.000 HD
BRANCH  12  14
ATOM     14  C   UNL     1       5.021   4.369  18.360  0.00  0.00    +0.000 C 
BRANCH  14  15
ATOM     15  C   UNL     1       5.650   4.551  17.004  0.00  0.00    +0.000 A 
ATOM     16  C   UNL     1       6.902   5.174  16.882  0.00  0.00    +0.000 A 
ATOM     17  C   UNL     1       7.509   5.312  15.633  0.00  0.00    +0.000 A 
ATOM     18  C   UNL     1       6.862   4.840  14.494  0.00  0.00    +0.000 A 
ATOM     19 CL   UNL     1       7.611   5.012  12.954  0.00  0.00    +0.000 Cl
ATOM     20  C   UNL     1       5.615   4.227  14.594  0.00  0.00    +0.000 A 
ATOM     21  C   UNL     1       5.009   4.086  15.846  0.00  0.00    +0.000 A 
ENDBRANCH  14  15
ENDBRANCH  12  14
ENDBRANCH   1  11
BRANCH   9  22
ATOM     22  O   UNL     1       2.060   6.012  21.220  0.00  0.00    +0.000 OA
ATOM     23  H   UNL     1       1.627   5.225  20.845  0.00  0.00    +0.000 HD
ENDBRANCH   9  22
BRANCH   6  24
ATOM     24  C   UNL     1      -0.684  10.722  22.931  0.00  0.00    +0.000 C 
BRANCH  24  25
ATOM     25  C   UNL     1      -0.969  12.172  22.536  0.00  0.00    +0.000 C 
BRANCH  25  26
ATOM     26  C   UNL     1      -2.443  12.532  22.627  0.00  0.00    +0.000 C 
BRANCH  26  27
ATOM     27  O   UNL     1      -3.071  11.706  23.601  0.00  0.00    +0.000 OA
ATOM     28  H   UNL     1      -3.908  11.384  23.222  0.00  0.00    +0.000 HD
ENDBRANCH  26  27
ENDBRANCH  25  26
ENDBRANCH  24  25
ENDBRANCH   6  24
TORSDOF 8
ENDMDL
MODEL 7
REMARK VINA RESULT:      -7.1      3.938      6.155
REMARK  Name = 
REMARK  8 active torsions:
REMARK  status: ('A' for Active; 'I' for Inactive)
REMARK    1  A    between atoms: C_2  and  C_12
REMARK    2  A    between atoms: N_3  and  C_4
REMARK    3  A    between atoms: C_4  and  C_5
REMARK    4  A    between atoms: C_17  and  C_18
REMARK    5  A    between atoms: C_18  and  C_19
REMARK    6  A    between atoms: C_19  and  C_20
REMARK    7  A    between atoms: C_20  and  O_21
REMARK    8  A    between atoms: C_24  and  O_25
REMARK                            x       y       z     vdW  Elec       q    Type
REMARK                         _______ _______ _______ _____ _____    ______ ____
ROOT
ATOM      1  C   UNL     1       1.425   8.979  19.510  0.00  0.00    +0.000 A 
ATOM      2  C   UNL     1       1.337   8.135  20.606  0.00  0.00    +0.000 A 
ATOM      3  N   UNL     1       1.872   6.903  20.690  0.00  0.00    +0.000 NA
ATOM      4  C   UNL     1       2.541   6.517  19.584  0.00  0.00    +0.000 A 
ATOM      5  S   UNL     1       3.248   4.974  19.514  0.00  0.00    +0.000 S 
ATOM      6  C   UNL     1       3.855   5.242  17.937  0.00  0.00    +0.000 A 
ATOM      7  C   UNL     1       3.520   6.502  17.479  0.00  0.00    +0.000 A 
ATOM      8  C   UNL     1       2.737   7.257  18.422  0.00  0.00    +0.000 A 
ATOM      9  C   UNL     1       2.152   8.543  18.393  0.00  0.00    +0.000 A 
ENDROOT
BRANCH   1  11
ATOM     10  O   UNL     1       0.658  10.856  20.681  0.00  0.00    +0.000 OA
ATOM     11  C   UNL     1       0.710  10.264  19.597  0.00  0.00    +0.000 C 
ATOM     12  N   UNL     1       0.121  10.731  18.457  0.00  0.00    +0.000 N 
ATOM     13  H   UNL     1       0.281  10.228  17.585  0.00  0.00    +0.000 HD
BRANCH  12  14
ATOM     14  C   UNL     1      -0.651  11.939  18.461  0.00  0.00    +0.000 C 
BRANCH  14  15
ATOM     15  C   UNL     1      -2.132  11.680  18.396  0.00  0.00    +0.000 A 
ATOM     16  C   UNL     1      -2.994  12.258  19.341  0.00  0.00    +0.000 A 
ATOM     17  C   UNL     1      -4.373  12.054  19.265  0.00  0.00    +0.000 A 
ATOM     18  C   UNL     1      -4.900  11.260  18.250  0.00  0.00    +0.000 A 
ATOM     19 CL   UNL     1      -6.600  11.008  18.157  0.00  0.00    +0.000 Cl
ATOM     20  C   UNL     1      -4.059  10.671  17.307  0.00  0.00    +0.000 A 
ATOM     21  C   UNL     1      -2.679  10.878  17.382  0.00  0.00    +0.000 A 
ENDBRANCH  14  15
ENDBRANCH  12  14
ENDBRANCH   1  11
BRANCH   9  22
ATOM     22  O   UNL     1       2.287   9.370  17.296  0.00  0.00    +0.000 OA
ATOM     23  H   UNL     1       1.814   8.971  16.545  0.00  0.00    +0.000 HD
ENDBRANCH   9  22
BRANCH   6  24
ATOM     24  C   UNL     1       4.633   4.161  17.236  0.00  0.00    +0.000 C 
BRANCH  24  25
ATOM     25  C   UNL     1       5.368   4.648  15.987  0.00  0.00    +0.000 C 
BRANCH  25  26
ATOM     26  C   UNL     1       6.880   4.625  16.142  0.00  0.00    +0.000 C 
BRANCH  26  27
ATOM     27  O   UNL     1       7.386   5.950  16.038  0.00  0.00    +0.000 OA
ATOM     28  H   UNL     1       7.530   6.286  16.940  0.00  0.00    +0.000 HD
ENDBRANCH  26  27
ENDBRANCH  25  26
ENDBRANCH  24  25
ENDBRANCH   6  24
TORSDOF 8
ENDMDL
MODEL 8
REMARK VINA RESULT:      -7.1      2.862      4.344
REMARK  Name = 
REMARK  8 active torsions:
REMARK  status: ('A' for Active; 'I' for Inactive)
REMARK    1  A    between atoms: C_2  and  C_12
REMARK    2  A    between atoms: N_3  and  C_4
REMARK    3  A    between atoms: C_4  and  C_5
REMARK    4  A    between atoms: C_17  and  C_18
REMARK    5  A    between atoms: C_18  and  C_19
REMARK    6  A    between atoms: C_19  and  C_20
REMARK    7  A    between atoms: C_20  and  O_21
REMARK    8  A    between atoms: C_24  and  O_25
REMARK                            x       y       z     vdW  Elec       q    Type
REMARK                         _______ _______ _______ _____ _____    ______ ____
ROOT
ATOM      1  C   UNL     1       2.377   6.993  19.426  0.00  0.00    +0.000 A 
ATOM      2  C   UNL     1       2.208   5.724  19.959  0.00  0.00    +0.000 A 
ATOM      3  N   UNL     1       2.757   4.594  19.477  0.00  0.00    +0.000 NA
ATOM      4  C   UNL     1       3.528   4.778  18.386  0.00  0.00    +0.000 A 
ATOM      5  S   UNL     1       4.268   3.447  17.632  0.00  0.00    +0.000 S 
ATOM      6  C   UNL     1       5.007   4.434  16.446  0.00  0.00    +0.000 A 
ATOM      7  C   UNL     1       4.690   5.766  16.634  0.00  0.00    +0.000 A 
ATOM      8  C   UNL     1       3.813   5.985  17.754  0.00  0.00    +0.000 A 
ATOM      9  C   UNL     1       3.208   7.137  18.306  0.00  0.00    +0.000 A 
ENDROOT
BRANCH   1  11
ATOM     10  O   UNL     1       1.379   8.026  21.275  0.00  0.00    +0.000 OA
ATOM     11  C   UNL     1       1.634   8.091  20.067  0.00  0.00    +0.000 C 
ATOM     12  N   UNL     1       1.247   9.132  19.273  0.00  0.00    +0.000 N 
ATOM     13  H   UNL     1       1.568   9.152  18.305  0.00  0.00    +0.000 HD
BRANCH  12  14
ATOM     14  C   UNL     1       0.463  10.213  19.794  0.00  0.00    +0.000 C 
BRANCH  14  15
ATOM     15  C   UNL     1      -0.764  10.492  18.966  0.00  0.00    +0.000 A 
ATOM     16  C   UNL     1      -1.727  11.408  19.415  0.00  0.00    +0.000 A 
ATOM     17  C   UNL     1      -2.848  11.702  18.635  0.00  0.00    +0.000 A 
ATOM     18  C   UNL     1      -3.020  11.069  17.406  0.00  0.00    +0.000 A 
ATOM     19 CL   UNL     1      -4.402  11.430  16.446  0.00  0.00    +0.000 Cl
ATOM     20  C   UNL     1      -2.078  10.150  16.948  0.00  0.00    +0.000 A 
ATOM     21  C   UNL     1      -0.955   9.859  17.727  0.00  0.00    +0.000 A 
ENDBRANCH  14  15
ENDBRANCH  12  14
ENDBRANCH   1  11
BRANCH   9  22
ATOM     22  O   UNL     1       3.424   8.390  17.768  0.00  0.00    +0.000 OA
ATOM     23  H   UNL     1       4.024   8.304  17.007  0.00  0.00    +0.000 HD
ENDBRANCH   9  22
BRANCH   6  24
ATOM     24  C   UNL     1       5.864   3.811  15.377  0.00  0.00    +0.000 C 
BRANCH  24  25
ATOM     25  C   UNL     1       5.553   4.322  13.970  0.00  0.00    +0.000 C 
BRANCH  25  26
ATOM     26  C   UNL     1       6.255   3.525  12.881  0.00  0.00    +0.000 C 
BRANCH  26  27
ATOM     27  O   UNL     1       5.304   3.124  11.903  0.00  0.00    +0.000 OA
ATOM     28  H   UNL     1       5.525   3.577  11.070  0.00  0.00    +0.000 HD
ENDBRANCH  26  27
ENDBRANCH  25  26
ENDBRANCH  24  25
ENDBRANCH   6  24
TORSDOF 8
ENDMDL
MODEL 9
REMARK VINA RESULT:      -7.1      5.037      7.261
REMARK  Name = 
REMARK  8 active torsions:
REMARK  status: ('A' for Active; 'I' for Inactive)
REMARK    1  A    between atoms: C_2  and  C_12
REMARK    2  A    between atoms: N_3  and  C_4
REMARK    3  A    between atoms: C_4  and  C_5
REMARK    4  A    between atoms: C_17  and  C_18
REMARK    5  A    between atoms: C_18  and  C_19
REMARK    6  A    between atoms: C_19  and  C_20
REMARK    7  A    between atoms: C_20  and  O_21
REMARK    8  A    between atoms: C_24  and  O_25
REMARK                            x       y       z     vdW  Elec       q    Type
REMARK                         _______ _______ _______ _____ _____    ______ ____
ROOT
ATOM      1  C   UNL     1       5.943   6.538  17.496  0.00  0.00    +0.000 A 
ATOM      2  C   UNL     1       4.767   7.253  17.322  0.00  0.00    +0.000 A 
ATOM      3  N   UNL     1       3.527   6.787  17.560  0.00  0.00    +0.000 NA
ATOM      4  C   UNL     1       3.492   5.516  18.009  0.00  0.00    +0.000 A 
ATOM      5  S   UNL     1       2.001   4.766  18.325  0.00  0.00    +0.000 S 
ATOM      6  C   UNL     1       2.753   3.311  18.821  0.00  0.00    +0.000 A 
ATOM      7  C   UNL     1       4.130   3.408  18.745  0.00  0.00    +0.000 A 
ATOM      8  C   UNL     1       4.581   4.685  18.257  0.00  0.00    +0.000 A 
ATOM      9  C   UNL     1       5.857   5.229  17.988  0.00  0.00    +0.000 A 
ENDROOT
BRANCH   1  11
ATOM     10  O   UNL     1       7.943   6.676  16.286  0.00  0.00    +0.000 OA
ATOM     11  C   UNL     1       7.196   7.211  17.113  0.00  0.00    +0.000 C 
ATOM     12  N   UNL     1       7.476   8.403  17.718  0.00  0.00    +0.000 N 
ATOM     13  H   UNL     1       6.770   8.819  18.325  0.00  0.00    +0.000 HD
BRANCH  12  14
ATOM     14  C   UNL     1       8.702   9.098  17.458  0.00  0.00    +0.000 C 
BRANCH  14  15
ATOM     15  C   UNL     1       8.909  10.272  18.378  0.00  0.00    +0.000 A 
ATOM     16  C   UNL     1       9.216  10.066  19.732  0.00  0.00    +0.000 A 
ATOM     17  C   UNL     1       9.447  11.149  20.582  0.00  0.00    +0.000 A 
ATOM     18  C   UNL     1       9.360  12.447  20.087  0.00  0.00    +0.000 A 
ATOM     19 CL   UNL     1       9.644  13.782  21.136  0.00  0.00    +0.000 Cl
ATOM     20  C   UNL     1       9.048  12.673  18.747  0.00  0.00    +0.000 A 
ATOM     21  C   UNL     1       8.820  11.588  17.896  0.00  0.00    +0.000 A 
ENDBRANCH  14  15
ENDBRANCH  12  14
ENDBRANCH   1  11
BRANCH   9  22
ATOM     22  O   UNL     1       7.010   4.499  18.204  0.00  0.00    +0.000 OA
ATOM     23  H   UNL     1       6.804   3.554  18.105  0.00  0.00    +0.000 HD
ENDBRANCH   9  22
BRANCH   6  24
ATOM     24  C   UNL     1       1.913   2.139  19.252  0.00  0.00    +0.000 C 
BRANCH  24  25
ATOM     25  C   UNL     1       1.041   2.429  20.475  0.00  0.00    +0.000 C 
BRANCH  25  26
ATOM     26  C   UNL     1       1.787   3.172  21.572  0.00  0.00    +0.000 C 
BRANCH  26  27
ATOM     27  O   UNL     1       2.814   2.337  22.094  0.00  0.00    +0.000 OA
ATOM     28  H   UNL     1       2.439   1.447  22.217  0.00  0.00    +0.000 HD
ENDBRANCH  26  27
ENDBRANCH  25  26
ENDBRANCH  24  25
ENDBRANCH   6  24
TORSDOF 8
ENDMDL
