MODEL 1
REMARK VINA RESULT:      -7.6      0.000      0.000
REMARK  Name = 
REMARK  6 active torsions:
REMARK  status: ('A' for Active; 'I' for Inactive)
REMARK    1  A    between atoms: C_1  and  C_2
REMARK    2  A    between atoms: C_2  and  C_3
REMARK    3  A    between atoms: C_6  and  C_7
REMARK    4  A    between atoms: C_7  and  N_8
REMARK    5  A    between atoms: C_9  and  C_11
REMARK    6  A    between atoms: C_11  and  N_12
REMARK                            x       y       z     vdW  Elec       q    Type
REMARK                         _______ _______ _______ _____ _____    ______ ____
ROOT
ATOM      1  N   UNL     1       1.526   9.444  18.084  0.00  0.00    +0.000 N 
ATOM      2  C   UNL     1       1.981   8.314  18.864  0.00  0.00    +0.000 C 
ATOM      3  O   UNL     1       1.678   8.286  20.066  0.00  0.00    +0.000 OA
ATOM      4  H   UNL     1       1.380   9.272  17.101  0.00  0.00    +0.000 HD
ENDROOT
BRANCH   1   5
ATOM      5  C   UNL     1       0.659  10.524  18.675  0.00  0.00    +0.000 C 
BRANCH   5   9
ATOM      6  C   UNL     1      -3.680  11.019  17.715  0.00  0.00    +0.000 A 
ATOM      7  C   UNL     1      -3.043  11.788  18.695  0.00  0.00    +0.000 A 
ATOM      8  C   UNL     1      -1.671  11.575  19.017  0.00  0.00    +0.000 A 
ATOM      9  C   UNL     1      -0.868  10.589  18.372  0.00  0.00    +0.000 A 
ATOM     10  C   UNL     1      -1.532   9.838  17.392  0.00  0.00    +0.000 A 
ATOM     11  C   UNL     1      -2.892  10.045  17.074  0.00  0.00    +0.000 A 
BRANCH   6  13
ATOM     12  C   UNL     1      -6.133  10.940  18.508  0.00  0.00    +0.000 C 
ATOM     13  C   UNL     1      -5.149  11.221  17.371  0.00  0.00    +0.000 C 
ENDBRANCH   6  13
ENDBRANCH   5   9
ENDBRANCH   1   5
BRANCH   2  14
ATOM     14  C   UNL     1       2.787   7.122  18.051  0.00  0.00    +0.000 C 
BRANCH  14  15
ATOM     15  N   UNL     1       3.325   5.860  18.770  0.00  0.00    +0.000 N 
ATOM     16  C   UNL     1       4.529   5.221  18.249  0.00  0.00    +0.000 C 
ATOM     17  C   UNL     1       4.199   4.334  17.049  0.00  0.00    +0.000 C 
ATOM     18  S   UNL     1       3.042   2.974  17.350  0.00  0.00    +0.000 S 
ATOM     19  C   UNL     1       2.129   3.650  18.757  0.00  0.00    +0.000 A 
ATOM     20  C   UNL     1       1.362   2.649  19.403  0.00  0.00    +0.000 A 
ATOM     21  C   UNL     1       1.235   2.658  20.781  0.00  0.00    +0.000 A 
ATOM     22  C   UNL     1       1.851   3.684  21.486  0.00  0.00    +0.000 A 
ATOM     23  C   UNL     1       2.436   4.787  20.805  0.00  0.00    +0.000 A 
ATOM     24  C   UNL     1       2.521   4.857  19.395  0.00  0.00    +0.000 A 
ENDBRANCH  14  15
ENDBRANCH   2  14
TORSDOF 5
ENDMDL
MODEL 2
REMARK VINA RESULT:      -7.5      0.764      1.260
REMARK  Name = 
REMARK  6 active torsions:
REMARK  status: ('A' for Active; 'I' for Inactive)
REMARK    1  A    between atoms: C_1  and  C_2
REMARK    2  A    between atoms: C_2  and  C_3
REMARK    3  A    between atoms: C_6  and  C_7
REMARK    4  A    between atoms: C_7  and  N_8
REMARK    5  A    between atoms: C_9  and  C_11
REMARK    6  A    between atoms: C_11  and  N_12
REMARK                            x       y       z     vdW  Elec       q    Type
REMARK                         _______ _______ _______ _____ _____    ______ ____
ROOT
ATOM      1  N   UNL     1       0.893   9.957  18.053  0.00  0.00    +0.000 N 
ATOM      2  C   UNL     1       1.544   8.929  18.833  0.00  0.00    +0.000 C 
ATOM      3  O   UNL     1       1.444   8.995  20.068  0.00  0.00    +0.000 OA
ATOM      4  H   UNL     1       0.600   9.689  17.125  0.00  0.00    +0.000 HD
ENDROOT
BRANCH   1   5
ATOM      5  C   UNL     1       0.064  11.040  18.692  0.00  0.00    +0.000 C 
BRANCH   5   9
ATOM      6  C   UNL     1      -4.365  11.028  18.071  0.00  0.00    +0.000 A 
ATOM      7  C   UNL     1      -3.522  10.107  17.437  0.00  0.00    +0.000 A 
ATOM      8  C   UNL     1      -2.109  10.165  17.613  0.00  0.00    +0.000 A 
ATOM      9  C   UNL     1      -1.470  11.141  18.433  0.00  0.00    +0.000 A 
ATOM     10  C   UNL     1      -2.340  12.045  19.058  0.00  0.00    +0.000 A 
ATOM     11  C   UNL     1      -3.739  11.992  18.882  0.00  0.00    +0.000 A 
BRANCH   6  13
ATOM     12  C   UNL     1      -6.655  10.266  18.979  0.00  0.00    +0.000 C 
ATOM     13  C   UNL     1      -5.874  10.991  17.881  0.00  0.00    +0.000 C 
ENDBRANCH   6  13
ENDBRANCH   5   9
ENDBRANCH   1   5
BRANCH   2  14
ATOM     14  C   UNL     1       2.284   7.712  17.995  0.00  0.00    +0.000 C 
BRANCH  14  15
ATOM     15  N   UNL     1       2.913   6.490  18.710  0.00  0.00    +0.000 N 
ATOM     16  C   UNL     1       4.270   6.093  18.347  0.00  0.00    +0.000 C 
ATOM     17  C   UNL     1       4.271   5.274  17.057  0.00  0.00    +0.000 C 
ATOM     18  S   UNL     1       3.325   3.731  17.085  0.00  0.00    +0.000 S 
ATOM     19  C   UNL     1       2.116   4.132  18.369  0.00  0.00    +0.000 A 
ATOM     20  C   UNL     1       1.441   2.971  18.820  0.00  0.00    +0.000 A 
ATOM     21  C   UNL     1       1.113   2.840  20.159  0.00  0.00    +0.000 A 
ATOM     22  C   UNL     1       1.439   3.883  21.016  0.00  0.00    +0.000 A 
ATOM     23  C   UNL     1       1.927   5.119  20.507  0.00  0.00    +0.000 A 
ATOM     24  C   UNL     1       2.204   5.324  19.135  0.00  0.00    +0.000 A 
ENDBRANCH  14  15
ENDBRANCH   2  14
TORSDOF 5
ENDMDL
MODEL 3
REMARK VINA RESULT:      -7.5      1.132      1.143
REMARK  Name = 
REMARK  6 active torsions:
REMARK  status: ('A' for Active; 'I' for Inactive)
REMARK    1  A    between atoms: C_1  and  C_2
REMARK    2  A    between atoms: C_2  and  C_3
REMARK    3  A    between atoms: C_6  and  C_7
REMARK    4  A    between atoms: C_7  and  N_8
REMARK    5  A    between atoms: C_9  and  C_11
REMARK    6  A    between atoms: C_11  and  N_12
REMARK                            x       y       z     vdW  Elec       q    Type
REMARK                         _______ _______ _______ _____ _____    ______ ____
ROOT
ATOM      1  N   UNL     1       1.630   8.639  19.157  0.00  0.00    +0.000 N 
ATOM      2  C   UNL     1       2.436   8.675  17.957  0.00  0.00    +0.000 C 
ATOM      3  O   UNL     1       2.397   9.706  17.269  0.00  0.00    +0.000 OA
ATOM      4  H   UNL     1       1.971   8.050  19.901  0.00  0.00    +0.000 HD
ENDROOT
BRANCH   1   5
ATOM      5  C   UNL     1       0.818   9.825  19.609  0.00  0.00    +0.000 C 
BRANCH   5   9
ATOM      6  C   UNL     1      -2.990  11.123  17.658  0.00  0.00    +0.000 A 
ATOM      7  C   UNL     1      -2.552  11.669  18.870  0.00  0.00    +0.000 A 
ATOM      8  C   UNL     1      -1.360  11.202  19.495  0.00  0.00    +0.000 A 
ATOM      9  C   UNL     1      -0.546  10.171  18.940  0.00  0.00    +0.000 A 
ATOM     10  C   UNL     1      -1.009   9.647  17.724  0.00  0.00    +0.000 A 
ATOM     11  C   UNL     1      -2.191  10.107  17.104  0.00  0.00    +0.000 A 
BRANCH   6  13
ATOM     12  C   UNL     1      -5.487  11.723  17.903  0.00  0.00    +0.000 C 
ATOM     13  C   UNL     1      -4.269  11.599  16.984  0.00  0.00    +0.000 C 
ENDBRANCH   6  13
ENDBRANCH   5   9
ENDBRANCH   1   5
BRANCH   2  14
ATOM     14  C   UNL     1       3.401   7.366  17.667  0.00  0.00    +0.000 C 
BRANCH  14  15
ATOM     15  N   UNL     1       3.536   6.206  18.684  0.00  0.00    +0.000 N 
ATOM     16  C   UNL     1       4.851   5.607  18.888  0.00  0.00    +0.000 C 
ATOM     17  C   UNL     1       5.171   4.604  17.780  0.00  0.00    +0.000 C 
ATOM     18  S   UNL     1       4.040   3.200  17.617  0.00  0.00    +0.000 S 
ATOM     19  C   UNL     1       2.540   3.928  18.319  0.00  0.00    +0.000 A 
ATOM     20  C   UNL     1       1.572   2.934  18.608  0.00  0.00    +0.000 A 
ATOM     21  C   UNL     1       0.782   3.048  19.738  0.00  0.00    +0.000 A 
ATOM     22  C   UNL     1       0.952   4.168  20.543  0.00  0.00    +0.000 A 
ATOM     23  C   UNL     1       1.778   5.247  20.124  0.00  0.00    +0.000 A 
ATOM     24  C   UNL     1       2.546   5.207  18.937  0.00  0.00    +0.000 A 
ENDBRANCH  14  15
ENDBRANCH   2  14
TORSDOF 5
ENDMDL
MODEL 4
REMARK VINA RESULT:      -7.3      1.135      1.507
REMARK  Name = 
REMARK  6 active torsions:
REMARK  status: ('A' for Active; 'I' for Inactive)
REMARK    1  A    between atoms: C_1  and  C_2
REMARK    2  A    between atoms: C_2  and  C_3
REMARK    3  A    between atoms: C_6  and  C_7
REMARK    4  A    between atoms: C_7  and  N_8
REMARK    5  A    between atoms: C_9  and  C_11
REMARK    6  A    between atoms: C_11  and  N_12
REMARK                            x       y       z     vdW  Elec       q    Type
REMARK                         _______ _______ _______ _____ _____    ______ ____
ROOT
ATOM      1  N   UNL     1       1.130   8.807  18.794  0.00  0.00    +0.000 N 
ATOM      2  C   UNL     1       2.230   9.068  17.893  0.00  0.00    +0.000 C 
ATOM      3  O   UNL     1       2.468  10.251  17.603  0.00  0.00    +0.000 OA
ATOM      4  H   UNL     1       1.205   7.970  19.352  0.00  0.00    +0.000 HD
ENDROOT
BRANCH   1   5
ATOM      5  C   UNL     1       0.331   9.919  19.422  0.00  0.00    +0.000 C 
BRANCH   5   9
ATOM      6  C   UNL     1      -3.493  11.186  17.481  0.00  0.00    +0.000 A 
ATOM      7  C   UNL     1      -2.626  10.263  16.884  0.00  0.00    +0.000 A 
ATOM      8  C   UNL     1      -1.390   9.915  17.500  0.00  0.00    +0.000 A 
ATOM      9  C   UNL     1      -0.961  10.467  18.743  0.00  0.00    +0.000 A 
ATOM     10  C   UNL     1      -1.852  11.384  19.318  0.00  0.00    +0.000 A 
ATOM     11  C   UNL     1      -3.076  11.733  18.708  0.00  0.00    +0.000 A 
BRANCH   6  13
ATOM     12  C   UNL     1      -5.746  12.422  17.699  0.00  0.00    +0.000 C 
ATOM     13  C   UNL     1      -4.810  11.582  16.828  0.00  0.00    +0.000 C 
ENDBRANCH   6  13
ENDBRANCH   5   9
ENDBRANCH   1   5
BRANCH   2  14
ATOM     14  C   UNL     1       3.123   7.766  17.406  0.00  0.00    +0.000 C 
BRANCH  14  15
ATOM     15  N   UNL     1       3.438   6.587  18.360  0.00  0.00    +0.000 N 
ATOM     16  C   UNL     1       4.759   5.970  18.291  0.00  0.00    +0.000 C 
ATOM     17  C   UNL     1       4.841   4.983  17.128  0.00  0.00    +0.000 C 
ATOM     18  S   UNL     1       3.680   3.595  17.170  0.00  0.00    +0.000 S 
ATOM     19  C   UNL     1       2.358   4.327  18.164  0.00  0.00    +0.000 A 
ATOM     20  C   UNL     1       1.452   3.339  18.623  0.00  0.00    +0.000 A 
ATOM     21  C   UNL     1       0.901   3.442  19.888  0.00  0.00    +0.000 A 
ATOM     22  C   UNL     1       1.241   4.546  20.660  0.00  0.00    +0.000 A 
ATOM     23  C   UNL     1       1.984   5.623  20.103  0.00  0.00    +0.000 A 
ATOM     24  C   UNL     1       2.503   5.594  18.788  0.00  0.00    +0.000 A 
ENDBRANCH  14  15
ENDBRANCH   2  14
TORSDOF 5
ENDMDL
MODEL 5
REMARK VINA RESULT:      -7.3      5.646      8.450
REMARK  Name = 
REMARK  6 active torsions:
REMARK  status: ('A' for Active; 'I' for Inactive)
REMARK    1  A    between atoms: C_1  and  C_2
REMARK    2  A    between atoms: C_2  and  C_3
REMARK    3  A    between atoms: C_6  and  C_7
REMARK    4  A    between atoms: C_7  and  N_8
REMARK    5  A    between atoms: C_9  and  C_11
REMARK    6  A    between atoms: C_11  and  N_12
REMARK                            x       y       z     vdW  Elec       q    Type
REMARK                         _______ _______ _______ _____ _____    ______ ____
ROOT
ATOM      1  N   UNL     1       7.407   8.014  18.184  0.00  0.00    +0.000 N 
ATOM      2  C   UNL     1       7.235   6.732  17.538  0.00  0.00    +0.000 C 
ATOM      3  O   UNL     1       7.639   6.618  16.370  0.00  0.00    +0.000 OA
ATOM      4  H   UNL     1       7.498   7.993  19.189  0.00  0.00    +0.000 HD
ENDROOT
BRANCH   1   5
ATOM      5  C   UNL     1       8.107   9.162  17.507  0.00  0.00    +0.000 C 
BRANCH   5   9
ATOM      6  C   UNL     1       9.942  12.479  19.879  0.00  0.00    +0.000 A 
ATOM      7  C   UNL     1       9.435  12.679  18.590  0.00  0.00    +0.000 A 
ATOM      8  C   UNL     1       8.901  11.594  17.836  0.00  0.00    +0.000 A 
ATOM      9  C   UNL     1       8.843  10.259  18.334  0.00  0.00    +0.000 A 
ATOM     10  C   UNL     1       9.354  10.091  19.629  0.00  0.00    +0.000 A 
ATOM     11  C   UNL     1       9.886  11.164  20.376  0.00  0.00    +0.000 A 
BRANCH   6  13
ATOM     12  C   UNL     1       9.578  14.271  21.698  0.00  0.00    +0.000 C 
ATOM     13  C   UNL     1      10.531  13.624  20.691  0.00  0.00    +0.000 C 
ENDBRANCH   6  13
ENDBRANCH   5   9
ENDBRANCH   1   5
BRANCH   2  14
ATOM     14  C   UNL     1       6.597   5.513  18.453  0.00  0.00    +0.000 C 
BRANCH  14  15
ATOM     15  N   UNL     1       5.165   4.973  18.213  0.00  0.00    +0.000 N 
ATOM     16  C   UNL     1       4.373   5.555  17.134  0.00  0.00    +0.000 C 
ATOM     17  C   UNL     1       3.745   6.877  17.572  0.00  0.00    +0.000 C 
ATOM     18  S   UNL     1       2.620   6.802  18.989  0.00  0.00    +0.000 S 
ATOM     19  C   UNL     1       3.268   5.332  19.820  0.00  0.00    +0.000 A 
ATOM     20  C   UNL     1       2.364   4.855  20.801  0.00  0.00    +0.000 A 
ATOM     21  C   UNL     1       2.209   3.494  20.994  0.00  0.00    +0.000 A 
ATOM     22  C   UNL     1       2.982   2.634  20.224  0.00  0.00    +0.000 A 
ATOM     23  C   UNL     1       4.026   3.135  19.398  0.00  0.00    +0.000 A 
ATOM     24  C   UNL     1       4.270   4.518  19.230  0.00  0.00    +0.000 A 
ENDBRANCH  14  15
ENDBRANCH   2  14
TORSDOF 5
ENDMDL
MODEL 6
REMARK VINA RESULT:      -7.3      1.479      3.134
REMARK  Name = 
REMARK  6 active torsions:
REMARK  status: ('A' for Active; 'I' for Inactive)
REMARK    1  A    between atoms: C_1  and  C_2
REMARK    2  A    between atoms: C_2  and  C_3
REMARK    3  A    between atoms: C_6  and  C_7
REMARK    4  A    between atoms: C_7  and  N_8
REMARK    5  A    between atoms: C_9  and  C_11
REMARK    6  A    between atoms: C_11  and  N_12
REMARK                            x       y       z     vdW  Elec       q    Type
REMARK                         _______ _______ _______ _____ _____    ______ ____
ROOT
ATOM      1  N   UNL     1       1.068   9.301  19.322  0.00  0.00    +0.000 N 
ATOM      2  C   UNL     1       1.901   8.585  18.382  0.00  0.00    +0.000 C 
ATOM      3  O   UNL     1       2.018   9.059  17.241  0.00  0.00    +0.000 OA
ATOM      4  H   UNL     1       1.308   9.194  20.296  0.00  0.00    +0.000 HD
ENDROOT
BRANCH   1   5
ATOM      5  C   UNL     1       0.410  10.609  18.971  0.00  0.00    +0.000 C 
BRANCH   5   9
ATOM      6  C   UNL     1      -3.821  11.093  17.606  0.00  0.00    +0.000 A 
ATOM      7  C   UNL     1      -3.313  11.782  18.713  0.00  0.00    +0.000 A 
ATOM      8  C   UNL     1      -1.976  11.572  19.157  0.00  0.00    +0.000 A 
ATOM      9  C   UNL     1      -1.079  10.667  18.515  0.00  0.00    +0.000 A 
ATOM     10  C   UNL     1      -1.614   9.995  17.407  0.00  0.00    +0.000 A 
ATOM     11  C   UNL     1      -2.940  10.200  16.968  0.00  0.00    +0.000 A 
BRANCH   6  13
ATOM     12  C   UNL     1      -5.824  12.696  17.343  0.00  0.00    +0.000 C 
ATOM     13  C   UNL     1      -5.251  11.293  17.128  0.00  0.00    +0.000 C 
ENDBRANCH   6  13
ENDBRANCH   5   9
ENDBRANCH   1   5
BRANCH   2  14
ATOM     14  C   UNL     1       2.691   7.249  18.950  0.00  0.00    +0.000 C 
BRANCH  14  15
ATOM     15  N   UNL     1       3.121   6.093  18.014  0.00  0.00    +0.000 N 
ATOM     16  C   UNL     1       2.368   4.844  18.058  0.00  0.00    +0.000 C 
ATOM     17  C   UNL     1       2.809   3.982  19.240  0.00  0.00    +0.000 C 
ATOM     18  S   UNL     1       4.548   3.479  19.262  0.00  0.00    +0.000 S 
ATOM     19  C   UNL     1       5.271   4.822  18.290  0.00  0.00    +0.000 A 
ATOM     20  C   UNL     1       6.590   4.507  17.879  0.00  0.00    +0.000 A 
ATOM     21  C   UNL     1       7.035   4.898  16.627  0.00  0.00    +0.000 A 
ATOM     22  C   UNL     1       6.164   5.621  15.822  0.00  0.00    +0.000 A 
ATOM     23  C   UNL     1       4.927   6.101  16.334  0.00  0.00    +0.000 A 
ATOM     24  C   UNL     1       4.466   5.791  17.635  0.00  0.00    +0.000 A 
ENDBRANCH  14  15
ENDBRANCH   2  14
TORSDOF 5
ENDMDL
MODEL 7
REMARK VINA RESULT:      -7.1      3.147      4.076
REMARK  Name = 
REMARK  6 active torsions:
REMARK  status: ('A' for Active; 'I' for Inactive)
REMARK    1  A    between atoms: C_1  and  C_2
REMARK    2  A    between atoms: C_2  and  C_3
REMARK    3  A    between atoms: C_6  and  C_7
REMARK    4  A    between atoms: C_7  and  N_8
REMARK    5  A    between atoms: C_9  and  C_11
REMARK    6  A    between atoms: C_11  and  N_12
REMARK                            x       y       z     vdW  Elec       q    Type
REMARK                         _______ _______ _______ _____ _____    ______ ____
ROOT
ATOM      1  N   UNL     1       3.904   6.136  17.635  0.00  0.00    +0.000 N 
ATOM      2  C   UNL     1       5.227   5.770  18.088  0.00  0.00    +0.000 C 
ATOM      3  O   UNL     1       6.015   6.688  18.363  0.00  0.00    +0.000 OA
ATOM      4  H   UNL     1       3.170   5.472  17.832  0.00  0.00    +0.000 HD
ENDROOT
BRANCH   1   5
ATOM      5  C   UNL     1       3.456   7.572  17.557  0.00  0.00    +0.000 C 
BRANCH   5   9
ATOM      6  C   UNL     1       0.591   9.231  20.563  0.00  0.00    +0.000 A 
ATOM      7  C   UNL     1       1.336   8.072  20.807  0.00  0.00    +0.000 A 
ATOM      8  C   UNL     1       2.205   7.537  19.812  0.00  0.00    +0.000 A 
ATOM      9  C   UNL     1       2.374   8.134  18.528  0.00  0.00    +0.000 A 
ATOM     10  C   UNL     1       1.618   9.295  18.315  0.00  0.00    +0.000 A 
ATOM     11  C   UNL     1       0.755   9.825  19.298  0.00  0.00    +0.000 A 
BRANCH   6  13
ATOM     12  C   UNL     1       0.025   9.521  23.062  0.00  0.00    +0.000 C 
ATOM     13  C   UNL     1      -0.354   9.807  21.607  0.00  0.00    +0.000 C 
ENDBRANCH   6  13
ENDBRANCH   5   9
ENDBRANCH   1   5
BRANCH   2  14
ATOM     14  C   UNL     1       5.531   4.157  18.281  0.00  0.00    +0.000 C 
BRANCH  14  15
ATOM     15  N   UNL     1       4.407   3.147  18.620  0.00  0.00    +0.000 N 
ATOM     16  C   UNL     1       3.793   2.396  17.529  0.00  0.00    +0.000 C 
ATOM     17  C   UNL     1       2.744   3.242  16.809  0.00  0.00    +0.000 C 
ATOM     18  S   UNL     1       1.356   3.827  17.812  0.00  0.00    +0.000 S 
ATOM     19  C   UNL     1       2.136   3.836  19.444  0.00  0.00    +0.000 A 
ATOM     20  C   UNL     1       1.171   3.953  20.475  0.00  0.00    +0.000 A 
ATOM     21  C   UNL     1       1.341   3.260  21.661  0.00  0.00    +0.000 A 
ATOM     22  C   UNL     1       2.486   2.487  21.807  0.00  0.00    +0.000 A 
ATOM     23  C   UNL     1       3.534   2.550  20.848  0.00  0.00    +0.000 A 
ATOM     24  C   UNL     1       3.436   3.306  19.656  0.00  0.00    +0.000 A 
ENDBRANCH  14  15
ENDBRANCH   2  14
TORSDOF 5
ENDMDL
MODEL 8
REMARK VINA RESULT:      -7.1      6.669      9.265
REMARK  Name = 
REMARK  6 active torsions:
REMARK  status: ('A' for Active; 'I' for Inactive)
REMARK    1  A    between atoms: C_1  and  C_2
REMARK    2  A    between atoms: C_2  and  C_3
REMARK    3  A    between atoms: C_6  and  C_7
REMARK    4  A    between atoms: C_7  and  N_8
REMARK    5  A    between atoms: C_9  and  C_11
REMARK    6  A    between atoms: C_11  and  N_12
REMARK                            x       y       z     vdW  Elec       q    Type
REMARK                         _______ _______ _______ _____ _____    ______ ____
ROOT
ATOM      1  N   UNL     1       8.656   8.948  18.649  0.00  0.00    +0.000 N 
ATOM      2  C   UNL     1       7.934   7.857  18.033  0.00  0.00    +0.000 C 
ATOM      3  O   UNL     1       7.386   8.074  16.942  0.00  0.00    +0.000 OA
ATOM      4  H   UNL     1       9.423   8.687  19.250  0.00  0.00    +0.000 HD
ENDROOT
BRANCH   1   5
ATOM      5  C   UNL     1       8.805  10.287  17.976  0.00  0.00    +0.000 C 
BRANCH   5   9
ATOM      6  C   UNL     1      10.625  13.846  19.983  0.00  0.00    +0.000 A 
ATOM      7  C   UNL     1      10.134  13.901  18.673  0.00  0.00    +0.000 A 
ATOM      8  C   UNL     1       9.604  12.739  18.040  0.00  0.00    +0.000 A 
ATOM      9  C   UNL     1       9.536  11.469  18.684  0.00  0.00    +0.000 A 
ATOM     10  C   UNL     1      10.031  11.446  19.995  0.00  0.00    +0.000 A 
ATOM     11  C   UNL     1      10.559  12.595  20.623  0.00  0.00    +0.000 A 
BRANCH   6  13
ATOM     12  C   UNL     1      12.333  15.776  19.905  0.00  0.00    +0.000 C 
ATOM     13  C   UNL     1      11.208  15.073  20.668  0.00  0.00    +0.000 C 
ENDBRANCH   6  13
ENDBRANCH   5   9
ENDBRANCH   1   5
BRANCH   2  14
ATOM     14  C   UNL     1       7.987   6.397  18.804  0.00  0.00    +0.000 C 
BRANCH  14  15
ATOM     15  N   UNL     1       7.007   5.250  18.454  0.00  0.00    +0.000 N 
ATOM     16  C   UNL     1       7.346   4.356  17.351  0.00  0.00    +0.000 C 
ATOM     17  C   UNL     1       6.999   4.994  16.007  0.00  0.00    +0.000 C 
ATOM     18  S   UNL     1       5.259   5.418  15.745  0.00  0.00    +0.000 S 
ATOM     19  C   UNL     1       4.731   5.634  17.461  0.00  0.00    +0.000 A 
ATOM     20  C   UNL     1       3.318   5.662  17.566  0.00  0.00    +0.000 A 
ATOM     21  C   UNL     1       2.695   5.069  18.650  0.00  0.00    +0.000 A 
ATOM     22  C   UNL     1       3.495   4.486  19.625  0.00  0.00    +0.000 A 
ATOM     23  C   UNL     1       4.908   4.653  19.603  0.00  0.00    +0.000 A 
ATOM     24  C   UNL     1       5.583   5.318  18.553  0.00  0.00    +0.000 A 
ENDBRANCH  14  15
ENDBRANCH   2  14
TORSDOF 5
ENDMDL
MODEL 9
REMARK VINA RESULT:      -7.1      3.286      4.924
REMARK  Name = 
REMARK  6 active torsions:
REMARK  status: ('A' for Active; 'I' for Inactive)
REMARK    1  A    between atoms: C_1  and  C_2
REMARK    2  A    between atoms: C_2  and  C_3
REMARK    3  A    between atoms: C_6  and  C_7
REMARK    4  A    between atoms: C_7  and  N_8
REMARK    5  A    between atoms: C_9  and  C_11
REMARK    6  A    between atoms: C_11  and  N_12
REMARK                            x       y       z     vdW  Elec       q    Type
REMARK                         _______ _______ _______ _____ _____    ______ ____
ROOT
ATOM      1  N   UNL     1       2.070   7.607  20.226  0.00  0.00    +0.000 N 
ATOM      2  C   UNL     1       2.397   6.347  19.596  0.00  0.00    +0.000 C 
ATOM      3  O   UNL     1       1.845   5.326  20.032  0.00  0.00    +0.000 OA
ATOM      4  H   UNL     1       2.146   8.426  19.642  0.00  0.00    +0.000 HD
ENDROOT
BRANCH   1   5
ATOM      5  C   UNL     1       1.048   7.707  21.328  0.00  0.00    +0.000 C 
BRANCH   5   9
ATOM      6  C   UNL     1      -1.181  11.512  22.066  0.00  0.00    +0.000 A 
ATOM      7  C   UNL     1      -0.858  10.627  23.101  0.00  0.00    +0.000 A 
ATOM      8  C   UNL     1      -0.190   9.397  22.832  0.00  0.00    +0.000 A 
ATOM      9  C   UNL     1       0.189   8.993  21.518  0.00  0.00    +0.000 A 
ATOM     10  C   UNL     1      -0.144   9.902  20.503  0.00  0.00    +0.000 A 
ATOM     11  C   UNL     1      -0.808  11.119  20.768  0.00  0.00    +0.000 A 
BRANCH   6  13
ATOM     12  C   UNL     1      -1.267  13.723  23.392  0.00  0.00    +0.000 C 
ATOM     13  C   UNL     1      -1.908  12.822  22.334  0.00  0.00    +0.000 C 
ENDBRANCH   6  13
ENDBRANCH   5   9
ENDBRANCH   1   5
BRANCH   2  14
ATOM     14  C   UNL     1       3.412   6.405  18.293  0.00  0.00    +0.000 C 
BRANCH  14  15
ATOM     15  N   UNL     1       4.368   5.236  17.947  0.00  0.00    +0.000 N 
ATOM     16  C   UNL     1       5.091   4.583  19.033  0.00  0.00    +0.000 C 
ATOM     17  C   UNL     1       6.318   5.398  19.438  0.00  0.00    +0.000 C 
ATOM     18  S   UNL     1       7.560   5.674  18.151  0.00  0.00    +0.000 S 
ATOM     19  C   UNL     1       6.516   5.540  16.680  0.00  0.00    +0.000 A 
ATOM     20  C   UNL     1       7.296   5.400  15.506  0.00  0.00    +0.000 A 
ATOM     21  C   UNL     1       6.865   4.570  14.485  0.00  0.00    +0.000 A 
ATOM     22  C   UNL     1       5.648   3.919  14.644  0.00  0.00    +0.000 A 
ATOM     23  C   UNL     1       4.790   4.235  15.733  0.00  0.00    +0.000 A 
ATOM     24  C   UNL     1       5.157   5.136  16.760  0.00  0.00    +0.000 A 
ENDBRANCH  14  15
ENDBRANCH   2  14
TORSDOF 5
ENDMDL
