MODEL 1
REMARK VINA RESULT:      -6.6      0.000      0.000
REMARK  Name = 
REMARK  13 active torsions:
REMARK  status: ('A' for Active; 'I' for Inactive)
REMARK    1  A    between atoms: C_1  and  O_2
REMARK    2  A    between atoms: O_2  and  C_3
REMARK    3  A    between atoms: C_3  and  C_5
REMARK    4  A    between atoms: C_9  and  C_10
REMARK    5  A    between atoms: C_10  and  O_12
REMARK    6  A    between atoms: O_12  and  C_13
REMARK    7  A    between atoms: C_14  and  C_15
REMARK    8  A    between atoms: C_17  and  O_18
REMARK    9  A    between atoms: O_18  and  C_19
REMARK   10  A    between atoms: C_20  and  O_21
REMARK   11  A    between atoms: O_21  and  C_22
REMARK   12  A    between atoms: C_24  and  O_25
REMARK   13  A    between atoms: O_25  and  C_26
REMARK                            x       y       z     vdW  Elec       q    Type
REMARK                         _______ _______ _______ _____ _____    ______ ____
ROOT
ATOM      1  C   UNL     1       2.314   5.234  20.076  0.00  0.00    +0.000 C 
ATOM      2  C   UNL     1       1.161   4.669  20.485  0.00  0.00    +0.000 C 
ATOM      3  N   UNL     1       1.099   3.380  20.955  0.00  0.00    +0.000 N 
ATOM      4  C   UNL     1       2.169   2.530  20.844  0.00  0.00    +0.000 C 
ATOM      5  C   UNL     1       3.389   2.951  20.460  0.00  0.00    +0.000 C 
ATOM      6  C   UNL     1       3.635   4.442  20.137  0.00  0.00    +0.000 C 
ATOM      7  H   UNL     1       0.178   2.969  21.098  0.00  0.00    +0.000 HD
ENDROOT
BRANCH   6   8
ATOM      8  C   UNL     1       4.481   4.617  18.874  0.00  0.00    +0.000 A 
ATOM      9  C   UNL     1       5.794   5.107  19.095  0.00  0.00    +0.000 A 
ATOM     10  C   UNL     1       6.689   5.374  18.055  0.00  0.00    +0.000 A 
ATOM     11  C   UNL     1       6.278   5.157  16.738  0.00  0.00    +0.000 A 
ATOM     12  C   UNL     1       4.995   4.654  16.510  0.00  0.00    +0.000 A 
ATOM     13  C   UNL     1       4.085   4.375  17.550  0.00  0.00    +0.000 A 
BRANCH  10  14
ATOM     14  O   UNL     1       7.950   5.874  18.264  0.00  0.00    +0.000 OA
ATOM     15  C   UNL     1       8.035   7.278  18.494  0.00  0.00    +0.000 C 
ENDBRANCH  10  14
BRANCH  11  16
ATOM     16  O   UNL     1       7.176   5.448  15.742  0.00  0.00    +0.000 OA
ATOM     17  C   UNL     1       6.965   4.819  14.482  0.00  0.00    +0.000 C 
ENDBRANCH  11  16
BRANCH  13  18
ATOM     18  O   UNL     1       2.927   3.897  17.012  0.00  0.00    +0.000 OA
ATOM     19  C   UNL     1       2.505   2.557  17.129  0.00  0.00    +0.000 C 
ENDBRANCH  13  18
ENDBRANCH   6   8
BRANCH   1  20
ATOM     20  C   UNL     1       2.207   6.602  19.519  0.00  0.00    +0.000 C 
ATOM     21  O   UNL     1       2.267   6.862  18.329  0.00  0.00    +0.000 OA
BRANCH  20  23
ATOM     22  C   UNL     1       1.397   8.718  20.104  0.00  0.00    +0.000 C 
ATOM     23  O   UNL     1       2.046   7.510  20.508  0.00  0.00    +0.000 OA
ENDBRANCH  20  23
ENDBRANCH   1  20
BRANCH   5  24
ATOM     24  C   UNL     1       4.407   1.892  20.255  0.00  0.00    +0.000 C 
ATOM     25  O   UNL     1       4.450   1.184  19.258  0.00  0.00    +0.000 OA
BRANCH  24  26
ATOM     26  O   UNL     1       5.280   1.843  21.287  0.00  0.00    +0.000 OA
ATOM     27  C   UNL     1       5.667   0.517  21.661  0.00  0.00    +0.000 C 
ENDBRANCH  24  26
ENDBRANCH   5  24
TORSDOF 8
ENDMDL
MODEL 2
REMARK VINA RESULT:      -6.6      0.658      1.013
REMARK  Name = 
REMARK  13 active torsions:
REMARK  status: ('A' for Active; 'I' for Inactive)
REMARK    1  A    between atoms: C_1  and  O_2
REMARK    2  A    between atoms: O_2  and  C_3
REMARK    3  A    between atoms: C_3  and  C_5
REMARK    4  A    between atoms: C_9  and  C_10
REMARK    5  A    between atoms: C_10  and  O_12
REMARK    6  A    between atoms: O_12  and  C_13
REMARK    7  A    between atoms: C_14  and  C_15
REMARK    8  A    between atoms: C_17  and  O_18
REMARK    9  A    between atoms: O_18  and  C_19
REMARK   10  A    between atoms: C_20  and  O_21
REMARK   11  A    between atoms: O_21  and  C_22
REMARK   12  A    between atoms: C_24  and  O_25
REMARK   13  A    between atoms: O_25  and  C_26
REMARK                            x       y       z     vdW  Elec       q    Type
REMARK                         _______ _______ _______ _____ _____    ______ ____
ROOT
ATOM      1  C   UNL     1       2.472   5.163  20.073  0.00  0.00    +0.000 C 
ATOM      2  C   UNL     1       1.281   4.650  20.439  0.00  0.00    +0.000 C 
ATOM      3  N   UNL     1       1.148   3.373  20.925  0.00  0.00    +0.000 N 
ATOM      4  C   UNL     1       2.187   2.480  20.875  0.00  0.00    +0.000 C 
ATOM      5  C   UNL     1       3.439   2.847  20.540  0.00  0.00    +0.000 C 
ATOM      6  C   UNL     1       3.758   4.321  20.205  0.00  0.00    +0.000 C 
ATOM      7  H   UNL     1       0.206   3.000  21.034  0.00  0.00    +0.000 HD
ENDROOT
BRANCH   6   8
ATOM      8  C   UNL     1       4.665   4.442  18.978  0.00  0.00    +0.000 A 
ATOM      9  C   UNL     1       5.812   5.256  19.159  0.00  0.00    +0.000 A 
ATOM     10  C   UNL     1       6.725   5.518  18.134  0.00  0.00    +0.000 A 
ATOM     11  C   UNL     1       6.501   4.963  16.872  0.00  0.00    +0.000 A 
ATOM     12  C   UNL     1       5.386   4.142  16.689  0.00  0.00    +0.000 A 
ATOM     13  C   UNL     1       4.462   3.865  17.715  0.00  0.00    +0.000 A 
BRANCH  10  14
ATOM     14  O   UNL     1       7.821   6.327  18.297  0.00  0.00    +0.000 OA
ATOM     15  C   UNL     1       7.679   7.671  17.842  0.00  0.00    +0.000 C 
ENDBRANCH  10  14
BRANCH  11  16
ATOM     16  O   UNL     1       7.408   5.257  15.884  0.00  0.00    +0.000 OA
ATOM     17  C   UNL     1       7.047   4.902  14.553  0.00  0.00    +0.000 C 
ENDBRANCH  11  16
BRANCH  13  18
ATOM     18  O   UNL     1       3.493   3.037  17.231  0.00  0.00    +0.000 OA
ATOM     19  C   UNL     1       2.141   3.412  17.091  0.00  0.00    +0.000 C 
ENDBRANCH  13  18
ENDBRANCH   6   8
BRANCH   1  20
ATOM     20  C   UNL     1       2.445   6.525  19.491  0.00  0.00    +0.000 C 
ATOM     21  O   UNL     1       2.319   7.545  20.148  0.00  0.00    +0.000 OA
BRANCH  20  23
ATOM     22  C   UNL     1       3.324   7.545  17.578  0.00  0.00    +0.000 C 
ATOM     23  O   UNL     1       2.568   6.474  18.146  0.00  0.00    +0.000 OA
ENDBRANCH  20  23
ENDBRANCH   1  20
BRANCH   5  24
ATOM     24  C   UNL     1       4.422   1.746  20.396  0.00  0.00    +0.000 C 
ATOM     25  O   UNL     1       4.443   0.982  19.441  0.00  0.00    +0.000 OA
BRANCH  24  26
ATOM     26  O   UNL     1       5.293   1.727  21.431  0.00  0.00    +0.000 OA
ATOM     27  C   UNL     1       5.783   0.423  21.757  0.00  0.00    +0.000 C 
ENDBRANCH  24  26
ENDBRANCH   5  24
TORSDOF 8
ENDMDL
MODEL 3
REMARK VINA RESULT:      -6.1      0.886      1.207
REMARK  Name = 
REMARK  13 active torsions:
REMARK  status: ('A' for Active; 'I' for Inactive)
REMARK    1  A    between atoms: C_1  and  O_2
REMARK    2  A    between atoms: O_2  and  C_3
REMARK    3  A    between atoms: C_3  and  C_5
REMARK    4  A    between atoms: C_9  and  C_10
REMARK    5  A    between atoms: C_10  and  O_12
REMARK    6  A    between atoms: O_12  and  C_13
REMARK    7  A    between atoms: C_14  and  C_15
REMARK    8  A    between atoms: C_17  and  O_18
REMARK    9  A    between atoms: O_18  and  C_19
REMARK   10  A    between atoms: C_20  and  O_21
REMARK   11  A    between atoms: O_21  and  C_22
REMARK   12  A    between atoms: C_24  and  O_25
REMARK   13  A    between atoms: O_25  and  C_26
REMARK                            x       y       z     vdW  Elec       q    Type
REMARK                         _______ _______ _______ _____ _____    ______ ____
ROOT
ATOM      1  C   UNL     1       2.262   5.627  20.132  0.00  0.00    +0.000 C 
ATOM      2  C   UNL     1       1.103   5.150  20.627  0.00  0.00    +0.000 C 
ATOM      3  N   UNL     1       0.963   3.851  21.051  0.00  0.00    +0.000 N 
ATOM      4  C   UNL     1       1.934   2.914  20.805  0.00  0.00    +0.000 C 
ATOM      5  C   UNL     1       3.149   3.242  20.324  0.00  0.00    +0.000 C 
ATOM      6  C   UNL     1       3.503   4.717  20.036  0.00  0.00    +0.000 C 
ATOM      7  H   UNL     1       0.025   3.518  21.266  0.00  0.00    +0.000 HD
ENDROOT
BRANCH   6   8
ATOM      8  C   UNL     1       4.243   4.875  18.706  0.00  0.00    +0.000 A 
ATOM      9  C   UNL     1       5.486   5.553  18.788  0.00  0.00    +0.000 A 
ATOM     10  C   UNL     1       6.274   5.830  17.668  0.00  0.00    +0.000 A 
ATOM     11  C   UNL     1       5.822   5.430  16.408  0.00  0.00    +0.000 A 
ATOM     12  C   UNL     1       4.610   4.742  16.319  0.00  0.00    +0.000 A 
ATOM     13  C   UNL     1       3.809   4.452  17.441  0.00  0.00    +0.000 A 
BRANCH  10  14
ATOM     14  O   UNL     1       7.465   6.509  17.740  0.00  0.00    +0.000 OA
ATOM     15  C   UNL     1       8.151   6.435  18.987  0.00  0.00    +0.000 C 
ENDBRANCH  10  14
BRANCH  11  16
ATOM     16  O   UNL     1       6.613   5.735  15.329  0.00  0.00    +0.000 OA
ATOM     17  C   UNL     1       6.748   4.733  14.326  0.00  0.00    +0.000 C 
ENDBRANCH  11  16
BRANCH  13  18
ATOM     18  O   UNL     1       2.699   3.774  17.032  0.00  0.00    +0.000 OA
ATOM     19  C   UNL     1       1.380   4.210  17.278  0.00  0.00    +0.000 C 
ENDBRANCH  13  18
ENDBRANCH   6   8
BRANCH   1  20
ATOM     20  C   UNL     1       2.235   7.025  19.641  0.00  0.00    +0.000 C 
ATOM     21  O   UNL     1       2.532   7.355  18.505  0.00  0.00    +0.000 OA
BRANCH  20  23
ATOM     22  C   UNL     1       1.105   9.004  20.169  0.00  0.00    +0.000 C 
ATOM     23  O   UNL     1       1.847   7.869  20.622  0.00  0.00    +0.000 OA
ENDBRANCH  20  23
ENDBRANCH   1  20
BRANCH   5  24
ATOM     24  C   UNL     1       4.039   2.106  19.982  0.00  0.00    +0.000 C 
ATOM     25  O   UNL     1       5.161   1.966  20.450  0.00  0.00    +0.000 OA
BRANCH  24  26
ATOM     26  O   UNL     1       3.438   1.251  19.123  0.00  0.00    +0.000 OA
ATOM     27  C   UNL     1       4.193   0.988  17.937  0.00  0.00    +0.000 C 
ENDBRANCH  24  26
ENDBRANCH   5  24
TORSDOF 8
ENDMDL
MODEL 4
REMARK VINA RESULT:      -5.9      2.478      5.534
REMARK  Name = 
REMARK  13 active torsions:
REMARK  status: ('A' for Active; 'I' for Inactive)
REMARK    1  A    between atoms: C_1  and  O_2
REMARK    2  A    between atoms: O_2  and  C_3
REMARK    3  A    between atoms: C_3  and  C_5
REMARK    4  A    between atoms: C_9  and  C_10
REMARK    5  A    between atoms: C_10  and  O_12
REMARK    6  A    between atoms: O_12  and  C_13
REMARK    7  A    between atoms: C_14  and  C_15
REMARK    8  A    between atoms: C_17  and  O_18
REMARK    9  A    between atoms: O_18  and  C_19
REMARK   10  A    between atoms: C_20  and  O_21
REMARK   11  A    between atoms: O_21  and  C_22
REMARK   12  A    between atoms: C_24  and  O_25
REMARK   13  A    between atoms: O_25  and  C_26
REMARK                            x       y       z     vdW  Elec       q    Type
REMARK                         _______ _______ _______ _____ _____    ______ ____
ROOT
ATOM      1  C   UNL     1       5.263   5.473  17.255  0.00  0.00    +0.000 C 
ATOM      2  C   UNL     1       5.991   4.343  17.160  0.00  0.00    +0.000 C 
ATOM      3  N   UNL     1       5.415   3.110  16.977  0.00  0.00    +0.000 N 
ATOM      4  C   UNL     1       4.059   2.934  17.086  0.00  0.00    +0.000 C 
ATOM      5  C   UNL     1       3.202   3.969  17.175  0.00  0.00    +0.000 C 
ATOM      6  C   UNL     1       3.726   5.422  17.146  0.00  0.00    +0.000 C 
ATOM      7  H   UNL     1       6.009   2.288  17.070  0.00  0.00    +0.000 HD
ENDROOT
BRANCH   6   8
ATOM      8  C   UNL     1       3.035   6.296  18.194  0.00  0.00    +0.000 A 
ATOM      9  C   UNL     1       2.497   7.513  17.701  0.00  0.00    +0.000 A 
ATOM     10  C   UNL     1       1.874   8.455  18.523  0.00  0.00    +0.000 A 
ATOM     11  C   UNL     1       1.780   8.200  19.893  0.00  0.00    +0.000 A 
ATOM     12  C   UNL     1       2.288   6.995  20.386  0.00  0.00    +0.000 A 
ATOM     13  C   UNL     1       2.912   6.034  19.567  0.00  0.00    +0.000 A 
BRANCH  10  14
ATOM     14  O   UNL     1       1.376   9.645  18.054  0.00  0.00    +0.000 OA
ATOM     15  C   UNL     1       2.310  10.717  17.954  0.00  0.00    +0.000 C 
ENDBRANCH  10  14
BRANCH  11  16
ATOM     16  O   UNL     1       1.179   9.156  20.673  0.00  0.00    +0.000 OA
ATOM     17  C   UNL     1      -0.008   8.773  21.360  0.00  0.00    +0.000 C 
ENDBRANCH  11  16
BRANCH  13  18
ATOM     18  O   UNL     1       3.295   4.975  20.336  0.00  0.00    +0.000 OA
ATOM     19  C   UNL     1       2.430   4.290  21.213  0.00  0.00    +0.000 C 
ENDBRANCH  13  18
ENDBRANCH   6   8
BRANCH   1  20
ATOM     20  C   UNL     1       6.021   6.715  17.533  0.00  0.00    +0.000 C 
ATOM     21  O   UNL     1       5.891   7.750  16.900  0.00  0.00    +0.000 OA
BRANCH  20  23
ATOM     22  C   UNL     1       8.104   7.251  18.453  0.00  0.00    +0.000 C 
ATOM     23  O   UNL     1       6.872   6.536  18.568  0.00  0.00    +0.000 OA
ENDBRANCH  20  23
ENDBRANCH   1  20
BRANCH   5  24
ATOM     24  C   UNL     1       1.783   3.618  17.425  0.00  0.00    +0.000 C 
ATOM     25  O   UNL     1       0.846   4.345  17.124  0.00  0.00    +0.000 OA
BRANCH  24  26
ATOM     26  O   UNL     1       1.672   2.394  17.991  0.00  0.00    +0.000 OA
ATOM     27  C   UNL     1       0.583   2.273  18.910  0.00  0.00    +0.000 C 
ENDBRANCH  24  26
ENDBRANCH   5  24
TORSDOF 8
ENDMDL
MODEL 5
REMARK VINA RESULT:      -5.8      2.355      5.613
REMARK  Name = 
REMARK  13 active torsions:
REMARK  status: ('A' for Active; 'I' for Inactive)
REMARK    1  A    between atoms: C_1  and  O_2
REMARK    2  A    between atoms: O_2  and  C_3
REMARK    3  A    between atoms: C_3  and  C_5
REMARK    4  A    between atoms: C_9  and  C_10
REMARK    5  A    between atoms: C_10  and  O_12
REMARK    6  A    between atoms: O_12  and  C_13
REMARK    7  A    between atoms: C_14  and  C_15
REMARK    8  A    between atoms: C_17  and  O_18
REMARK    9  A    between atoms: O_18  and  C_19
REMARK   10  A    between atoms: C_20  and  O_21
REMARK   11  A    between atoms: O_21  and  C_22
REMARK   12  A    between atoms: C_24  and  O_25
REMARK   13  A    between atoms: O_25  and  C_26
REMARK                            x       y       z     vdW  Elec       q    Type
REMARK                         _______ _______ _______ _____ _____    ______ ____
ROOT
ATOM      1  C   UNL     1       4.152   3.456  17.145  0.00  0.00    +0.000 C 
ATOM      2  C   UNL     1       4.890   3.269  16.033  0.00  0.00    +0.000 C 
ATOM      3  N   UNL     1       6.191   3.698  15.932  0.00  0.00    +0.000 N 
ATOM      4  C   UNL     1       6.745   4.521  16.879  0.00  0.00    +0.000 C 
ATOM      5  C   UNL     1       6.132   4.792  18.048  0.00  0.00    +0.000 C 
ATOM      6  C   UNL     1       4.760   4.161  18.375  0.00  0.00    +0.000 C 
ATOM      7  H   UNL     1       6.634   3.663  15.015  0.00  0.00    +0.000 HD
ENDROOT
BRANCH   6   8
ATOM      8  C   UNL     1       3.802   5.179  18.999  0.00  0.00    +0.000 A 
ATOM      9  C   UNL     1       3.665   6.393  18.278  0.00  0.00    +0.000 A 
ATOM     10  C   UNL     1       2.871   7.453  18.723  0.00  0.00    +0.000 A 
ATOM     11  C   UNL     1       2.186   7.323  19.934  0.00  0.00    +0.000 A 
ATOM     12  C   UNL     1       2.297   6.123  20.641  0.00  0.00    +0.000 A 
ATOM     13  C   UNL     1       3.089   5.044  20.200  0.00  0.00    +0.000 A 
BRANCH  10  14
ATOM     14  O   UNL     1       2.757   8.639  18.042  0.00  0.00    +0.000 OA
ATOM     15  C   UNL     1       1.466   8.933  17.514  0.00  0.00    +0.000 C 
ENDBRANCH  10  14
BRANCH  11  16
ATOM     16  O   UNL     1       1.432   8.391  20.349  0.00  0.00    +0.000 OA
ATOM     17  C   UNL     1       1.274   8.560  21.754  0.00  0.00    +0.000 C 
ENDBRANCH  11  16
BRANCH  13  18
ATOM     18  O   UNL     1       2.991   4.023  21.098  0.00  0.00    +0.000 OA
ATOM     19  C   UNL     1       1.769   3.562  21.629  0.00  0.00    +0.000 C 
ENDBRANCH  13  18
ENDBRANCH   6   8
BRANCH   1  20
ATOM     20  C   UNL     1       2.742   3.010  17.075  0.00  0.00    +0.000 C 
ATOM     21  O   UNL     1       1.844   3.662  16.569  0.00  0.00    +0.000 OA
BRANCH  20  23
ATOM     22  C   UNL     1       1.639   1.757  18.714  0.00  0.00    +0.000 C 
ATOM     23  O   UNL     1       2.594   1.796  17.651  0.00  0.00    +0.000 OA
ENDBRANCH  20  23
ENDBRANCH   1  20
BRANCH   5  24
ATOM     24  C   UNL     1       6.791   5.805  18.907  0.00  0.00    +0.000 C 
ATOM     25  O   UNL     1       7.154   5.581  20.054  0.00  0.00    +0.000 OA
BRANCH  24  26
ATOM     26  O   UNL     1       6.959   6.974  18.249  0.00  0.00    +0.000 OA
ATOM     27  C   UNL     1       8.239   7.580  18.453  0.00  0.00    +0.000 C 
ENDBRANCH  24  26
ENDBRANCH   5  24
TORSDOF 8
ENDMDL
MODEL 6
REMARK VINA RESULT:      -5.5      1.228      1.305
REMARK  Name = 
REMARK  13 active torsions:
REMARK  status: ('A' for Active; 'I' for Inactive)
REMARK    1  A    between atoms: C_1  and  O_2
REMARK    2  A    between atoms: O_2  and  C_3
REMARK    3  A    between atoms: C_3  and  C_5
REMARK    4  A    between atoms: C_9  and  C_10
REMARK    5  A    between atoms: C_10  and  O_12
REMARK    6  A    between atoms: O_12  and  C_13
REMARK    7  A    between atoms: C_14  and  C_15
REMARK    8  A    between atoms: C_17  and  O_18
REMARK    9  A    between atoms: O_18  and  C_19
REMARK   10  A    between atoms: C_20  and  O_21
REMARK   11  A    between atoms: O_21  and  C_22
REMARK   12  A    between atoms: C_24  and  O_25
REMARK   13  A    between atoms: O_25  and  C_26
REMARK                            x       y       z     vdW  Elec       q    Type
REMARK                         _______ _______ _______ _____ _____    ______ ____
ROOT
ATOM      1  C   UNL     1       2.516   6.446  19.494  0.00  0.00    +0.000 C 
ATOM      2  C   UNL     1       1.403   6.079  20.159  0.00  0.00    +0.000 C 
ATOM      3  N   UNL     1       1.345   4.941  20.925  0.00  0.00    +0.000 N 
ATOM      4  C   UNL     1       2.350   4.008  20.892  0.00  0.00    +0.000 C 
ATOM      5  C   UNL     1       3.526   4.236  20.276  0.00  0.00    +0.000 C 
ATOM      6  C   UNL     1       3.795   5.590  19.582  0.00  0.00    +0.000 C 
ATOM      7  H   UNL     1       0.434   4.645  21.271  0.00  0.00    +0.000 HD
ENDROOT
BRANCH   6   8
ATOM      8  C   UNL     1       4.472   5.406  18.222  0.00  0.00    +0.000 A 
ATOM      9  C   UNL     1       5.714   6.075  18.074  0.00  0.00    +0.000 A 
ATOM     10  C   UNL     1       6.448   6.058  16.886  0.00  0.00    +0.000 A 
ATOM     11  C   UNL     1       5.939   5.361  15.787  0.00  0.00    +0.000 A 
ATOM     12  C   UNL     1       4.727   4.681  15.928  0.00  0.00    +0.000 A 
ATOM     13  C   UNL     1       3.981   4.685  17.123  0.00  0.00    +0.000 A 
BRANCH  10  14
ATOM     14  O   UNL     1       7.637   6.726  16.731  0.00  0.00    +0.000 OA
ATOM     15  C   UNL     1       7.801   7.900  17.524  0.00  0.00    +0.000 C 
ENDBRANCH  10  14
BRANCH  11  16
ATOM     16  O   UNL     1       6.678   5.382  14.631  0.00  0.00    +0.000 OA
ATOM     17  C   UNL     1       6.556   4.255  13.769  0.00  0.00    +0.000 C 
ENDBRANCH  11  16
BRANCH  13  18
ATOM     18  O   UNL     1       2.856   3.934  16.948  0.00  0.00    +0.000 OA
ATOM     19  C   UNL     1       2.785   2.553  17.223  0.00  0.00    +0.000 C 
ENDBRANCH  13  18
ENDBRANCH   6   8
BRANCH   1  20
ATOM     20  C   UNL     1       2.399   7.655  18.645  0.00  0.00    +0.000 C 
ATOM     21  O   UNL     1       2.859   7.745  17.519  0.00  0.00    +0.000 OA
BRANCH  20  23
ATOM     22  C   UNL     1       1.158   9.627  18.440  0.00  0.00    +0.000 C 
ATOM     23  O   UNL     1       1.727   8.632  19.294  0.00  0.00    +0.000 OA
ENDBRANCH  20  23
ENDBRANCH   1  20
BRANCH   5  24
ATOM     24  C   UNL     1       4.457   3.084  20.207  0.00  0.00    +0.000 C 
ATOM     25  O   UNL     1       5.426   3.045  19.462  0.00  0.00    +0.000 OA
BRANCH  24  26
ATOM     26  O   UNL     1       4.109   2.118  21.087  0.00  0.00    +0.000 OA
ATOM     27  C   UNL     1       5.121   1.129  21.299  0.00  0.00    +0.000 C 
ENDBRANCH  24  26
ENDBRANCH   5  24
TORSDOF 8
ENDMDL
MODEL 7
REMARK VINA RESULT:      -5.5      7.363     10.489
REMARK  Name = 
REMARK  13 active torsions:
REMARK  status: ('A' for Active; 'I' for Inactive)
REMARK    1  A    between atoms: C_1  and  O_2
REMARK    2  A    between atoms: O_2  and  C_3
REMARK    3  A    between atoms: C_3  and  C_5
REMARK    4  A    between atoms: C_9  and  C_10
REMARK    5  A    between atoms: C_10  and  O_12
REMARK    6  A    between atoms: O_12  and  C_13
REMARK    7  A    between atoms: C_14  and  C_15
REMARK    8  A    between atoms: C_17  and  O_18
REMARK    9  A    between atoms: O_18  and  C_19
REMARK   10  A    between atoms: C_20  and  O_21
REMARK   11  A    between atoms: O_21  and  C_22
REMARK   12  A    between atoms: C_24  and  O_25
REMARK   13  A    between atoms: O_25  and  C_26
REMARK                            x       y       z     vdW  Elec       q    Type
REMARK                         _______ _______ _______ _____ _____    ______ ____
ROOT
ATOM      1  C   UNL     1      -0.013  14.561  20.649  0.00  0.00    +0.000 C 
ATOM      2  C   UNL     1      -0.318  15.534  21.529  0.00  0.00    +0.000 C 
ATOM      3  N   UNL     1      -0.686  15.267  22.825  0.00  0.00    +0.000 N 
ATOM      4  C   UNL     1      -0.961  13.988  23.237  0.00  0.00    +0.000 C 
ATOM      5  C   UNL     1      -0.698  12.911  22.472  0.00  0.00    +0.000 C 
ATOM      6  C   UNL     1      -0.053  13.080  21.079  0.00  0.00    +0.000 C 
ATOM      7  H   UNL     1      -1.051  16.035  23.385  0.00  0.00    +0.000 HD
ENDROOT
BRANCH   6   8
ATOM      8  C   UNL     1      -0.718  12.184  20.032  0.00  0.00    +0.000 A 
ATOM      9  C   UNL     1      -2.095  12.442  19.810  0.00  0.00    +0.000 A 
ATOM     10  C   UNL     1      -2.874  11.691  18.927  0.00  0.00    +0.000 A 
ATOM     11  C   UNL     1      -2.281  10.634  18.233  0.00  0.00    +0.000 A 
ATOM     12  C   UNL     1      -0.920  10.384  18.429  0.00  0.00    +0.000 A 
ATOM     13  C   UNL     1      -0.122  11.138  19.311  0.00  0.00    +0.000 A 
BRANCH  10  14
ATOM     14  O   UNL     1      -4.213  11.921  18.729  0.00  0.00    +0.000 OA
ATOM     15  C   UNL     1      -4.869  12.693  19.733  0.00  0.00    +0.000 C 
ENDBRANCH  10  14
BRANCH  11  16
ATOM     16  O   UNL     1      -3.081   9.906  17.389  0.00  0.00    +0.000 OA
ATOM     17  C   UNL     1      -2.836  10.043  15.993  0.00  0.00    +0.000 C 
ENDBRANCH  11  16
BRANCH  13  18
ATOM     18  O   UNL     1       1.153  10.657  19.280  0.00  0.00    +0.000 OA
ATOM     19  C   UNL     1       1.678   9.899  18.213  0.00  0.00    +0.000 C 
ENDBRANCH  13  18
ENDBRANCH   6   8
BRANCH   1  20
ATOM     20  C   UNL     1       0.286  15.002  19.267  0.00  0.00    +0.000 C 
ATOM     21  O   UNL     1       1.251  14.623  18.623  0.00  0.00    +0.000 OA
BRANCH  20  23
ATOM     22  C   UNL     1      -0.118  17.006  18.130  0.00  0.00    +0.000 C 
ATOM     23  O   UNL     1      -0.646  15.878  18.832  0.00  0.00    +0.000 OA
ENDBRANCH  20  23
ENDBRANCH   1  20
BRANCH   5  24
ATOM     24  C   UNL     1      -1.177  11.609  22.997  0.00  0.00    +0.000 C 
ATOM     25  O   UNL     1      -2.349  11.380  23.262  0.00  0.00    +0.000 OA
BRANCH  24  26
ATOM     26  O   UNL     1      -0.162  10.722  23.110  0.00  0.00    +0.000 OA
ATOM     27  C   UNL     1      -0.476   9.412  22.628  0.00  0.00    +0.000 C 
ENDBRANCH  24  26
ENDBRANCH   5  24
TORSDOF 8
ENDMDL
MODEL 8
REMARK VINA RESULT:      -5.5      6.833     10.328
REMARK  Name = 
REMARK  13 active torsions:
REMARK  status: ('A' for Active; 'I' for Inactive)
REMARK    1  A    between atoms: C_1  and  O_2
REMARK    2  A    between atoms: O_2  and  C_3
REMARK    3  A    between atoms: C_3  and  C_5
REMARK    4  A    between atoms: C_9  and  C_10
REMARK    5  A    between atoms: C_10  and  O_12
REMARK    6  A    between atoms: O_12  and  C_13
REMARK    7  A    between atoms: C_14  and  C_15
REMARK    8  A    between atoms: C_17  and  O_18
REMARK    9  A    between atoms: O_18  and  C_19
REMARK   10  A    between atoms: C_20  and  O_21
REMARK   11  A    between atoms: O_21  and  C_22
REMARK   12  A    between atoms: C_24  and  O_25
REMARK   13  A    between atoms: O_25  and  C_26
REMARK                            x       y       z     vdW  Elec       q    Type
REMARK                         _______ _______ _______ _____ _____    ______ ____
ROOT
ATOM      1  C   UNL     1      -0.257  14.745  21.008  0.00  0.00    +0.000 C 
ATOM      2  C   UNL     1      -0.662  15.663  21.907  0.00  0.00    +0.000 C 
ATOM      3  N   UNL     1      -1.084  15.322  23.169  0.00  0.00    +0.000 N 
ATOM      4  C   UNL     1      -1.310  14.014  23.514  0.00  0.00    +0.000 C 
ATOM      5  C   UNL     1      -0.948  12.986  22.724  0.00  0.00    +0.000 C 
ATOM      6  C   UNL     1      -0.238  13.248  21.377  0.00  0.00    +0.000 C 
ATOM      7  H   UNL     1      -1.520  16.046  23.737  0.00  0.00    +0.000 HD
ENDROOT
BRANCH   6   8
ATOM      8  C   UNL     1      -0.796  12.363  20.260  0.00  0.00    +0.000 A 
ATOM      9  C   UNL     1       0.131  11.445  19.703  0.00  0.00    +0.000 A 
ATOM     10  C   UNL     1      -0.190  10.594  18.642  0.00  0.00    +0.000 A 
ATOM     11  C   UNL     1      -1.475  10.647  18.097  0.00  0.00    +0.000 A 
ATOM     12  C   UNL     1      -2.402  11.533  18.653  0.00  0.00    +0.000 A 
ATOM     13  C   UNL     1      -2.093  12.392  19.725  0.00  0.00    +0.000 A 
BRANCH  10  14
ATOM     14  O   UNL     1       0.712   9.723  18.083  0.00  0.00    +0.000 OA
ATOM     15  C   UNL     1       1.504   8.971  18.999  0.00  0.00    +0.000 C 
ENDBRANCH  10  14
BRANCH  11  16
ATOM     16  O   UNL     1      -1.748   9.810  17.044  0.00  0.00    +0.000 OA
ATOM     17  C   UNL     1      -3.035   9.928  16.446  0.00  0.00    +0.000 C 
ENDBRANCH  11  16
BRANCH  13  18
ATOM     18  O   UNL     1      -3.199  13.125  20.041  0.00  0.00    +0.000 OA
ATOM     19  C   UNL     1      -4.376  12.573  20.584  0.00  0.00    +0.000 C 
ENDBRANCH  13  18
ENDBRANCH   6   8
BRANCH   1  20
ATOM     20  C   UNL     1       0.092  15.259  19.664  0.00  0.00    +0.000 C 
ATOM     21  O   UNL     1       1.147  15.025  19.096  0.00  0.00    +0.000 OA
BRANCH  20  23
ATOM     22  C   UNL     1      -0.484  17.034  18.252  0.00  0.00    +0.000 C 
ATOM     23  O   UNL     1      -0.908  16.021  19.168  0.00  0.00    +0.000 OA
ENDBRANCH  20  23
ENDBRANCH   1  20
BRANCH   5  24
ATOM     24  C   UNL     1      -1.383  11.640  23.170  0.00  0.00    +0.000 C 
ATOM     25  O   UNL     1      -2.554  11.337  23.353  0.00  0.00    +0.000 OA
BRANCH  24  26
ATOM     26  O   UNL     1      -0.329  10.805  23.312  0.00  0.00    +0.000 OA
ATOM     27  C   UNL     1      -0.554   9.488  22.801  0.00  0.00    +0.000 C 
ENDBRANCH  24  26
ENDBRANCH   5  24
TORSDOF 8
ENDMDL
MODEL 9
REMARK VINA RESULT:      -5.4      1.734      4.912
REMARK  Name = 
REMARK  13 active torsions:
REMARK  status: ('A' for Active; 'I' for Inactive)
REMARK    1  A    between atoms: C_1  and  O_2
REMARK    2  A    between atoms: O_2  and  C_3
REMARK    3  A    between atoms: C_3  and  C_5
REMARK    4  A    between atoms: C_9  and  C_10
REMARK    5  A    between atoms: C_10  and  O_12
REMARK    6  A    between atoms: O_12  and  C_13
REMARK    7  A    between atoms: C_14  and  C_15
REMARK    8  A    between atoms: C_17  and  O_18
REMARK    9  A    between atoms: O_18  and  C_19
REMARK   10  A    between atoms: C_20  and  O_21
REMARK   11  A    between atoms: O_21  and  C_22
REMARK   12  A    between atoms: C_24  and  O_25
REMARK   13  A    between atoms: O_25  and  C_26
REMARK                            x       y       z     vdW  Elec       q    Type
REMARK                         _______ _______ _______ _____ _____    ______ ____
ROOT
ATOM      1  C   UNL     1       3.316   3.975  19.465  0.00  0.00    +0.000 C 
ATOM      2  C   UNL     1       2.827   4.340  20.667  0.00  0.00    +0.000 C 
ATOM      3  N   UNL     1       2.272   5.576  20.891  0.00  0.00    +0.000 N 
ATOM      4  C   UNL     1       2.369   6.579  19.961  0.00  0.00    +0.000 C 
ATOM      5  C   UNL     1       2.827   6.364  18.712  0.00  0.00    +0.000 C 
ATOM      6  C   UNL     1       3.256   4.947  18.270  0.00  0.00    +0.000 C 
ATOM      7  H   UNL     1       2.067   5.839  21.853  0.00  0.00    +0.000 HD
ENDROOT
BRANCH   6   8
ATOM      8  C   UNL     1       4.559   4.973  17.469  0.00  0.00    +0.000 A 
ATOM      9  C   UNL     1       4.414   4.726  16.080  0.00  0.00    +0.000 A 
ATOM     10  C   UNL     1       5.500   4.663  15.204  0.00  0.00    +0.000 A 
ATOM     11  C   UNL     1       6.789   4.843  15.711  0.00  0.00    +0.000 A 
ATOM     12  C   UNL     1       6.942   5.108  17.074  0.00  0.00    +0.000 A 
ATOM     13  C   UNL     1       5.855   5.180  17.967  0.00  0.00    +0.000 A 
BRANCH  10  14
ATOM     14  O   UNL     1       5.366   4.398  13.863  0.00  0.00    +0.000 OA
ATOM     15  C   UNL     1       5.703   3.076  13.452  0.00  0.00    +0.000 C 
ENDBRANCH  10  14
BRANCH  11  16
ATOM     16  O   UNL     1       7.833   4.756  14.824  0.00  0.00    +0.000 OA
ATOM     17  C   UNL     1       7.908   5.760  13.817  0.00  0.00    +0.000 C 
ENDBRANCH  11  16
BRANCH  13  18
ATOM     18  O   UNL     1       6.323   5.453  19.218  0.00  0.00    +0.000 OA
ATOM     19  C   UNL     1       7.686   5.659  19.516  0.00  0.00    +0.000 C 
ENDBRANCH  13  18
ENDBRANCH   6   8
BRANCH   1  20
ATOM     20  C   UNL     1       3.956   2.641  19.400  0.00  0.00    +0.000 C 
ATOM     21  O   UNL     1       4.920   2.312  20.072  0.00  0.00    +0.000 OA
BRANCH  20  23
ATOM     22  C   UNL     1       1.928   1.700  18.712  0.00  0.00    +0.000 C 
ATOM     23  O   UNL     1       3.333   1.854  18.495  0.00  0.00    +0.000 OA
ENDBRANCH  20  23
ENDBRANCH   1  20
BRANCH   5  24
ATOM     24  C   UNL     1       3.002   7.571  17.868  0.00  0.00    +0.000 C 
ATOM     25  O   UNL     1       4.084   7.932  17.426  0.00  0.00    +0.000 OA
BRANCH  24  26
ATOM     26  O   UNL     1       1.819   8.185  17.636  0.00  0.00    +0.000 OA
ATOM     27  C   UNL     1       1.830   9.591  17.899  0.00  0.00    +0.000 C 
ENDBRANCH  24  26
ENDBRANCH   5  24
TORSDOF 8
ENDMDL
