MODEL 1
REMARK VINA RESULT:      -7.2      0.000      0.000
REMARK  Name = 
REMARK  10 active torsions:
REMARK  status: ('A' for Active; 'I' for Inactive)
REMARK    1  A    between atoms: C_1  and  O_2
REMARK    2  A    between atoms: O_2  and  C_3
REMARK    3  A    between atoms: C_6  and  S_7
REMARK    4  A    between atoms: S_7  and  C_8
REMARK    5  A    between atoms: C_14  and  C_15
REMARK    6  A    between atoms: C_15  and  S_16
REMARK    7  A    between atoms: S_16  and  C_17
REMARK    8  A    between atoms: C_20  and  C_21
REMARK    9  A    between atoms: C_21  and  S_22
REMARK   10  A    between atoms: S_22  and  C_23
REMARK                            x       y       z     vdW  Elec       q    Type
REMARK                         _______ _______ _______ _____ _____    ______ ____
ROOT
ATOM      1  C   UNL     1       3.021   3.685  17.788  0.00  0.00    +0.000 A 
ATOM      2  C   UNL     1       1.826   4.394  17.865  0.00  0.00    +0.000 A 
ATOM      3  C   UNL     1       1.823   5.790  17.861  0.00  0.00    +0.000 A 
ATOM      4  C   UNL     1       3.016   6.519  17.751  0.00  0.00    +0.000 A 
ATOM      5  C   UNL     1       4.258   5.811  17.631  0.00  0.00    +0.000 A 
ATOM      6  C   UNL     1       4.228   4.396  17.657  0.00  0.00    +0.000 A 
ENDROOT
BRANCH   1   8
ATOM      7  C   UNL     1       3.537   1.542  18.838  0.00  0.00    +0.000 C 
ATOM      8  O   UNL     1       2.965   2.329  17.855  0.00  0.00    +0.000 OA
ENDBRANCH   1   8
BRANCH   4   9
ATOM      9  S   UNL     1       2.861   8.331  17.896  0.00  0.00    +0.000 S 
BRANCH   9  10
ATOM     10  C   UNL     1       1.767   8.502  19.321  0.00  0.00    +0.000 A 
ATOM     11  C   UNL     1       1.870   7.571  20.364  0.00  0.00    +0.000 A 
ATOM     12  C   UNL     1       1.030   7.633  21.467  0.00  0.00    +0.000 A 
ATOM     13  C   UNL     1       0.055   8.622  21.546  0.00  0.00    +0.000 A 
ATOM     14  F   UNL     1      -0.768   8.673  22.622  0.00  0.00    +0.000 F 
ATOM     15  C   UNL     1      -0.074   9.561  20.521  0.00  0.00    +0.000 A 
ATOM     16  C   UNL     1       0.774   9.532  19.393  0.00  0.00    +0.000 A 
BRANCH  16  17
ATOM     17  C   UNL     1       0.590  10.623  18.336  0.00  0.00    +0.000 C 
BRANCH  17  18
ATOM     18  S   UNL     1       1.066  12.296  18.904  0.00  0.00    +0.000 S 
BRANCH  18  19
ATOM     19  C   UNL     1      -0.452  13.102  18.317  0.00  0.00    +0.000 C 
ATOM     20  N   UNL     1      -1.175  12.549  17.415  0.00  0.00    +0.000 NA
ATOM     21  N   UNL     1      -0.856  14.341  18.869  0.00  0.00    +0.000 N 
ATOM     22  H   UNL     1      -0.913  11.644  16.996  0.00  0.00    +0.000 HD
ATOM     23  H   UNL     1      -0.306  14.792  19.606  0.00  0.00    +0.000 HD
ATOM     24  H   UNL     1      -1.736  14.800  18.560  0.00  0.00    +0.000 HD
ENDBRANCH  18  19
ENDBRANCH  17  18
ENDBRANCH  16  17
ENDBRANCH   9  10
ENDBRANCH   4   9
BRANCH   5  25
ATOM     25  C   UNL     1       5.637   6.449  17.428  0.00  0.00    +0.000 C 
BRANCH  25  26
ATOM     26  S   UNL     1       7.066   5.309  17.497  0.00  0.00    +0.000 S 
BRANCH  26  27
ATOM     27  C   UNL     1       7.872   6.120  18.901  0.00  0.00    +0.000 C 
ATOM     28  N   UNL     1       8.353   7.310  18.789  0.00  0.00    +0.000 NA
ATOM     29  N   UNL     1       7.931   5.456  20.149  0.00  0.00    +0.000 N 
ATOM     30  H   UNL     1       8.302   7.836  17.907  0.00  0.00    +0.000 HD
ATOM     31  H   UNL     1       7.554   4.505  20.243  0.00  0.00    +0.000 HD
ATOM     32  H   UNL     1       8.352   5.917  20.970  0.00  0.00    +0.000 HD
ENDBRANCH  26  27
ENDBRANCH  25  26
ENDBRANCH   5  25
TORSDOF 9
ENDMDL
MODEL 2
REMARK VINA RESULT:      -7.2      2.500      8.000
REMARK  Name = 
REMARK  10 active torsions:
REMARK  status: ('A' for Active; 'I' for Inactive)
REMARK    1  A    between atoms: C_1  and  O_2
REMARK    2  A    between atoms: O_2  and  C_3
REMARK    3  A    between atoms: C_6  and  S_7
REMARK    4  A    between atoms: S_7  and  C_8
REMARK    5  A    between atoms: C_14  and  C_15
REMARK    6  A    between atoms: C_15  and  S_16
REMARK    7  A    between atoms: S_16  and  C_17
REMARK    8  A    between atoms: C_20  and  C_21
REMARK    9  A    between atoms: C_21  and  S_22
REMARK   10  A    between atoms: S_22  and  C_23
REMARK                            x       y       z     vdW  Elec       q    Type
REMARK                         _______ _______ _______ _____ _____    ______ ____
ROOT
ATOM      1  C   UNL     1       0.350   8.877  21.476  0.00  0.00    +0.000 A 
ATOM      2  C   UNL     1       1.174   7.761  21.351  0.00  0.00    +0.000 A 
ATOM      3  C   UNL     1       1.937   7.563  20.199  0.00  0.00    +0.000 A 
ATOM      4  C   UNL     1       1.920   8.492  19.148  0.00  0.00    +0.000 A 
ATOM      5  C   UNL     1       1.109   9.670  19.269  0.00  0.00    +0.000 A 
ATOM      6  C   UNL     1       0.333   9.831  20.442  0.00  0.00    +0.000 A 
ENDROOT
BRANCH   1   8
ATOM      7  C   UNL     1      -0.782  10.167  23.213  0.00  0.00    +0.000 C 
ATOM      8  O   UNL     1      -0.412   8.986  22.595  0.00  0.00    +0.000 OA
ENDBRANCH   1   8
BRANCH   4   9
ATOM      9  S   UNL     1       2.862   8.027  17.656  0.00  0.00    +0.000 S 
BRANCH   9  10
ATOM     10  C   UNL     1       2.963   6.233  17.819  0.00  0.00    +0.000 A 
ATOM     11  C   UNL     1       1.774   5.501  17.939  0.00  0.00    +0.000 A 
ATOM     12  C   UNL     1       1.793   4.122  18.103  0.00  0.00    +0.000 A 
ATOM     13  C   UNL     1       3.007   3.445  18.165  0.00  0.00    +0.000 A 
ATOM     14  F   UNL     1       3.020   2.100  18.332  0.00  0.00    +0.000 F 
ATOM     15  C   UNL     1       4.207   4.148  18.050  0.00  0.00    +0.000 A 
ATOM     16  C   UNL     1       4.219   5.547  17.870  0.00  0.00    +0.000 A 
BRANCH  16  17
ATOM     17  C   UNL     1       5.578   6.233  17.714  0.00  0.00    +0.000 C 
BRANCH  17  18
ATOM     18  S   UNL     1       7.001   5.082  17.751  0.00  0.00    +0.000 S 
BRANCH  18  19
ATOM     19  C   UNL     1       7.927   6.013  19.005  0.00  0.00    +0.000 C 
ATOM     20  N   UNL     1       8.309   7.213  18.774  0.00  0.00    +0.000 NA
ATOM     21  N   UNL     1       8.217   5.420  20.257  0.00  0.00    +0.000 N 
ATOM     22  H   UNL     1       8.110   7.678  17.875  0.00  0.00    +0.000 HD
ATOM     23  H   UNL     1       7.904   4.469  20.474  0.00  0.00    +0.000 HD
ATOM     24  H   UNL     1       8.724   5.951  20.993  0.00  0.00    +0.000 HD
ENDBRANCH  18  19
ENDBRANCH  17  18
ENDBRANCH  16  17
ENDBRANCH   9  10
ENDBRANCH   4   9
BRANCH   5  25
ATOM     25  C   UNL     1       1.033  10.814  18.253  0.00  0.00    +0.000 C 
BRANCH  25  26
ATOM     26  S   UNL     1       1.289  12.498  18.920  0.00  0.00    +0.000 S 
BRANCH  26  27
ATOM     27  C   UNL     1      -0.295  13.160  18.344  0.00  0.00    +0.000 C 
ATOM     28  N   UNL     1      -1.036  12.485  17.535  0.00  0.00    +0.000 NA
ATOM     29  N   UNL     1      -0.744  14.411  18.826  0.00  0.00    +0.000 N 
ATOM     30  H   UNL     1      -0.758  11.559  17.186  0.00  0.00    +0.000 HD
ATOM     31  H   UNL     1      -0.154  14.955  19.468  0.00  0.00    +0.000 HD
ATOM     32  H   UNL     1      -1.661  14.787  18.540  0.00  0.00    +0.000 HD
ENDBRANCH  26  27
ENDBRANCH  25  26
ENDBRANCH   5  25
TORSDOF 9
ENDMDL
MODEL 3
REMARK VINA RESULT:      -7.2      1.351      1.464
REMARK  Name = 
REMARK  10 active torsions:
REMARK  status: ('A' for Active; 'I' for Inactive)
REMARK    1  A    between atoms: C_1  and  O_2
REMARK    2  A    between atoms: O_2  and  C_3
REMARK    3  A    between atoms: C_6  and  S_7
REMARK    4  A    between atoms: S_7  and  C_8
REMARK    5  A    between atoms: C_14  and  C_15
REMARK    6  A    between atoms: C_15  and  S_16
REMARK    7  A    between atoms: S_16  and  C_17
REMARK    8  A    between atoms: C_20  and  C_21
REMARK    9  A    between atoms: C_21  and  S_22
REMARK   10  A    between atoms: S_22  and  C_23
REMARK                            x       y       z     vdW  Elec       q    Type
REMARK                         _______ _______ _______ _____ _____    ______ ____
ROOT
ATOM      1  C   UNL     1       3.304   3.678  18.867  0.00  0.00    +0.000 A 
ATOM      2  C   UNL     1       2.031   4.141  18.547  0.00  0.00    +0.000 A 
ATOM      3  C   UNL     1       1.822   5.479  18.209  0.00  0.00    +0.000 A 
ATOM      4  C   UNL     1       2.888   6.389  18.152  0.00  0.00    +0.000 A 
ATOM      5  C   UNL     1       4.216   5.927  18.438  0.00  0.00    +0.000 A 
ATOM      6  C   UNL     1       4.391   4.569  18.797  0.00  0.00    +0.000 A 
ENDROOT
BRANCH   1   8
ATOM      7  C   UNL     1       3.620   1.303  18.397  0.00  0.00    +0.000 C 
ATOM      8  O   UNL     1       3.436   2.380  19.245  0.00  0.00    +0.000 OA
ENDBRANCH   1   8
BRANCH   4   9
ATOM      9  S   UNL     1       2.437   8.127  17.828  0.00  0.00    +0.000 S 
BRANCH   9  10
ATOM     10  C   UNL     1       1.530   8.566  19.325  0.00  0.00    +0.000 A 
ATOM     11  C   UNL     1       1.841   7.901  20.518  0.00  0.00    +0.000 A 
ATOM     12  C   UNL     1       1.152   8.173  21.692  0.00  0.00    +0.000 A 
ATOM     13  C   UNL     1       0.122   9.109  21.695  0.00  0.00    +0.000 A 
ATOM     14  F   UNL     1      -0.553   9.365  22.842  0.00  0.00    +0.000 F 
ATOM     15  C   UNL     1      -0.212   9.785  20.520  0.00  0.00    +0.000 A 
ATOM     16  C   UNL     1       0.480   9.539  19.315  0.00  0.00    +0.000 A 
BRANCH  16  17
ATOM     17  C   UNL     1       0.075  10.354  18.084  0.00  0.00    +0.000 C 
BRANCH  17  18
ATOM     18  S   UNL     1      -1.583   9.941  17.430  0.00  0.00    +0.000 S 
BRANCH  18  19
ATOM     19  C   UNL     1      -2.187  11.653  17.431  0.00  0.00    +0.000 C 
ATOM     20  N   UNL     1      -3.443  11.899  17.393  0.00  0.00    +0.000 NA
ATOM     21  N   UNL     1      -1.269  12.728  17.495  0.00  0.00    +0.000 N 
ATOM     22  H   UNL     1      -4.140  11.140  17.352  0.00  0.00    +0.000 HD
ATOM     23  H   UNL     1      -0.261  12.556  17.547  0.00  0.00    +0.000 HD
ATOM     24  H   UNL     1      -1.603  13.712  17.521  0.00  0.00    +0.000 HD
ENDBRANCH  18  19
ENDBRANCH  17  18
ENDBRANCH  16  17
ENDBRANCH   9  10
ENDBRANCH   4   9
BRANCH   5  25
ATOM     25  C   UNL     1       5.495   6.767  18.350  0.00  0.00    +0.000 C 
BRANCH  25  26
ATOM     26  S   UNL     1       6.690   6.275  17.056  0.00  0.00    +0.000 S 
BRANCH  26  27
ATOM     27  C   UNL     1       7.663   5.181  18.121  0.00  0.00    +0.000 C 
ATOM     28  N   UNL     1       8.145   4.076  17.666  0.00  0.00    +0.000 NA
ATOM     29  N   UNL     1       7.938   5.569  19.453  0.00  0.00    +0.000 N 
ATOM     30  H   UNL     1       7.992   3.774  16.695  0.00  0.00    +0.000 HD
ATOM     31  H   UNL     1       7.553   6.447  19.821  0.00  0.00    +0.000 HD
ATOM     32  H   UNL     1       8.524   4.978  20.063  0.00  0.00    +0.000 HD
ENDBRANCH  26  27
ENDBRANCH  25  26
ENDBRANCH   5  25
TORSDOF 9
ENDMDL
MODEL 4
REMARK VINA RESULT:      -7.1      2.750      7.805
REMARK  Name = 
REMARK  10 active torsions:
REMARK  status: ('A' for Active; 'I' for Inactive)
REMARK    1  A    between atoms: C_1  and  O_2
REMARK    2  A    between atoms: O_2  and  C_3
REMARK    3  A    between atoms: C_6  and  S_7
REMARK    4  A    between atoms: S_7  and  C_8
REMARK    5  A    between atoms: C_14  and  C_15
REMARK    6  A    between atoms: C_15  and  S_16
REMARK    7  A    between atoms: S_16  and  C_17
REMARK    8  A    between atoms: C_20  and  C_21
REMARK    9  A    between atoms: C_21  and  S_22
REMARK   10  A    between atoms: S_22  and  C_23
REMARK                            x       y       z     vdW  Elec       q    Type
REMARK                         _______ _______ _______ _____ _____    ______ ____
ROOT
ATOM      1  C   UNL     1       0.261   8.715  21.422  0.00  0.00    +0.000 A 
ATOM      2  C   UNL     1       1.028   7.553  21.416  0.00  0.00    +0.000 A 
ATOM      3  C   UNL     1       1.870   7.259  20.342  0.00  0.00    +0.000 A 
ATOM      4  C   UNL     1       1.992   8.135  19.253  0.00  0.00    +0.000 A 
ATOM      5  C   UNL     1       1.242   9.359  19.254  0.00  0.00    +0.000 A 
ATOM      6  C   UNL     1       0.383   9.617  20.349  0.00  0.00    +0.000 A 
ENDROOT
BRANCH   1   8
ATOM      7  C   UNL     1      -0.754  10.108  23.152  0.00  0.00    +0.000 C 
ATOM      8  O   UNL     1      -0.583   8.918  22.467  0.00  0.00    +0.000 OA
ENDBRANCH   1   8
BRANCH   4   9
ATOM      9  S   UNL     1       3.025   7.548  17.869  0.00  0.00    +0.000 S 
BRANCH   9  10
ATOM     10  C   UNL     1       2.970   5.758  18.090  0.00  0.00    +0.000 A 
ATOM     11  C   UNL     1       1.779   5.081  17.797  0.00  0.00    +0.000 A 
ATOM     12  C   UNL     1       1.669   3.710  17.984  0.00  0.00    +0.000 A 
ATOM     13  C   UNL     1       2.748   2.985  18.482  0.00  0.00    +0.000 A 
ATOM     14  F   UNL     1       2.633   1.647  18.668  0.00  0.00    +0.000 F 
ATOM     15  C   UNL     1       3.946   3.634  18.785  0.00  0.00    +0.000 A 
ATOM     16  C   UNL     1       4.092   5.024  18.594  0.00  0.00    +0.000 A 
BRANCH  16  17
ATOM     17  C   UNL     1       5.453   5.647  18.914  0.00  0.00    +0.000 C 
BRANCH  17  18
ATOM     18  S   UNL     1       6.858   4.841  18.065  0.00  0.00    +0.000 S 
BRANCH  18  19
ATOM     19  C   UNL     1       6.960   6.063  16.726  0.00  0.00    +0.000 C 
ATOM     20  N   UNL     1       7.357   7.258  16.965  0.00  0.00    +0.000 NA
ATOM     21  N   UNL     1       6.618   5.696  15.403  0.00  0.00    +0.000 N 
ATOM     22  H   UNL     1       7.619   7.558  17.916  0.00  0.00    +0.000 HD
ATOM     23  H   UNL     1       6.318   4.741  15.183  0.00  0.00    +0.000 HD
ATOM     24  H   UNL     1       6.696   6.379  14.624  0.00  0.00    +0.000 HD
ENDBRANCH  18  19
ENDBRANCH  17  18
ENDBRANCH  16  17
ENDBRANCH   9  10
ENDBRANCH   4   9
BRANCH   5  25
ATOM     25  C   UNL     1       1.315  10.455  18.186  0.00  0.00    +0.000 C 
BRANCH  25  26
ATOM     26  S   UNL     1       1.269  12.177  18.799  0.00  0.00    +0.000 S 
BRANCH  26  27
ATOM     27  C   UNL     1      -0.472  12.464  18.392  0.00  0.00    +0.000 C 
ATOM     28  N   UNL     1      -1.076  11.729  17.523  0.00  0.00    +0.000 NA
ATOM     29  N   UNL     1      -1.189  13.476  19.072  0.00  0.00    +0.000 N 
ATOM     30  H   UNL     1      -0.596  10.965  17.030  0.00  0.00    +0.000 HD
ATOM     31  H   UNL     1      -0.711  14.068  19.762  0.00  0.00    +0.000 HD
ATOM     32  H   UNL     1      -2.191  13.629  18.882  0.00  0.00    +0.000 HD
ENDBRANCH  26  27
ENDBRANCH  25  26
ENDBRANCH   5  25
TORSDOF 9
ENDMDL
MODEL 5
REMARK VINA RESULT:      -7.1      2.702      7.900
REMARK  Name = 
REMARK  10 active torsions:
REMARK  status: ('A' for Active; 'I' for Inactive)
REMARK    1  A    between atoms: C_1  and  O_2
REMARK    2  A    between atoms: O_2  and  C_3
REMARK    3  A    between atoms: C_6  and  S_7
REMARK    4  A    between atoms: S_7  and  C_8
REMARK    5  A    between atoms: C_14  and  C_15
REMARK    6  A    between atoms: C_15  and  S_16
REMARK    7  A    between atoms: S_16  and  C_17
REMARK    8  A    between atoms: C_20  and  C_21
REMARK    9  A    between atoms: C_21  and  S_22
REMARK   10  A    between atoms: S_22  and  C_23
REMARK                            x       y       z     vdW  Elec       q    Type
REMARK                         _______ _______ _______ _____ _____    ______ ____
ROOT
ATOM      1  C   UNL     1       0.315   9.004  21.448  0.00  0.00    +0.000 A 
ATOM      2  C   UNL     1       1.071   7.837  21.510  0.00  0.00    +0.000 A 
ATOM      3  C   UNL     1       1.863   7.441  20.430  0.00  0.00    +0.000 A 
ATOM      4  C   UNL     1       1.943   8.219  19.266  0.00  0.00    +0.000 A 
ATOM      5  C   UNL     1       1.204   9.447  19.193  0.00  0.00    +0.000 A 
ATOM      6  C   UNL     1       0.396   9.809  20.297  0.00  0.00    +0.000 A 
ENDROOT
BRANCH   1   8
ATOM      7  C   UNL     1      -0.917  10.571  22.859  0.00  0.00    +0.000 C 
ATOM      8  O   UNL     1      -0.481   9.306  22.507  0.00  0.00    +0.000 OA
ENDBRANCH   1   8
BRANCH   4   9
ATOM      9  S   UNL     1       2.910   7.504  17.894  0.00  0.00    +0.000 S 
BRANCH   9  10
ATOM     10  C   UNL     1       2.757   5.733  18.208  0.00  0.00    +0.000 A 
ATOM     11  C   UNL     1       1.563   5.089  17.857  0.00  0.00    +0.000 A 
ATOM     12  C   UNL     1       1.377   3.736  18.109  0.00  0.00    +0.000 A 
ATOM     13  C   UNL     1       2.379   2.999  18.733  0.00  0.00    +0.000 A 
ATOM     14  F   UNL     1       2.189   1.680  18.982  0.00  0.00    +0.000 F 
ATOM     15  C   UNL     1       3.578   3.615  19.096  0.00  0.00    +0.000 A 
ATOM     16  C   UNL     1       3.801   4.984  18.841  0.00  0.00    +0.000 A 
BRANCH  16  17
ATOM     17  C   UNL     1       5.159   5.569  19.236  0.00  0.00    +0.000 C 
BRANCH  17  18
ATOM     18  S   UNL     1       6.234   5.979  17.814  0.00  0.00    +0.000 S 
BRANCH  18  19
ATOM     19  C   UNL     1       7.685   5.089  18.447  0.00  0.00    +0.000 C 
ATOM     20  N   UNL     1       8.213   4.140  17.767  0.00  0.00    +0.000 NA
ATOM     21  N   UNL     1       8.253   5.453  19.690  0.00  0.00    +0.000 N 
ATOM     22  H   UNL     1       7.828   3.852  16.855  0.00  0.00    +0.000 HD
ATOM     23  H   UNL     1       7.861   6.222  20.242  0.00  0.00    +0.000 HD
ATOM     24  H   UNL     1       9.098   4.968  20.052  0.00  0.00    +0.000 HD
ENDBRANCH  18  19
ENDBRANCH  17  18
ENDBRANCH  16  17
ENDBRANCH   9  10
ENDBRANCH   4   9
BRANCH   5  25
ATOM     25  C   UNL     1       1.239  10.446  18.031  0.00  0.00    +0.000 C 
BRANCH  25  26
ATOM     26  S   UNL     1       2.148  12.003  18.339  0.00  0.00    +0.000 S 
BRANCH  26  27
ATOM     27  C   UNL     1       0.674  13.051  18.440  0.00  0.00    +0.000 C 
ATOM     28  N   UNL     1      -0.458  12.643  17.980  0.00  0.00    +0.000 NA
ATOM     29  N   UNL     1       0.758  14.312  19.074  0.00  0.00    +0.000 N 
ATOM     30  H   UNL     1      -0.565  11.720  17.539  0.00  0.00    +0.000 HD
ATOM     31  H   UNL     1       1.659  14.645  19.438  0.00  0.00    +0.000 HD
ATOM     32  H   UNL     1      -0.079  14.907  19.176  0.00  0.00    +0.000 HD
ENDBRANCH  26  27
ENDBRANCH  25  26
ENDBRANCH   5  25
TORSDOF 9
ENDMDL
MODEL 6
REMARK VINA RESULT:      -7.1      3.188      8.290
REMARK  Name = 
REMARK  10 active torsions:
REMARK  status: ('A' for Active; 'I' for Inactive)
REMARK    1  A    between atoms: C_1  and  O_2
REMARK    2  A    between atoms: O_2  and  C_3
REMARK    3  A    between atoms: C_6  and  S_7
REMARK    4  A    between atoms: S_7  and  C_8
REMARK    5  A    between atoms: C_14  and  C_15
REMARK    6  A    between atoms: C_15  and  S_16
REMARK    7  A    between atoms: S_16  and  C_17
REMARK    8  A    between atoms: C_20  and  C_21
REMARK    9  A    between atoms: C_21  and  S_22
REMARK   10  A    between atoms: S_22  and  C_23
REMARK                            x       y       z     vdW  Elec       q    Type
REMARK                         _______ _______ _______ _____ _____    ______ ____
ROOT
ATOM      1  C   UNL     1       0.327   9.914  22.034  0.00  0.00    +0.000 A 
ATOM      2  C   UNL     1       1.323   8.956  22.204  0.00  0.00    +0.000 A 
ATOM      3  C   UNL     1       1.923   8.346  21.101  0.00  0.00    +0.000 A 
ATOM      4  C   UNL     1       1.564   8.699  19.792  0.00  0.00    +0.000 A 
ATOM      5  C   UNL     1       0.568   9.713  19.590  0.00  0.00    +0.000 A 
ATOM      6  C   UNL     1      -0.034  10.297  20.730  0.00  0.00    +0.000 A 
ENDROOT
BRANCH   1   8
ATOM      7  C   UNL     1      -1.375  11.249  23.168  0.00  0.00    +0.000 C 
ATOM      8  O   UNL     1      -0.260  10.429  23.146  0.00  0.00    +0.000 OA
ENDBRANCH   1   8
BRANCH   4   9
ATOM      9  S   UNL     1       2.337   7.721  18.460  0.00  0.00    +0.000 S 
BRANCH   9  10
ATOM     10  C   UNL     1       2.484   6.094  19.226  0.00  0.00    +0.000 A 
ATOM     11  C   UNL     1       1.676   5.796  20.332  0.00  0.00    +0.000 A 
ATOM     12  C   UNL     1       1.773   4.573  20.983  0.00  0.00    +0.000 A 
ATOM     13  C   UNL     1       2.691   3.623  20.549  0.00  0.00    +0.000 A 
ATOM     14  F   UNL     1       2.786   2.434  21.192  0.00  0.00    +0.000 F 
ATOM     15  C   UNL     1       3.511   3.893  19.451  0.00  0.00    +0.000 A 
ATOM     16  C   UNL     1       3.427   5.121  18.762  0.00  0.00    +0.000 A 
BRANCH  16  17
ATOM     17  C   UNL     1       4.334   5.317  17.545  0.00  0.00    +0.000 C 
BRANCH  17  18
ATOM     18  S   UNL     1       6.009   5.927  17.956  0.00  0.00    +0.000 S 
BRANCH  18  19
ATOM     19  C   UNL     1       6.880   4.517  17.215  0.00  0.00    +0.000 C 
ATOM     20  N   UNL     1       8.043   4.179  17.633  0.00  0.00    +0.000 NA
ATOM     21  N   UNL     1       6.268   3.770  16.181  0.00  0.00    +0.000 N 
ATOM     22  H   UNL     1       8.516   4.697  18.388  0.00  0.00    +0.000 HD
ATOM     23  H   UNL     1       5.330   4.008  15.844  0.00  0.00    +0.000 HD
ATOM     24  H   UNL     1       6.745   2.945  15.766  0.00  0.00    +0.000 HD
ENDBRANCH  18  19
ENDBRANCH  17  18
ENDBRANCH  16  17
ENDBRANCH   9  10
ENDBRANCH   4   9
BRANCH   5  25
ATOM     25  C   UNL     1       0.116  10.267  18.234  0.00  0.00    +0.000 C 
BRANCH  25  26
ATOM     26  S   UNL     1      -1.666  10.105  17.856  0.00  0.00    +0.000 S 
BRANCH  26  27
ATOM     27  C   UNL     1      -2.040  11.871  17.999  0.00  0.00    +0.000 C 
ATOM     28  N   UNL     1      -3.137  12.271  18.543  0.00  0.00    +0.000 NA
ATOM     29  N   UNL     1      -1.093  12.822  17.552  0.00  0.00    +0.000 N 
ATOM     30  H   UNL     1      -3.836  11.611  18.908  0.00  0.00    +0.000 HD
ATOM     31  H   UNL     1      -0.218  12.508  17.113  0.00  0.00    +0.000 HD
ATOM     32  H   UNL     1      -1.270  13.832  17.661  0.00  0.00    +0.000 HD
ENDBRANCH  26  27
ENDBRANCH  25  26
ENDBRANCH   5  25
TORSDOF 9
ENDMDL
MODEL 7
REMARK VINA RESULT:      -7.0      3.015      7.665
REMARK  Name = 
REMARK  10 active torsions:
REMARK  status: ('A' for Active; 'I' for Inactive)
REMARK    1  A    between atoms: C_1  and  O_2
REMARK    2  A    between atoms: O_2  and  C_3
REMARK    3  A    between atoms: C_6  and  S_7
REMARK    4  A    between atoms: S_7  and  C_8
REMARK    5  A    between atoms: C_14  and  C_15
REMARK    6  A    between atoms: C_15  and  S_16
REMARK    7  A    between atoms: S_16  and  C_17
REMARK    8  A    between atoms: C_20  and  C_21
REMARK    9  A    between atoms: C_21  and  S_22
REMARK   10  A    between atoms: S_22  and  C_23
REMARK                            x       y       z     vdW  Elec       q    Type
REMARK                         _______ _______ _______ _____ _____    ______ ____
ROOT
ATOM      1  C   UNL     1       0.247   8.795  21.568  0.00  0.00    +0.000 A 
ATOM      2  C   UNL     1       1.111   7.704  21.556  0.00  0.00    +0.000 A 
ATOM      3  C   UNL     1       1.904   7.435  20.439  0.00  0.00    +0.000 A 
ATOM      4  C   UNL     1       1.876   8.266  19.310  0.00  0.00    +0.000 A 
ATOM      5  C   UNL     1       1.022   9.420  19.313  0.00  0.00    +0.000 A 
ATOM      6  C   UNL     1       0.217   9.654  20.454  0.00  0.00    +0.000 A 
ENDROOT
BRANCH   1   8
ATOM      7  C   UNL     1      -0.915  10.191  23.201  0.00  0.00    +0.000 C 
ATOM      8  O   UNL     1      -0.542   8.973  22.659  0.00  0.00    +0.000 OA
ENDBRANCH   1   8
BRANCH   4   9
ATOM      9  S   UNL     1       2.864   7.708  17.882  0.00  0.00    +0.000 S 
BRANCH   9  10
ATOM     10  C   UNL     1       2.851   5.916  18.093  0.00  0.00    +0.000 A 
ATOM     11  C   UNL     1       1.661   5.218  17.845  0.00  0.00    +0.000 A 
ATOM     12  C   UNL     1       1.583   3.844  18.026  0.00  0.00    +0.000 A 
ATOM     13  C   UNL     1       2.694   3.136  18.474  0.00  0.00    +0.000 A 
ATOM     14  F   UNL     1       2.611   1.796  18.655  0.00  0.00    +0.000 F 
ATOM     15  C   UNL     1       3.893   3.805  18.731  0.00  0.00    +0.000 A 
ATOM     16  C   UNL     1       4.006   5.198  18.544  0.00  0.00    +0.000 A 
BRANCH  16  17
ATOM     17  C   UNL     1       5.367   5.844  18.812  0.00  0.00    +0.000 C 
BRANCH  17  18
ATOM     18  S   UNL     1       6.184   6.505  17.314  0.00  0.00    +0.000 S 
BRANCH  18  19
ATOM     19  C   UNL     1       7.178   5.017  17.003  0.00  0.00    +0.000 C 
ATOM     20  N   UNL     1       7.605   4.306  17.979  0.00  0.00    +0.000 NA
ATOM     21  N   UNL     1       7.468   4.623  15.676  0.00  0.00    +0.000 N 
ATOM     22  H   UNL     1       7.407   4.560  18.959  0.00  0.00    +0.000 HD
ATOM     23  H   UNL     1       7.120   5.164  14.879  0.00  0.00    +0.000 HD
ATOM     24  H   UNL     1       8.014   3.759  15.484  0.00  0.00    +0.000 HD
ENDBRANCH  18  19
ENDBRANCH  17  18
ENDBRANCH  16  17
ENDBRANCH   9  10
ENDBRANCH   4   9
BRANCH   5  25
ATOM     25  C   UNL     1       0.927  10.467  18.199  0.00  0.00    +0.000 C 
BRANCH  25  26
ATOM     26  S   UNL     1       0.498  12.165  18.728  0.00  0.00    +0.000 S 
BRANCH  26  27
ATOM     27  C   UNL     1       2.173  12.833  18.553  0.00  0.00    +0.000 C 
ATOM     28  N   UNL     1       2.885  12.565  17.514  0.00  0.00    +0.000 NA
ATOM     29  N   UNL     1       2.685  13.698  19.548  0.00  0.00    +0.000 N 
ATOM     30  H   UNL     1       2.535  11.965  16.755  0.00  0.00    +0.000 HD
ATOM     31  H   UNL     1       2.123  13.911  20.382  0.00  0.00    +0.000 HD
ATOM     32  H   UNL     1       3.621  14.119  19.448  0.00  0.00    +0.000 HD
ENDBRANCH  26  27
ENDBRANCH  25  26
ENDBRANCH   5  25
TORSDOF 9
ENDMDL
MODEL 8
REMARK VINA RESULT:      -6.9      1.584      1.709
REMARK  Name = 
REMARK  10 active torsions:
REMARK  status: ('A' for Active; 'I' for Inactive)
REMARK    1  A    between atoms: C_1  and  O_2
REMARK    2  A    between atoms: O_2  and  C_3
REMARK    3  A    between atoms: C_6  and  S_7
REMARK    4  A    between atoms: S_7  and  C_8
REMARK    5  A    between atoms: C_14  and  C_15
REMARK    6  A    between atoms: C_15  and  S_16
REMARK    7  A    between atoms: S_16  and  C_17
REMARK    8  A    between atoms: C_20  and  C_21
REMARK    9  A    between atoms: C_21  and  S_22
REMARK   10  A    between atoms: S_22  and  C_23
REMARK                            x       y       z     vdW  Elec       q    Type
REMARK                         _______ _______ _______ _____ _____    ______ ____
ROOT
ATOM      1  C   UNL     1       2.847   3.377  18.526  0.00  0.00    +0.000 A 
ATOM      2  C   UNL     1       1.713   4.060  18.096  0.00  0.00    +0.000 A 
ATOM      3  C   UNL     1       1.739   5.444  17.915  0.00  0.00    +0.000 A 
ATOM      4  C   UNL     1       2.911   6.183  18.133  0.00  0.00    +0.000 A 
ATOM      5  C   UNL     1       4.104   5.496  18.539  0.00  0.00    +0.000 A 
ATOM      6  C   UNL     1       4.039   4.095  18.732  0.00  0.00    +0.000 A 
ENDROOT
BRANCH   1   8
ATOM      7  C   UNL     1       3.714   1.095  18.455  0.00  0.00    +0.000 C 
ATOM      8  O   UNL     1       2.744   2.039  18.740  0.00  0.00    +0.000 OA
ENDBRANCH   1   8
BRANCH   4   9
ATOM      9  S   UNL     1       2.752   7.994  17.986  0.00  0.00    +0.000 S 
BRANCH   9  10
ATOM     10  C   UNL     1       1.723   8.398  19.413  0.00  0.00    +0.000 A 
ATOM     11  C   UNL     1       1.762   7.554  20.530  0.00  0.00    +0.000 A 
ATOM     12  C   UNL     1       0.965   7.795  21.641  0.00  0.00    +0.000 A 
ATOM     13  C   UNL     1       0.098   8.883  21.653  0.00  0.00    +0.000 A 
ATOM     14  F   UNL     1      -0.683   9.111  22.737  0.00  0.00    +0.000 F 
ATOM     15  C   UNL     1       0.036   9.741  20.553  0.00  0.00    +0.000 A 
ATOM     16  C   UNL     1       0.842   9.528  19.415  0.00  0.00    +0.000 A 
BRANCH  16  17
ATOM     17  C   UNL     1       0.739  10.538  18.271  0.00  0.00    +0.000 C 
BRANCH  17  18
ATOM     18  S   UNL     1       0.179  12.200  18.794  0.00  0.00    +0.000 S 
BRANCH  18  19
ATOM     19  C   UNL     1       1.725  13.039  18.344  0.00  0.00    +0.000 C 
ATOM     20  N   UNL     1       1.986  14.208  18.799  0.00  0.00    +0.000 NA
ATOM     21  N   UNL     1       2.662  12.396  17.501  0.00  0.00    +0.000 N 
ATOM     22  H   UNL     1       1.329  14.704  19.420  0.00  0.00    +0.000 HD
ATOM     23  H   UNL     1       2.485  11.453  17.142  0.00  0.00    +0.000 HD
ATOM     24  H   UNL     1       3.562  12.856  17.257  0.00  0.00    +0.000 HD
ENDBRANCH  18  19
ENDBRANCH  17  18
ENDBRANCH  16  17
ENDBRANCH   9  10
ENDBRANCH   4   9
BRANCH   5  25
ATOM     25  C   UNL     1       5.481   6.138  18.746  0.00  0.00    +0.000 C 
BRANCH  25  26
ATOM     26  S   UNL     1       6.345   6.689  17.231  0.00  0.00    +0.000 S 
BRANCH  26  27
ATOM     27  C   UNL     1       7.198   5.121  16.933  0.00  0.00    +0.000 C 
ATOM     28  N   UNL     1       7.465   4.732  15.734  0.00  0.00    +0.000 NA
ATOM     29  N   UNL     1       7.620   4.337  18.033  0.00  0.00    +0.000 N 
ATOM     30  H   UNL     1       7.201   5.288  14.911  0.00  0.00    +0.000 HD
ATOM     31  H   UNL     1       7.406   4.640  18.991  0.00  0.00    +0.000 HD
ATOM     32  H   UNL     1       8.142   3.460  17.885  0.00  0.00    +0.000 HD
ENDBRANCH  26  27
ENDBRANCH  25  26
ENDBRANCH   5  25
TORSDOF 9
ENDMDL
MODEL 9
REMARK VINA RESULT:      -6.9      3.044      8.129
REMARK  Name = 
REMARK  10 active torsions:
REMARK  status: ('A' for Active; 'I' for Inactive)
REMARK    1  A    between atoms: C_1  and  O_2
REMARK    2  A    between atoms: O_2  and  C_3
REMARK    3  A    between atoms: C_6  and  S_7
REMARK    4  A    between atoms: S_7  and  C_8
REMARK    5  A    between atoms: C_14  and  C_15
REMARK    6  A    between atoms: C_15  and  S_16
REMARK    7  A    between atoms: S_16  and  C_17
REMARK    8  A    between atoms: C_20  and  C_21
REMARK    9  A    between atoms: C_21  and  S_22
REMARK   10  A    between atoms: S_22  and  C_23
REMARK                            x       y       z     vdW  Elec       q    Type
REMARK                         _______ _______ _______ _____ _____    ______ ____
ROOT
ATOM      1  C   UNL     1      -0.117   9.766  21.939  0.00  0.00    +0.000 A 
ATOM      2  C   UNL     1       1.054   9.048  22.166  0.00  0.00    +0.000 A 
ATOM      3  C   UNL     1       1.796   8.538  21.099  0.00  0.00    +0.000 A 
ATOM      4  C   UNL     1       1.403   8.756  19.770  0.00  0.00    +0.000 A 
ATOM      5  C   UNL     1       0.221   9.527  19.510  0.00  0.00    +0.000 A 
ATOM      6  C   UNL     1      -0.519  10.013  20.614  0.00  0.00    +0.000 A 
ENDROOT
BRANCH   1   8
ATOM      7  C   UNL     1      -1.523  11.378  23.116  0.00  0.00    +0.000 C 
ATOM      8  O   UNL     1      -0.827  10.187  23.018  0.00  0.00    +0.000 OA
ENDBRANCH   1   8
BRANCH   4   9
ATOM      9  S   UNL     1       2.399   7.913  18.494  0.00  0.00    +0.000 S 
BRANCH   9  10
ATOM     10  C   UNL     1       2.587   6.261  19.195  0.00  0.00    +0.000 A 
ATOM     11  C   UNL     1       1.639   5.812  20.124  0.00  0.00    +0.000 A 
ATOM     12  C   UNL     1       1.754   4.565  20.721  0.00  0.00    +0.000 A 
ATOM     13  C   UNL     1       2.832   3.741  20.413  0.00  0.00    +0.000 A 
ATOM     14  F   UNL     1       2.943   2.527  21.005  0.00  0.00    +0.000 F 
ATOM     15  C   UNL     1       3.794   4.162  19.493  0.00  0.00    +0.000 A 
ATOM     16  C   UNL     1       3.697   5.419  18.860  0.00  0.00    +0.000 A 
BRANCH  16  17
ATOM     17  C   UNL     1       4.773   5.785  17.835  0.00  0.00    +0.000 C 
BRANCH  17  18
ATOM     18  S   UNL     1       6.334   4.851  18.031  0.00  0.00    +0.000 S 
BRANCH  18  19
ATOM     19  C   UNL     1       7.402   6.320  18.025  0.00  0.00    +0.000 C 
ATOM     20  N   UNL     1       7.378   7.136  17.038  0.00  0.00    +0.000 NA
ATOM     21  N   UNL     1       8.255   6.581  19.123  0.00  0.00    +0.000 N 
ATOM     22  H   UNL     1       6.765   6.981  16.224  0.00  0.00    +0.000 HD
ATOM     23  H   UNL     1       8.276   5.954  19.933  0.00  0.00    +0.000 HD
ATOM     24  H   UNL     1       8.852   7.431  19.144  0.00  0.00    +0.000 HD
ENDBRANCH  18  19
ENDBRANCH  17  18
ENDBRANCH  16  17
ENDBRANCH   9  10
ENDBRANCH   4   9
BRANCH   5  25
ATOM     25  C   UNL     1      -0.305   9.920  18.124  0.00  0.00    +0.000 C 
BRANCH  25  26
ATOM     26  S   UNL     1      -2.124   9.936  17.932  0.00  0.00    +0.000 S 
BRANCH  26  27
ATOM     27  C   UNL     1      -2.183  11.452  16.944  0.00  0.00    +0.000 C 
ATOM     28  N   UNL     1      -2.982  11.553  15.938  0.00  0.00    +0.000 NA
ATOM     29  N   UNL     1      -1.377  12.555  17.310  0.00  0.00    +0.000 N 
ATOM     30  H   UNL     1      -3.605  10.784  15.659  0.00  0.00    +0.000 HD
ATOM     31  H   UNL     1      -0.734  12.479  18.108  0.00  0.00    +0.000 HD
ATOM     32  H   UNL     1      -1.426  13.441  16.783  0.00  0.00    +0.000 HD
ENDBRANCH  26  27
ENDBRANCH  25  26
ENDBRANCH   5  25
TORSDOF 9
ENDMDL
