MODEL 1
REMARK VINA RESULT:      -7.8      0.000      0.000
REMARK  Name = 
REMARK  4 active torsions:
REMARK  status: ('A' for Active; 'I' for Inactive)
REMARK    1  A    between atoms: N_2  and  C_4
REMARK    2  A    between atoms: C_6  and  C_7
REMARK    3  A    between atoms: C_7  and  N_8
REMARK    4  A    between atoms: C_17  and  O_18
REMARK                            x       y       z     vdW  Elec       q    Type
REMARK                         _______ _______ _______ _____ _____    ______ ____
ROOT
ATOM      1  C   UNL     1       6.342   5.003  16.291  0.00  0.00    +0.000 A 
ATOM      2  C   UNL     1       5.074   5.579  16.456  0.00  0.00    +0.000 A 
ATOM      3  C   UNL     1       4.613   5.869  17.747  0.00  0.00    +0.000 A 
ATOM      4  C   UNL     1       5.430   5.555  18.847  0.00  0.00    +0.000 A 
ATOM      5  C   UNL     1       6.691   4.972  18.667  0.00  0.00    +0.000 A 
ATOM      6  C   UNL     1       7.151   4.693  17.384  0.00  0.00    +0.000 A 
ENDROOT
BRANCH   1   8
ATOM      7  O   UNL     1       6.111   3.926  14.283  0.00  0.00    +0.000 OA
ATOM      8  N   UNL     1       6.790   4.728  14.944  0.00  0.00    +0.000 N 
ATOM      9  O   UNL     1       7.762   5.366  14.520  0.00  0.00    +0.000 OA
ENDBRANCH   1   8
BRANCH   6  10
ATOM     10  O   UNL     1       8.367   4.100  17.211  0.00  0.00    +0.000 OA
ATOM     11  H   UNL     1       9.051   4.781  17.100  0.00  0.00    +0.000 HD
ENDBRANCH   6  10
BRANCH   3  12
ATOM     12  C   UNL     1       3.248   6.496  17.952  0.00  0.00    +0.000 C 
BRANCH  12  13
ATOM     13  N   UNL     1       2.242   5.583  18.541  0.00  0.00    +0.000 NA
ATOM     14  C   UNL     1       2.352   4.230  17.986  0.00  0.00    +0.000 C 
ATOM     15  C   UNL     1       1.125   3.342  18.223  0.00  0.00    +0.000 C 
ATOM     16  C   UNL     1       1.075   2.665  19.583  0.00  0.00    +0.000 C 
ATOM     17  C   UNL     1       0.957   3.639  20.743  0.00  0.00    +0.000 C 
ATOM     18  C   UNL     1       2.210   4.481  20.914  0.00  0.00    +0.000 C 
ATOM     19  C   UNL     1       2.279   5.712  20.008  0.00  0.00    +0.000 C 
ENDBRANCH  12  13
ENDBRANCH   3  12
TORSDOF 4
ENDMDL
MODEL 2
REMARK VINA RESULT:      -7.6      1.637      2.456
REMARK  Name = 
REMARK  4 active torsions:
REMARK  status: ('A' for Active; 'I' for Inactive)
REMARK    1  A    between atoms: N_2  and  C_4
REMARK    2  A    between atoms: C_6  and  C_7
REMARK    3  A    between atoms: C_7  and  N_8
REMARK    4  A    between atoms: C_17  and  O_18
REMARK                            x       y       z     vdW  Elec       q    Type
REMARK                         _______ _______ _______ _____ _____    ______ ____
ROOT
ATOM      1  C   UNL     1       6.031   5.196  16.550  0.00  0.00    +0.000 A 
ATOM      2  C   UNL     1       5.072   4.172  16.585  0.00  0.00    +0.000 A 
ATOM      3  C   UNL     1       3.780   4.456  17.047  0.00  0.00    +0.000 A 
ATOM      4  C   UNL     1       3.485   5.759  17.483  0.00  0.00    +0.000 A 
ATOM      5  C   UNL     1       4.455   6.769  17.449  0.00  0.00    +0.000 A 
ATOM      6  C   UNL     1       5.735   6.489  16.983  0.00  0.00    +0.000 A 
ENDROOT
BRANCH   1   8
ATOM      7  O   UNL     1       7.670   5.348  14.958  0.00  0.00    +0.000 OA
ATOM      8  N   UNL     1       7.350   4.870  16.058  0.00  0.00    +0.000 N 
ATOM      9  O   UNL     1       8.093   4.210  16.797  0.00  0.00    +0.000 OA
ENDBRANCH   1   8
BRANCH   6  10
ATOM     10  O   UNL     1       6.687   7.465  16.977  0.00  0.00    +0.000 OA
ATOM     11  H   UNL     1       7.030   7.594  17.877  0.00  0.00    +0.000 HD
ENDBRANCH   6  10
BRANCH   3  12
ATOM     12  C   UNL     1       2.725   3.368  17.091  0.00  0.00    +0.000 C 
BRANCH  12  13
ATOM     13  N   UNL     1       2.443   2.850  18.449  0.00  0.00    +0.000 NA
ATOM     14  C   UNL     1       3.562   3.096  19.363  0.00  0.00    +0.000 C 
ATOM     15  C   UNL     1       3.535   2.256  20.645  0.00  0.00    +0.000 C 
ATOM     16  C   UNL     1       2.649   2.803  21.752  0.00  0.00    +0.000 C 
ATOM     17  C   UNL     1       1.173   2.831  21.392  0.00  0.00    +0.000 C 
ATOM     18  C   UNL     1       0.871   3.835  20.293  0.00  0.00    +0.000 C 
ATOM     19  C   UNL     1       1.113   3.318  18.873  0.00  0.00    +0.000 C 
ENDBRANCH  12  13
ENDBRANCH   3  12
TORSDOF 4
ENDMDL
MODEL 3
REMARK VINA RESULT:      -7.5      1.316      2.334
REMARK  Name = 
REMARK  4 active torsions:
REMARK  status: ('A' for Active; 'I' for Inactive)
REMARK    1  A    between atoms: N_2  and  C_4
REMARK    2  A    between atoms: C_6  and  C_7
REMARK    3  A    between atoms: C_7  and  N_8
REMARK    4  A    between atoms: C_17  and  O_18
REMARK                            x       y       z     vdW  Elec       q    Type
REMARK                         _______ _______ _______ _____ _____    ______ ____
ROOT
ATOM      1  C   UNL     1       6.505   5.533  17.815  0.00  0.00    +0.000 A 
ATOM      2  C   UNL     1       5.425   5.761  18.682  0.00  0.00    +0.000 A 
ATOM      3  C   UNL     1       4.243   6.318  18.176  0.00  0.00    +0.000 A 
ATOM      4  C   UNL     1       4.180   6.654  16.812  0.00  0.00    +0.000 A 
ATOM      5  C   UNL     1       5.269   6.428  15.961  0.00  0.00    +0.000 A 
ATOM      6  C   UNL     1       6.438   5.866  16.462  0.00  0.00    +0.000 A 
ENDROOT
BRANCH   1   8
ATOM      7  O   UNL     1       8.012   5.288  19.522  0.00  0.00    +0.000 OA
ATOM      8  N   UNL     1       7.704   4.946  18.369  0.00  0.00    +0.000 N 
ATOM      9  O   UNL     1       8.291   4.091  17.693  0.00  0.00    +0.000 OA
ENDBRANCH   1   8
BRANCH   6  10
ATOM     10  O   UNL     1       7.508   5.673  15.639  0.00  0.00    +0.000 OA
ATOM     11  H   UNL     1       8.210   5.204  16.119  0.00  0.00    +0.000 HD
ENDBRANCH   6  10
BRANCH   3  12
ATOM     12  C   UNL     1       3.062   6.570  19.090  0.00  0.00    +0.000 C 
BRANCH  12  13
ATOM     13  N   UNL     1       2.197   5.387  19.307  0.00  0.00    +0.000 NA
ATOM     14  C   UNL     1       2.536   4.297  18.387  0.00  0.00    +0.000 C 
ATOM     15  C   UNL     1       1.460   3.213  18.257  0.00  0.00    +0.000 C 
ATOM     16  C   UNL     1       1.480   2.156  19.349  0.00  0.00    +0.000 C 
ATOM     17  C   UNL     1       1.175   2.704  20.732  0.00  0.00    +0.000 C 
ATOM     18  C   UNL     1       2.273   3.624  21.238  0.00  0.00    +0.000 C 
ATOM     19  C   UNL     1       2.171   5.069  20.744  0.00  0.00    +0.000 C 
ENDBRANCH  12  13
ENDBRANCH   3  12
TORSDOF 4
ENDMDL
MODEL 4
REMARK VINA RESULT:      -7.5      1.630      2.502
REMARK  Name = 
REMARK  4 active torsions:
REMARK  status: ('A' for Active; 'I' for Inactive)
REMARK    1  A    between atoms: N_2  and  C_4
REMARK    2  A    between atoms: C_6  and  C_7
REMARK    3  A    between atoms: C_7  and  N_8
REMARK    4  A    between atoms: C_17  and  O_18
REMARK                            x       y       z     vdW  Elec       q    Type
REMARK                         _______ _______ _______ _____ _____    ______ ____
ROOT
ATOM      1  C   UNL     1       6.575   5.451  18.235  0.00  0.00    +0.000 A 
ATOM      2  C   UNL     1       5.259   5.892  18.443  0.00  0.00    +0.000 A 
ATOM      3  C   UNL     1       4.249   5.479  17.564  0.00  0.00    +0.000 A 
ATOM      4  C   UNL     1       4.588   4.647  16.482  0.00  0.00    +0.000 A 
ATOM      5  C   UNL     1       5.907   4.223  16.283  0.00  0.00    +0.000 A 
ATOM      6  C   UNL     1       6.908   4.626  17.161  0.00  0.00    +0.000 A 
ENDROOT
BRANCH   1   8
ATOM      7  O   UNL     1       8.304   6.840  18.812  0.00  0.00    +0.000 OA
ATOM      8  N   UNL     1       7.590   5.888  19.167  0.00  0.00    +0.000 N 
ATOM      9  O   UNL     1       7.623   5.342  20.278  0.00  0.00    +0.000 OA
ENDBRANCH   1   8
BRANCH   6  10
ATOM     10  O   UNL     1       8.197   4.235  16.950  0.00  0.00    +0.000 OA
ATOM     11  H   UNL     1       8.244   3.265  16.914  0.00  0.00    +0.000 HD
ENDBRANCH   6  10
BRANCH   3  12
ATOM     12  C   UNL     1       2.820   5.937  17.770  0.00  0.00    +0.000 C 
BRANCH  12  13
ATOM     13  N   UNL     1       2.000   5.020  18.596  0.00  0.00    +0.000 NA
ATOM     14  C   UNL     1       2.167   3.625  18.179  0.00  0.00    +0.000 C 
ATOM     15  C   UNL     1       1.078   2.673  18.687  0.00  0.00    +0.000 C 
ATOM     16  C   UNL     1       1.284   2.162  20.104  0.00  0.00    +0.000 C 
ATOM     17  C   UNL     1       1.229   3.254  21.158  0.00  0.00    +0.000 C 
ATOM     18  C   UNL     1       2.404   4.212  21.051  0.00  0.00    +0.000 C 
ATOM     19  C   UNL     1       2.225   5.327  20.019  0.00  0.00    +0.000 C 
ENDBRANCH  12  13
ENDBRANCH   3  12
TORSDOF 4
ENDMDL
MODEL 5
REMARK VINA RESULT:      -7.4      3.203      5.743
REMARK  Name = 
REMARK  4 active torsions:
REMARK  status: ('A' for Active; 'I' for Inactive)
REMARK    1  A    between atoms: N_2  and  C_4
REMARK    2  A    between atoms: C_6  and  C_7
REMARK    3  A    between atoms: C_7  and  N_8
REMARK    4  A    between atoms: C_17  and  O_18
REMARK                            x       y       z     vdW  Elec       q    Type
REMARK                         _______ _______ _______ _____ _____    ______ ____
ROOT
ATOM      1  C   UNL     1       1.781   3.832  18.824  0.00  0.00    +0.000 A 
ATOM      2  C   UNL     1       2.492   4.744  18.028  0.00  0.00    +0.000 A 
ATOM      3  C   UNL     1       2.839   5.993  18.558  0.00  0.00    +0.000 A 
ATOM      4  C   UNL     1       2.446   6.309  19.870  0.00  0.00    +0.000 A 
ATOM      5  C   UNL     1       1.730   5.391  20.649  0.00  0.00    +0.000 A 
ATOM      6  C   UNL     1       1.393   4.147  20.126  0.00  0.00    +0.000 A 
ENDROOT
BRANCH   1   8
ATOM      7  O   UNL     1       2.371   1.930  17.692  0.00  0.00    +0.000 OA
ATOM      8  N   UNL     1       1.449   2.548  18.248  0.00  0.00    +0.000 N 
ATOM      9  O   UNL     1       0.300   2.121  18.420  0.00  0.00    +0.000 OA
ENDBRANCH   1   8
BRANCH   6  10
ATOM     10  O   UNL     1       0.671   3.265  20.875  0.00  0.00    +0.000 OA
ATOM     11  H   UNL     1      -0.183   3.093  20.445  0.00  0.00    +0.000 HD
ENDBRANCH   6  10
BRANCH   3  12
ATOM     12  C   UNL     1       3.610   6.993  17.720  0.00  0.00    +0.000 C 
BRANCH  12  13
ATOM     13  N   UNL     1       4.992   6.574  17.392  0.00  0.00    +0.000 NA
ATOM     14  C   UNL     1       5.571   5.747  18.455  0.00  0.00    +0.000 C 
ATOM     15  C   UNL     1       7.097   5.611  18.398  0.00  0.00    +0.000 C 
ATOM     16  C   UNL     1       7.610   4.549  17.439  0.00  0.00    +0.000 C 
ATOM     17  C   UNL     1       7.291   4.840  15.983  0.00  0.00    +0.000 C 
ATOM     18  C   UNL     1       5.801   4.755  15.696  0.00  0.00    +0.000 C 
ATOM     19  C   UNL     1       5.015   6.025  16.026  0.00  0.00    +0.000 C 
ENDBRANCH  12  13
ENDBRANCH   3  12
TORSDOF 4
ENDMDL
MODEL 6
REMARK VINA RESULT:      -7.2      1.548      2.763
REMARK  Name = 
REMARK  4 active torsions:
REMARK  status: ('A' for Active; 'I' for Inactive)
REMARK    1  A    between atoms: N_2  and  C_4
REMARK    2  A    between atoms: C_6  and  C_7
REMARK    3  A    between atoms: C_7  and  N_8
REMARK    4  A    between atoms: C_17  and  O_18
REMARK                            x       y       z     vdW  Elec       q    Type
REMARK                         _______ _______ _______ _____ _____    ______ ____
ROOT
ATOM      1  C   UNL     1       6.592   5.562  17.894  0.00  0.00    +0.000 A 
ATOM      2  C   UNL     1       5.410   5.490  18.646  0.00  0.00    +0.000 A 
ATOM      3  C   UNL     1       4.241   6.079  18.148  0.00  0.00    +0.000 A 
ATOM      4  C   UNL     1       4.290   6.747  16.911  0.00  0.00    +0.000 A 
ATOM      5  C   UNL     1       5.480   6.817  16.176  0.00  0.00    +0.000 A 
ATOM      6  C   UNL     1       6.638   6.224  16.667  0.00  0.00    +0.000 A 
ENDROOT
BRANCH   1   8
ATOM      7  O   UNL     1       8.346   4.099  17.712  0.00  0.00    +0.000 OA
ATOM      8  N   UNL     1       7.777   4.933  18.435  0.00  0.00    +0.000 N 
ATOM      9  O   UNL     1       8.183   5.325  19.537  0.00  0.00    +0.000 OA
ENDBRANCH   1   8
BRANCH   6  10
ATOM     10  O   UNL     1       7.803   6.318  15.964  0.00  0.00    +0.000 OA
ATOM     11  H   UNL     1       8.541   6.481  16.574  0.00  0.00    +0.000 HD
ENDBRANCH   6  10
BRANCH   3  12
ATOM     12  C   UNL     1       2.950   6.012  18.938  0.00  0.00    +0.000 C 
BRANCH  12  13
ATOM     13  N   UNL     1       2.689   4.695  19.565  0.00  0.00    +0.000 NA
ATOM     14  C   UNL     1       2.199   4.841  20.939  0.00  0.00    +0.000 C 
ATOM     15  C   UNL     1       2.289   3.567  21.786  0.00  0.00    +0.000 C 
ATOM     16  C   UNL     1       1.143   2.586  21.594  0.00  0.00    +0.000 C 
ATOM     17  C   UNL     1       1.072   2.000  20.195  0.00  0.00    +0.000 C 
ATOM     18  C   UNL     1       0.702   3.044  19.155  0.00  0.00    +0.000 C 
ATOM     19  C   UNL     1       1.877   3.880  18.645  0.00  0.00    +0.000 C 
ENDBRANCH  12  13
ENDBRANCH   3  12
TORSDOF 4
ENDMDL
MODEL 7
REMARK VINA RESULT:      -7.1      1.765      2.890
REMARK  Name = 
REMARK  4 active torsions:
REMARK  status: ('A' for Active; 'I' for Inactive)
REMARK    1  A    between atoms: N_2  and  C_4
REMARK    2  A    between atoms: C_6  and  C_7
REMARK    3  A    between atoms: C_7  and  N_8
REMARK    4  A    between atoms: C_17  and  O_18
REMARK                            x       y       z     vdW  Elec       q    Type
REMARK                         _______ _______ _______ _____ _____    ______ ____
ROOT
ATOM      1  C   UNL     1       6.693   5.343  16.570  0.00  0.00    +0.000 A 
ATOM      2  C   UNL     1       5.642   4.707  17.249  0.00  0.00    +0.000 A 
ATOM      3  C   UNL     1       4.898   3.718  16.592  0.00  0.00    +0.000 A 
ATOM      4  C   UNL     1       5.212   3.405  15.258  0.00  0.00    +0.000 A 
ATOM      5  C   UNL     1       6.258   4.054  14.591  0.00  0.00    +0.000 A 
ATOM      6  C   UNL     1       7.003   5.028  15.246  0.00  0.00    +0.000 A 
ENDROOT
BRANCH   1   8
ATOM      7  O   UNL     1       7.894   6.030  18.395  0.00  0.00    +0.000 OA
ATOM      8  N   UNL     1       7.447   6.350  17.282  0.00  0.00    +0.000 N 
ATOM      9  O   UNL     1       7.662   7.423  16.704  0.00  0.00    +0.000 OA
ENDBRANCH   1   8
BRANCH   6  10
ATOM     10  O   UNL     1       8.003   5.681  14.587  0.00  0.00    +0.000 OA
ATOM     11  H   UNL     1       8.843   5.212  14.720  0.00  0.00    +0.000 HD
ENDBRANCH   6  10
BRANCH   3  12
ATOM     12  C   UNL     1       3.762   3.014  17.305  0.00  0.00    +0.000 C 
BRANCH  12  13
ATOM     13  N   UNL     1       3.410   3.602  18.618  0.00  0.00    +0.000 NA
ATOM     14  C   UNL     1       2.397   4.653  18.483  0.00  0.00    +0.000 C 
ATOM     15  C   UNL     1       2.272   5.578  19.699  0.00  0.00    +0.000 C 
ATOM     16  C   UNL     1       1.409   5.039  20.829  0.00  0.00    +0.000 C 
ATOM     17  C   UNL     1       1.967   3.784  21.475  0.00  0.00    +0.000 C 
ATOM     18  C   UNL     1       1.939   2.593  20.532  0.00  0.00    +0.000 C 
ATOM     19  C   UNL     1       3.126   2.514  19.570  0.00  0.00    +0.000 C 
ENDBRANCH  12  13
ENDBRANCH   3  12
TORSDOF 4
ENDMDL
MODEL 8
REMARK VINA RESULT:      -7.0      1.441      2.684
REMARK  Name = 
REMARK  4 active torsions:
REMARK  status: ('A' for Active; 'I' for Inactive)
REMARK    1  A    between atoms: N_2  and  C_4
REMARK    2  A    between atoms: C_6  and  C_7
REMARK    3  A    between atoms: C_7  and  N_8
REMARK    4  A    between atoms: C_17  and  O_18
REMARK                            x       y       z     vdW  Elec       q    Type
REMARK                         _______ _______ _______ _____ _____    ______ ____
ROOT
ATOM      1  C   UNL     1       5.869   5.158  15.882  0.00  0.00    +0.000 A 
ATOM      2  C   UNL     1       5.884   4.316  17.004  0.00  0.00    +0.000 A 
ATOM      3  C   UNL     1       5.136   4.665  18.136  0.00  0.00    +0.000 A 
ATOM      4  C   UNL     1       4.403   5.865  18.123  0.00  0.00    +0.000 A 
ATOM      5  C   UNL     1       4.404   6.699  16.998  0.00  0.00    +0.000 A 
ATOM      6  C   UNL     1       5.140   6.348  15.872  0.00  0.00    +0.000 A 
ENDROOT
BRANCH   1   8
ATOM      7  O   UNL     1       7.662   5.428  14.482  0.00  0.00    +0.000 OA
ATOM      8  N   UNL     1       6.644   4.762  14.727  0.00  0.00    +0.000 N 
ATOM      9  O   UNL     1       6.287   3.745  14.117  0.00  0.00    +0.000 OA
ENDBRANCH   1   8
BRANCH   6  10
ATOM     10  O   UNL     1       5.163   7.175  14.787  0.00  0.00    +0.000 OA
ATOM     11  H   UNL     1       6.055   7.543  14.675  0.00  0.00    +0.000 HD
ENDBRANCH   6  10
BRANCH   3  12
ATOM     12  C   UNL     1       5.133   3.770  19.358  0.00  0.00    +0.000 C 
BRANCH  12  13
ATOM     13  N   UNL     1       3.817   3.162  19.664  0.00  0.00    +0.000 NA
ATOM     14  C   UNL     1       2.974   4.069  20.449  0.00  0.00    +0.000 C 
ATOM     15  C   UNL     1       1.788   3.394  21.147  0.00  0.00    +0.000 C 
ATOM     16  C   UNL     1       0.563   3.187  20.270  0.00  0.00    +0.000 C 
ATOM     17  C   UNL     1       0.799   2.234  19.112  0.00  0.00    +0.000 C 
ATOM     18  C   UNL     1       1.762   2.807  18.086  0.00  0.00    +0.000 C 
ATOM     19  C   UNL     1       3.241   2.616  18.423  0.00  0.00    +0.000 C 
ENDBRANCH  12  13
ENDBRANCH   3  12
TORSDOF 4
ENDMDL
MODEL 9
REMARK VINA RESULT:      -7.0      1.872      2.654
REMARK  Name = 
REMARK  4 active torsions:
REMARK  status: ('A' for Active; 'I' for Inactive)
REMARK    1  A    between atoms: N_2  and  C_4
REMARK    2  A    between atoms: C_6  and  C_7
REMARK    3  A    between atoms: C_7  and  N_8
REMARK    4  A    between atoms: C_17  and  O_18
REMARK                            x       y       z     vdW  Elec       q    Type
REMARK                         _______ _______ _______ _____ _____    ______ ____
ROOT
ATOM      1  C   UNL     1       6.466   6.060  16.962  0.00  0.00    +0.000 A 
ATOM      2  C   UNL     1       5.218   6.066  17.604  0.00  0.00    +0.000 A 
ATOM      3  C   UNL     1       4.190   5.249  17.115  0.00  0.00    +0.000 A 
ATOM      4  C   UNL     1       4.432   4.459  15.977  0.00  0.00    +0.000 A 
ATOM      5  C   UNL     1       5.680   4.471  15.343  0.00  0.00    +0.000 A 
ATOM      6  C   UNL     1       6.703   5.275  15.834  0.00  0.00    +0.000 A 
ENDROOT
BRANCH   1   8
ATOM      7  O   UNL     1       7.805   7.914  16.840  0.00  0.00    +0.000 OA
ATOM      8  N   UNL     1       7.507   6.907  17.501  0.00  0.00    +0.000 N 
ATOM      9  O   UNL     1       7.967   6.614  18.613  0.00  0.00    +0.000 OA
ENDBRANCH   1   8
BRANCH   6  10
ATOM     10  O   UNL     1       7.910   5.307  15.199  0.00  0.00    +0.000 OA
ATOM     11  H   UNL     1       7.938   4.617  14.516  0.00  0.00    +0.000 HD
ENDBRANCH   6  10
BRANCH   3  12
ATOM     12  C   UNL     1       2.835   5.234  17.793  0.00  0.00    +0.000 C 
BRANCH  12  13
ATOM     13  N   UNL     1       2.623   4.085  18.704  0.00  0.00    +0.000 NA
ATOM     14  C   UNL     1       3.747   3.919  19.631  0.00  0.00    +0.000 C 
ATOM     15  C   UNL     1       3.811   2.550  20.317  0.00  0.00    +0.000 C 
ATOM     16  C   UNL     1       2.920   2.404  21.540  0.00  0.00    +0.000 C 
ATOM     17  C   UNL     1       1.437   2.503  21.227  0.00  0.00    +0.000 C 
ATOM     18  C   UNL     1       1.039   3.898  20.776  0.00  0.00    +0.000 C 
ATOM     19  C   UNL     1       1.277   4.181  19.292  0.00  0.00    +0.000 C 
ENDBRANCH  12  13
ENDBRANCH   3  12
TORSDOF 4
ENDMDL
