MODEL 1
REMARK VINA RESULT:      -7.0      0.000      0.000
REMARK  Name = 
REMARK  7 active torsions:
REMARK  status: ('A' for Active; 'I' for Inactive)
REMARK    1  A    between atoms: C_1  and  C_2
REMARK    2  A    between atoms: C_2  and  O_3
REMARK    3  A    between atoms: O_3  and  C_4
REMARK    4  A    between atoms: C_4  and  C_6
REMARK    5  A    between atoms: C_6  and  C_7
REMARK    6  A    between atoms: N_12  and  C_13
REMARK    7  A    between atoms: C_13  and  C_14
REMARK                            x       y       z     vdW  Elec       q    Type
REMARK                         _______ _______ _______ _____ _____    ______ ____
ROOT
ATOM      1  C   UNL     1       6.703   4.549  13.611  0.00  0.00    +0.000 C 
ATOM      2  C   UNL     1       6.117   4.672  14.831  0.00  0.00    +0.000 C 
ATOM      3  C   UNL     1       4.919   3.861  15.317  0.00  0.00    +0.000 C 
ATOM      4  C   UNL     1       5.057   3.361  16.773  0.00  0.00    +0.000 C 
ATOM      5  N   UNL     1       5.475   4.390  17.744  0.00  0.00    +0.000 NA
ATOM      6  C   UNL     1       6.726   5.006  17.268  0.00  0.00    +0.000 C 
ATOM      7  C   UNL     1       6.614   5.657  15.882  0.00  0.00    +0.000 C 
ENDROOT
BRANCH   1   8
ATOM      8  C   UNL     1       6.214   3.571  12.599  0.00  0.00    +0.000 C 
ATOM      9  O   UNL     1       6.908   2.732  12.038  0.00  0.00    +0.000 OA
BRANCH   8  10
ATOM     10  O   UNL     1       4.921   3.843  12.308  0.00  0.00    +0.000 OA
BRANCH  10  12
ATOM     11  C   UNL     1       3.428   3.807  10.468  0.00  0.00    +0.000 C 
ATOM     12  C   UNL     1       4.297   2.954  11.376  0.00  0.00    +0.000 C 
ENDBRANCH  10  12
ENDBRANCH   8  10
ENDBRANCH   1   8
BRANCH   1  13
ATOM     13  C   UNL     1       7.848   5.321  13.240  0.00  0.00    +0.000 C 
ATOM     14  N   UNL     1       8.771   5.964  12.962  0.00  0.00    +0.000 NA
ENDBRANCH   1  13
BRANCH   5  15
ATOM     15  C   UNL     1       4.381   5.354  17.976  0.00  0.00    +0.000 C 
BRANCH  15  16
ATOM     16  C   UNL     1       3.190   4.804  18.732  0.00  0.00    +0.000 A 
ATOM     17  C   UNL     1       3.073   5.019  20.114  0.00  0.00    +0.000 A 
ATOM     18  C   UNL     1       1.962   4.550  20.813  0.00  0.00    +0.000 A 
ATOM     19  C   UNL     1       0.955   3.864  20.141  0.00  0.00    +0.000 A 
ATOM     20  C   UNL     1       1.062   3.640  18.769  0.00  0.00    +0.000 A 
ATOM     21  C   UNL     1       2.174   4.106  18.066  0.00  0.00    +0.000 A 
ENDBRANCH  15  16
ENDBRANCH   5  15
TORSDOF 6
ENDMDL
MODEL 2
REMARK VINA RESULT:      -6.9      3.449      5.332
REMARK  Name = 
REMARK  7 active torsions:
REMARK  status: ('A' for Active; 'I' for Inactive)
REMARK    1  A    between atoms: C_1  and  C_2
REMARK    2  A    between atoms: C_2  and  O_3
REMARK    3  A    between atoms: O_3  and  C_4
REMARK    4  A    between atoms: C_4  and  C_6
REMARK    5  A    between atoms: C_6  and  C_7
REMARK    6  A    between atoms: N_12  and  C_13
REMARK    7  A    between atoms: C_13  and  C_14
REMARK                            x       y       z     vdW  Elec       q    Type
REMARK                         _______ _______ _______ _____ _____    ______ ____
ROOT
ATOM      1  C   UNL     1       7.115   6.081  18.519  0.00  0.00    +0.000 C 
ATOM      2  C   UNL     1       5.935   5.549  18.106  0.00  0.00    +0.000 C 
ATOM      3  C   UNL     1       5.184   5.951  16.839  0.00  0.00    +0.000 C 
ATOM      4  C   UNL     1       4.619   4.752  16.045  0.00  0.00    +0.000 C 
ATOM      5  N   UNL     1       3.876   3.768  16.855  0.00  0.00    +0.000 NA
ATOM      6  C   UNL     1       4.740   3.319  17.960  0.00  0.00    +0.000 C 
ATOM      7  C   UNL     1       5.215   4.452  18.880  0.00  0.00    +0.000 C 
ENDROOT
BRANCH   1   8
ATOM      8  C   UNL     1       7.813   7.144  17.742  0.00  0.00    +0.000 C 
ATOM      9  O   UNL     1       7.934   7.162  16.524  0.00  0.00    +0.000 OA
BRANCH   8  10
ATOM     10  O   UNL     1       8.398   8.010  18.602  0.00  0.00    +0.000 OA
BRANCH  10  12
ATOM     11  C   UNL     1       9.253  10.138  19.199  0.00  0.00    +0.000 C 
ATOM     12  C   UNL     1       8.414   9.379  18.185  0.00  0.00    +0.000 C 
ENDBRANCH  10  12
ENDBRANCH   8  10
ENDBRANCH   1   8
BRANCH   1  13
ATOM     13  C   UNL     1       7.777   5.627  19.701  0.00  0.00    +0.000 C 
ATOM     14  N   UNL     1       8.337   5.252  20.645  0.00  0.00    +0.000 NA
ENDBRANCH   1  13
BRANCH   5  15
ATOM     15  C   UNL     1       2.584   4.332  17.293  0.00  0.00    +0.000 C 
BRANCH  15  16
ATOM     16  C   UNL     1       2.092   3.843  18.638  0.00  0.00    +0.000 A 
ATOM     17  C   UNL     1       1.949   4.744  19.706  0.00  0.00    +0.000 A 
ATOM     18  C   UNL     1       1.461   4.311  20.938  0.00  0.00    +0.000 A 
ATOM     19  C   UNL     1       1.108   2.977  21.118  0.00  0.00    +0.000 A 
ATOM     20  C   UNL     1       1.249   2.072  20.067  0.00  0.00    +0.000 A 
ATOM     21  C   UNL     1       1.739   2.501  18.832  0.00  0.00    +0.000 A 
ENDBRANCH  15  16
ENDBRANCH   5  15
TORSDOF 6
ENDMDL
MODEL 3
REMARK VINA RESULT:      -6.9      3.544      5.455
REMARK  Name = 
REMARK  7 active torsions:
REMARK  status: ('A' for Active; 'I' for Inactive)
REMARK    1  A    between atoms: C_1  and  C_2
REMARK    2  A    between atoms: C_2  and  O_3
REMARK    3  A    between atoms: O_3  and  C_4
REMARK    4  A    between atoms: C_4  and  C_6
REMARK    5  A    between atoms: C_6  and  C_7
REMARK    6  A    between atoms: N_12  and  C_13
REMARK    7  A    between atoms: C_13  and  C_14
REMARK                            x       y       z     vdW  Elec       q    Type
REMARK                         _______ _______ _______ _____ _____    ______ ____
ROOT
ATOM      1  C   UNL     1       7.194   6.153  18.559  0.00  0.00    +0.000 C 
ATOM      2  C   UNL     1       5.976   5.671  18.195  0.00  0.00    +0.000 C 
ATOM      3  C   UNL     1       5.174   6.134  16.981  0.00  0.00    +0.000 C 
ATOM      4  C   UNL     1       4.528   4.977  16.186  0.00  0.00    +0.000 C 
ATOM      5  N   UNL     1       3.795   3.995  17.008  0.00  0.00    +0.000 NA
ATOM      6  C   UNL     1       4.700   3.487  18.053  0.00  0.00    +0.000 C 
ATOM      7  C   UNL     1       5.262   4.577  18.977  0.00  0.00    +0.000 C 
ENDROOT
BRANCH   1   8
ATOM      8  C   UNL     1       7.886   7.215  17.775  0.00  0.00    +0.000 C 
ATOM      9  O   UNL     1       8.000   7.229  16.556  0.00  0.00    +0.000 OA
BRANCH   8  10
ATOM     10  O   UNL     1       8.474   8.084  18.629  0.00  0.00    +0.000 OA
BRANCH  10  12
ATOM     11  C   UNL     1       9.316  10.223  19.206  0.00  0.00    +0.000 C 
ATOM     12  C   UNL     1       8.422   9.461  18.243  0.00  0.00    +0.000 C 
ENDBRANCH  10  12
ENDBRANCH   8  10
ENDBRANCH   1   8
BRANCH   1  13
ATOM     13  C   UNL     1       7.901   5.643  19.691  0.00  0.00    +0.000 C 
ATOM     14  N   UNL     1       8.451   5.232  20.625  0.00  0.00    +0.000 NA
ENDBRANCH   1  13
BRANCH   5  15
ATOM     15  C   UNL     1       2.548   4.588  17.530  0.00  0.00    +0.000 C 
BRANCH  15  16
ATOM     16  C   UNL     1       2.049   3.996  18.831  0.00  0.00    +0.000 A 
ATOM     17  C   UNL     1       1.550   2.684  18.862  0.00  0.00    +0.000 A 
ATOM     18  C   UNL     1       1.123   2.116  20.061  0.00  0.00    +0.000 A 
ATOM     19  C   UNL     1       1.193   2.848  21.242  0.00  0.00    +0.000 A 
ATOM     20  C   UNL     1       1.683   4.153  21.224  0.00  0.00    +0.000 A 
ATOM     21  C   UNL     1       2.109   4.727  20.024  0.00  0.00    +0.000 A 
ENDBRANCH  15  16
ENDBRANCH   5  15
TORSDOF 6
ENDMDL
MODEL 4
REMARK VINA RESULT:      -6.9      0.152      1.058
REMARK  Name = 
REMARK  7 active torsions:
REMARK  status: ('A' for Active; 'I' for Inactive)
REMARK    1  A    between atoms: C_1  and  C_2
REMARK    2  A    between atoms: C_2  and  O_3
REMARK    3  A    between atoms: O_3  and  C_4
REMARK    4  A    between atoms: C_4  and  C_6
REMARK    5  A    between atoms: C_6  and  C_7
REMARK    6  A    between atoms: N_12  and  C_13
REMARK    7  A    between atoms: C_13  and  C_14
REMARK                            x       y       z     vdW  Elec       q    Type
REMARK                         _______ _______ _______ _____ _____    ______ ____
ROOT
ATOM      1  C   UNL     1       6.681   4.542  13.567  0.00  0.00    +0.000 C 
ATOM      2  C   UNL     1       6.051   4.665  14.765  0.00  0.00    +0.000 C 
ATOM      3  C   UNL     1       4.830   3.859  15.203  0.00  0.00    +0.000 C 
ATOM      4  C   UNL     1       4.912   3.352  16.661  0.00  0.00    +0.000 C 
ATOM      5  N   UNL     1       5.300   4.375  17.650  0.00  0.00    +0.000 NA
ATOM      6  C   UNL     1       6.572   4.985  17.224  0.00  0.00    +0.000 C 
ATOM      7  C   UNL     1       6.515   5.641  15.837  0.00  0.00    +0.000 C 
ENDROOT
BRANCH   1   8
ATOM      8  C   UNL     1       6.223   3.571  12.533  0.00  0.00    +0.000 C 
ATOM      9  O   UNL     1       6.932   2.731  11.994  0.00  0.00    +0.000 OA
BRANCH   8  10
ATOM     10  O   UNL     1       4.943   3.852  12.197  0.00  0.00    +0.000 OA
BRANCH  10  12
ATOM     11  C   UNL     1       3.360   3.731  10.438  0.00  0.00    +0.000 C 
ATOM     12  C   UNL     1       4.324   2.929  11.294  0.00  0.00    +0.000 C 
ENDBRANCH  10  12
ENDBRANCH   8  10
ENDBRANCH   1   8
BRANCH   1  13
ATOM     13  C   UNL     1       7.843   5.309  13.241  0.00  0.00    +0.000 C 
ATOM     14  N   UNL     1       8.790   5.913  12.956  0.00  0.00    +0.000 NA
ENDBRANCH   1  13
BRANCH   5  15
ATOM     15  C   UNL     1       4.205   5.345  17.847  0.00  0.00    +0.000 C 
BRANCH  15  16
ATOM     16  C   UNL     1       3.063   4.857  18.713  0.00  0.00    +0.000 A 
ATOM     17  C   UNL     1       2.099   3.985  18.182  0.00  0.00    +0.000 A 
ATOM     18  C   UNL     1       1.064   3.501  18.981  0.00  0.00    +0.000 A 
ATOM     19  C   UNL     1       0.982   3.879  20.318  0.00  0.00    +0.000 A 
ATOM     20  C   UNL     1       1.930   4.747  20.856  0.00  0.00    +0.000 A 
ATOM     21  C   UNL     1       2.967   5.236  20.058  0.00  0.00    +0.000 A 
ENDBRANCH  15  16
ENDBRANCH   5  15
TORSDOF 6
ENDMDL
MODEL 5
REMARK VINA RESULT:      -6.5      3.498      7.604
REMARK  Name = 
REMARK  7 active torsions:
REMARK  status: ('A' for Active; 'I' for Inactive)
REMARK    1  A    between atoms: C_1  and  C_2
REMARK    2  A    between atoms: C_2  and  O_3
REMARK    3  A    between atoms: O_3  and  C_4
REMARK    4  A    between atoms: C_4  and  C_6
REMARK    5  A    between atoms: C_6  and  C_7
REMARK    6  A    between atoms: N_12  and  C_13
REMARK    7  A    between atoms: C_13  and  C_14
REMARK                            x       y       z     vdW  Elec       q    Type
REMARK                         _______ _______ _______ _____ _____    ______ ____
ROOT
ATOM      1  C   UNL     1       2.098   4.091  19.268  0.00  0.00    +0.000 C 
ATOM      2  C   UNL     1       3.145   4.343  18.439  0.00  0.00    +0.000 C 
ATOM      3  C   UNL     1       4.272   5.334  18.722  0.00  0.00    +0.000 C 
ATOM      4  C   UNL     1       5.675   4.797  18.360  0.00  0.00    +0.000 C 
ATOM      5  N   UNL     1       5.779   4.188  17.020  0.00  0.00    +0.000 NA
ATOM      6  C   UNL     1       4.756   3.135  16.901  0.00  0.00    +0.000 C 
ATOM      7  C   UNL     1       3.319   3.635  17.101  0.00  0.00    +0.000 C 
ENDROOT
BRANCH   1   8
ATOM      8  C   UNL     1       1.950   4.781  20.580  0.00  0.00    +0.000 C 
ATOM      9  O   UNL     1       2.455   4.410  21.632  0.00  0.00    +0.000 OA
BRANCH   8  10
ATOM     10  O   UNL     1       1.070   5.800  20.448  0.00  0.00    +0.000 OA
BRANCH  10  12
ATOM     11  C   UNL     1       1.956   7.853  19.663  0.00  0.00    +0.000 C 
ATOM     12  C   UNL     1       1.532   7.078  20.898  0.00  0.00    +0.000 C 
ENDBRANCH  10  12
ENDBRANCH   8  10
ENDBRANCH   1   8
BRANCH   1  13
ATOM     13  C   UNL     1       1.098   3.120  18.950  0.00  0.00    +0.000 C 
ATOM     14  N   UNL     1       0.285   2.326  18.719  0.00  0.00    +0.000 NA
ENDBRANCH   1  13
BRANCH   5  15
ATOM     15  C   UNL     1       5.698   5.227  15.975  0.00  0.00    +0.000 C 
BRANCH  15  16
ATOM     16  C   UNL     1       6.191   4.804  14.608  0.00  0.00    +0.000 A 
ATOM     17  C   UNL     1       5.458   3.876  13.851  0.00  0.00    +0.000 A 
ATOM     18  C   UNL     1       5.883   3.507  12.576  0.00  0.00    +0.000 A 
ATOM     19  C   UNL     1       7.042   4.062  12.041  0.00  0.00    +0.000 A 
ATOM     20  C   UNL     1       7.781   4.980  12.784  0.00  0.00    +0.000 A 
ATOM     21  C   UNL     1       7.360   5.351  14.063  0.00  0.00    +0.000 A 
ENDBRANCH  15  16
ENDBRANCH   5  15
TORSDOF 6
ENDMDL
MODEL 6
REMARK VINA RESULT:      -6.5      3.442      7.666
REMARK  Name = 
REMARK  7 active torsions:
REMARK  status: ('A' for Active; 'I' for Inactive)
REMARK    1  A    between atoms: C_1  and  C_2
REMARK    2  A    between atoms: C_2  and  O_3
REMARK    3  A    between atoms: O_3  and  C_4
REMARK    4  A    between atoms: C_4  and  C_6
REMARK    5  A    between atoms: C_6  and  C_7
REMARK    6  A    between atoms: N_12  and  C_13
REMARK    7  A    between atoms: C_13  and  C_14
REMARK                            x       y       z     vdW  Elec       q    Type
REMARK                         _______ _______ _______ _____ _____    ______ ____
ROOT
ATOM      1  C   UNL     1       2.135   4.182  19.206  0.00  0.00    +0.000 C 
ATOM      2  C   UNL     1       3.165   4.434  18.355  0.00  0.00    +0.000 C 
ATOM      3  C   UNL     1       4.275   5.454  18.596  0.00  0.00    +0.000 C 
ATOM      4  C   UNL     1       5.684   4.937  18.228  0.00  0.00    +0.000 C 
ATOM      5  N   UNL     1       5.781   4.296  16.902  0.00  0.00    +0.000 NA
ATOM      6  C   UNL     1       4.778   3.220  16.825  0.00  0.00    +0.000 C 
ATOM      7  C   UNL     1       3.334   3.696  17.034  0.00  0.00    +0.000 C 
ENDROOT
BRANCH   1   8
ATOM      8  C   UNL     1       1.991   4.903  20.503  0.00  0.00    +0.000 C 
ATOM      9  O   UNL     1       2.351   4.473  21.591  0.00  0.00    +0.000 OA
BRANCH   8  10
ATOM     10  O   UNL     1       1.289   6.042  20.301  0.00  0.00    +0.000 OA
BRANCH  10  12
ATOM     11  C   UNL     1       0.834   8.185  21.202  0.00  0.00    +0.000 C 
ATOM     12  C   UNL     1       1.931   7.248  20.728  0.00  0.00    +0.000 C 
ENDBRANCH  10  12
ENDBRANCH   8  10
ENDBRANCH   1   8
BRANCH   1  13
ATOM     13  C   UNL     1       1.151   3.183  18.928  0.00  0.00    +0.000 C 
ATOM     14  N   UNL     1       0.358   2.362  18.727  0.00  0.00    +0.000 NA
ENDBRANCH   1  13
BRANCH   5  15
ATOM     15  C   UNL     1       5.663   5.306  15.832  0.00  0.00    +0.000 C 
BRANCH  15  16
ATOM     16  C   UNL     1       6.163   4.864  14.473  0.00  0.00    +0.000 A 
ATOM     17  C   UNL     1       7.366   5.378  13.965  0.00  0.00    +0.000 A 
ATOM     18  C   UNL     1       7.855   4.950  12.731  0.00  0.00    +0.000 A 
ATOM     19  C   UNL     1       7.151   4.002  11.994  0.00  0.00    +0.000 A 
ATOM     20  C   UNL     1       5.953   3.487  12.486  0.00  0.00    +0.000 A 
ATOM     21  C   UNL     1       5.459   3.916  13.720  0.00  0.00    +0.000 A 
ENDBRANCH  15  16
ENDBRANCH   5  15
TORSDOF 6
ENDMDL
MODEL 7
REMARK VINA RESULT:      -6.5      5.319      8.762
REMARK  Name = 
REMARK  7 active torsions:
REMARK  status: ('A' for Active; 'I' for Inactive)
REMARK    1  A    between atoms: C_1  and  C_2
REMARK    2  A    between atoms: C_2  and  O_3
REMARK    3  A    between atoms: O_3  and  C_4
REMARK    4  A    between atoms: C_4  and  C_6
REMARK    5  A    between atoms: C_6  and  C_7
REMARK    6  A    between atoms: N_12  and  C_13
REMARK    7  A    between atoms: C_13  and  C_14
REMARK                            x       y       z     vdW  Elec       q    Type
REMARK                         _______ _______ _______ _____ _____    ______ ____
ROOT
ATOM      1  C   UNL     1       0.945   8.859  20.358  0.00  0.00    +0.000 C 
ATOM      2  C   UNL     1       1.724   7.806  19.994  0.00  0.00    +0.000 C 
ATOM      3  C   UNL     1       1.880   6.512  20.790  0.00  0.00    +0.000 C 
ATOM      4  C   UNL     1       1.848   5.238  19.914  0.00  0.00    +0.000 C 
ATOM      5  N   UNL     1       2.721   5.282  18.726  0.00  0.00    +0.000 NA
ATOM      6  C   UNL     1       2.386   6.481  17.939  0.00  0.00    +0.000 C 
ATOM      7  C   UNL     1       2.543   7.798  18.710  0.00  0.00    +0.000 C 
ENDROOT
BRANCH   1   8
ATOM      8  C   UNL     1       0.138   8.845  21.611  0.00  0.00    +0.000 C 
ATOM      9  O   UNL     1      -0.778   8.069  21.850  0.00  0.00    +0.000 OA
BRANCH   8  10
ATOM     10  O   UNL     1       0.494   9.901  22.379  0.00  0.00    +0.000 OA
BRANCH  10  12
ATOM     11  C   UNL     1      -0.911  11.809  22.395  0.00  0.00    +0.000 C 
ATOM     12  C   UNL     1      -0.569  10.516  23.114  0.00  0.00    +0.000 C 
ENDBRANCH  10  12
ENDBRANCH   8  10
ENDBRANCH   1   8
BRANCH   1  13
ATOM     13  C   UNL     1       0.821  10.025  19.541  0.00  0.00    +0.000 C 
ATOM     14  N   UNL     1       0.714  10.955  18.857  0.00  0.00    +0.000 NA
ENDBRANCH   1  13
BRANCH   5  15
ATOM     15  C   UNL     1       4.140   5.203  19.125  0.00  0.00    +0.000 C 
BRANCH  15  16
ATOM     16  C   UNL     1       5.126   5.114  17.980  0.00  0.00    +0.000 A 
ATOM     17  C   UNL     1       6.192   6.023  17.898  0.00  0.00    +0.000 A 
ATOM     18  C   UNL     1       7.128   5.927  16.868  0.00  0.00    +0.000 A 
ATOM     19  C   UNL     1       7.011   4.922  15.913  0.00  0.00    +0.000 A 
ATOM     20  C   UNL     1       5.954   4.016  15.982  0.00  0.00    +0.000 A 
ATOM     21  C   UNL     1       5.014   4.110  17.010  0.00  0.00    +0.000 A 
ENDBRANCH  15  16
ENDBRANCH   5  15
TORSDOF 6
ENDMDL
MODEL 8
REMARK VINA RESULT:      -6.4      5.857      8.644
REMARK  Name = 
REMARK  7 active torsions:
REMARK  status: ('A' for Active; 'I' for Inactive)
REMARK    1  A    between atoms: C_1  and  C_2
REMARK    2  A    between atoms: C_2  and  O_3
REMARK    3  A    between atoms: O_3  and  C_4
REMARK    4  A    between atoms: C_4  and  C_6
REMARK    5  A    between atoms: C_6  and  C_7
REMARK    6  A    between atoms: N_12  and  C_13
REMARK    7  A    between atoms: C_13  and  C_14
REMARK                            x       y       z     vdW  Elec       q    Type
REMARK                         _______ _______ _______ _____ _____    ______ ____
ROOT
ATOM      1  C   UNL     1       0.636   9.934  20.834  0.00  0.00    +0.000 C 
ATOM      2  C   UNL     1       1.057   8.932  20.017  0.00  0.00    +0.000 C 
ATOM      3  C   UNL     1       1.264   9.056  18.509  0.00  0.00    +0.000 C 
ATOM      4  C   UNL     1       2.559   8.382  18.003  0.00  0.00    +0.000 C 
ATOM      5  N   UNL     1       2.772   7.006  18.493  0.00  0.00    +0.000 NA
ATOM      6  C   UNL     1       2.713   7.016  19.964  0.00  0.00    +0.000 C 
ATOM      7  C   UNL     1       1.386   7.538  20.533  0.00  0.00    +0.000 C 
ENDROOT
BRANCH   1   8
ATOM      8  C   UNL     1       0.331  11.297  20.315  0.00  0.00    +0.000 C 
ATOM      9  O   UNL     1       1.162  12.169  20.097  0.00  0.00    +0.000 OA
BRANCH   8  10
ATOM     10  O   UNL     1      -1.011  11.456  20.249  0.00  0.00    +0.000 OA
BRANCH  10  12
ATOM     11  C   UNL     1      -1.993  10.645  18.251  0.00  0.00    +0.000 C 
ATOM     12  C   UNL     1      -1.521  11.889  18.983  0.00  0.00    +0.000 C 
ENDBRANCH  10  12
ENDBRANCH   8  10
ENDBRANCH   1   8
BRANCH   1  13
ATOM     13  C   UNL     1       0.500   9.751  22.245  0.00  0.00    +0.000 C 
ATOM     14  N   UNL     1       0.400   9.628  23.393  0.00  0.00    +0.000 NA
ENDBRANCH   1  13
BRANCH   5  15
ATOM     15  C   UNL     1       1.814   6.079  17.859  0.00  0.00    +0.000 C 
BRANCH  15  16
ATOM     16  C   UNL     1       2.225   4.622  17.871  0.00  0.00    +0.000 A 
ATOM     17  C   UNL     1       3.524   4.254  17.484  0.00  0.00    +0.000 A 
ATOM     18  C   UNL     1       3.925   2.920  17.527  0.00  0.00    +0.000 A 
ATOM     19  C   UNL     1       3.036   1.939  17.959  0.00  0.00    +0.000 A 
ATOM     20  C   UNL     1       1.743   2.291  18.341  0.00  0.00    +0.000 A 
ATOM     21  C   UNL     1       1.337   3.627  18.297  0.00  0.00    +0.000 A 
ENDBRANCH  15  16
ENDBRANCH   5  15
TORSDOF 6
ENDMDL
MODEL 9
REMARK VINA RESULT:      -6.4      5.124      8.672
REMARK  Name = 
REMARK  7 active torsions:
REMARK  status: ('A' for Active; 'I' for Inactive)
REMARK    1  A    between atoms: C_1  and  C_2
REMARK    2  A    between atoms: C_2  and  O_3
REMARK    3  A    between atoms: O_3  and  C_4
REMARK    4  A    between atoms: C_4  and  C_6
REMARK    5  A    between atoms: C_6  and  C_7
REMARK    6  A    between atoms: N_12  and  C_13
REMARK    7  A    between atoms: C_13  and  C_14
REMARK                            x       y       z     vdW  Elec       q    Type
REMARK                         _______ _______ _______ _____ _____    ______ ____
ROOT
ATOM      1  C   UNL     1       1.091   8.580  20.347  0.00  0.00    +0.000 C 
ATOM      2  C   UNL     1       1.812   7.484  19.991  0.00  0.00    +0.000 C 
ATOM      3  C   UNL     1       1.821   6.155  20.743  0.00  0.00    +0.000 C 
ATOM      4  C   UNL     1       1.750   4.919  19.818  0.00  0.00    +0.000 C 
ATOM      5  N   UNL     1       2.698   4.936  18.687  0.00  0.00    +0.000 NA
ATOM      6  C   UNL     1       2.503   6.184  17.929  0.00  0.00    +0.000 C 
ATOM      7  C   UNL     1       2.708   7.458  18.760  0.00  0.00    +0.000 C 
ENDROOT
BRANCH   1   8
ATOM      8  C   UNL     1       0.207   8.584  21.547  0.00  0.00    +0.000 C 
ATOM      9  O   UNL     1      -0.816   7.925  21.670  0.00  0.00    +0.000 OA
BRANCH   8  10
ATOM     10  O   UNL     1       0.646   9.525  22.417  0.00  0.00    +0.000 OA
BRANCH  10  12
ATOM     11  C   UNL     1      -0.809  11.388  22.570  0.00  0.00    +0.000 C 
ATOM     12  C   UNL     1      -0.358  10.109  23.253  0.00  0.00    +0.000 C 
ENDBRANCH  10  12
ENDBRANCH   8  10
ENDBRANCH   1   8
BRANCH   1  13
ATOM     13  C   UNL     1       1.106   9.780  19.571  0.00  0.00    +0.000 C 
ATOM     14  N   UNL     1       1.091  10.751  18.938  0.00  0.00    +0.000 NA
ENDBRANCH   1  13
BRANCH   5  15
ATOM     15  C   UNL     1       4.078   4.735  19.169  0.00  0.00    +0.000 C 
BRANCH  15  16
ATOM     16  C   UNL     1       5.138   4.700  18.088  0.00  0.00    +0.000 A 
ATOM     17  C   UNL     1       4.942   3.923  16.936  0.00  0.00    +0.000 A 
ATOM     18  C   UNL     1       5.894   3.912  15.917  0.00  0.00    +0.000 A 
ATOM     19  C   UNL     1       7.049   4.678  16.036  0.00  0.00    +0.000 A 
ATOM     20  C   UNL     1       7.257   5.451  17.177  0.00  0.00    +0.000 A 
ATOM     21  C   UNL     1       6.307   5.462  18.201  0.00  0.00    +0.000 A 
ENDBRANCH  15  16
ENDBRANCH   5  15
TORSDOF 6
ENDMDL
