MODEL 1
REMARK VINA RESULT:      -7.7      0.000      0.000
REMARK  Name = 
REMARK  11 active torsions:
REMARK  status: ('A' for Active; 'I' for Inactive)
REMARK    1  A    between atoms: C_1  and  O_2
REMARK    2  A    between atoms: O_2  and  C_3
REMARK    3  A    between atoms: C_6  and  N_7
REMARK    4  A    between atoms: C_8  and  C_10
REMARK    5  A    between atoms: C_10  and  O_11
REMARK    6  A    between atoms: O_11  and  C_12
REMARK    7  A    between atoms: C_12  and  C_14
REMARK    8  A    between atoms: C_14  and  N_15
REMARK    9  A    between atoms: C_16  and  C_18
REMARK   10  A    between atoms: C_25  and  O_26
REMARK   11  A    between atoms: O_26  and  C_27
REMARK                            x       y       z     vdW  Elec       q    Type
REMARK                         _______ _______ _______ _____ _____    ______ ____
ROOT
ATOM      1  C   UNL     1       2.633   3.588  20.994  0.00  0.00    +0.000 C 
ENDROOT
BRANCH   1   3
ATOM      2  N   UNL     1       2.630   5.885  20.198  0.00  0.00    +0.000 N 
ATOM      3  C   UNL     1       1.834   4.777  20.469  0.00  0.00    +0.000 C 
ATOM      4  O   UNL     1       0.624   4.681  20.287  0.00  0.00    +0.000 OA
ATOM      5  H   UNL     1       3.626   5.764  20.357  0.00  0.00    +0.000 HD
BRANCH   2   9
ATOM      6  C   UNL     1       1.115   9.663  19.042  0.00  0.00    +0.000 A 
ATOM      7  C   UNL     1       1.886   8.908  18.151  0.00  0.00    +0.000 A 
ATOM      8  C   UNL     1       2.399   7.664  18.516  0.00  0.00    +0.000 A 
ATOM      9  C   UNL     1       2.197   7.163  19.796  0.00  0.00    +0.000 A 
ATOM     10  C   UNL     1       1.509   7.958  20.720  0.00  0.00    +0.000 A 
ATOM     11  C   UNL     1       0.965   9.208  20.361  0.00  0.00    +0.000 A 
BRANCH   6  13
ATOM     12  C   UNL     1       1.336  12.001  18.766  0.00  0.00    +0.000 C 
ATOM     13  O   UNL     1       0.524  10.832  18.641  0.00  0.00    +0.000 OA
ENDBRANCH   6  13
BRANCH  11  14
ATOM     14  O   UNL     1       0.314   9.811  21.406  0.00  0.00    +0.000 OA
ATOM     15  C   UNL     1       0.528   9.326  22.724  0.00  0.00    +0.000 C 
ENDBRANCH  11  14
ENDBRANCH   2   9
ENDBRANCH   1   3
BRANCH   1  16
ATOM     16  O   UNL     1       3.959   3.568  20.461  0.00  0.00    +0.000 OA
BRANCH  16  17
ATOM     17  C   UNL     1       4.363   2.373  19.947  0.00  0.00    +0.000 C 
ATOM     18  O   UNL     1       5.011   1.522  20.544  0.00  0.00    +0.000 OA
BRANCH  17  19
ATOM     19  C   UNL     1       3.833   2.206  18.532  0.00  0.00    +0.000 C 
BRANCH  19  20
ATOM     20  N   UNL     1       4.618   2.966  17.582  0.00  0.00    +0.000 N 
ATOM     21  C   UNL     1       4.150   4.133  17.009  0.00  0.00    +0.000 C 
ATOM     22  O   UNL     1       3.075   4.640  17.313  0.00  0.00    +0.000 OA
ATOM     23  H   UNL     1       5.435   2.514  17.190  0.00  0.00    +0.000 HD
BRANCH  21  24
ATOM     24  C   UNL     1       5.123   4.722  15.977  0.00  0.00    +0.000 C 
ATOM     25  C   UNL     1       5.080   6.256  15.985  0.00  0.00    +0.000 C 
ATOM     26  C   UNL     1       5.799   6.824  17.205  0.00  0.00    +0.000 C 
ATOM     27  C   UNL     1       7.264   6.424  17.177  0.00  0.00    +0.000 C 
ATOM     28  C   UNL     1       7.428   4.908  17.153  0.00  0.00    +0.000 C 
ATOM     29  C   UNL     1       6.568   4.209  16.095  0.00  0.00    +0.000 C 
ENDBRANCH  21  24
ENDBRANCH  19  20
ENDBRANCH  17  19
ENDBRANCH  16  17
ENDBRANCH   1  16
TORSDOF 9
ENDMDL
MODEL 2
REMARK VINA RESULT:      -7.3      0.898      1.090
REMARK  Name = 
REMARK  11 active torsions:
REMARK  status: ('A' for Active; 'I' for Inactive)
REMARK    1  A    between atoms: C_1  and  O_2
REMARK    2  A    between atoms: O_2  and  C_3
REMARK    3  A    between atoms: C_6  and  N_7
REMARK    4  A    between atoms: C_8  and  C_10
REMARK    5  A    between atoms: C_10  and  O_11
REMARK    6  A    between atoms: O_11  and  C_12
REMARK    7  A    between atoms: C_12  and  C_14
REMARK    8  A    between atoms: C_14  and  N_15
REMARK    9  A    between atoms: C_16  and  C_18
REMARK   10  A    between atoms: C_25  and  O_26
REMARK   11  A    between atoms: O_26  and  C_27
REMARK                            x       y       z     vdW  Elec       q    Type
REMARK                         _______ _______ _______ _____ _____    ______ ____
ROOT
ATOM      1  C   UNL     1       2.423   3.440  21.332  0.00  0.00    +0.000 C 
ENDROOT
BRANCH   1   3
ATOM      2  N   UNL     1       2.457   5.773  20.650  0.00  0.00    +0.000 N 
ATOM      3  C   UNL     1       1.775   4.567  20.533  0.00  0.00    +0.000 C 
ATOM      4  O   UNL     1       0.781   4.350  19.844  0.00  0.00    +0.000 OA
ATOM      5  H   UNL     1       3.296   5.753  21.221  0.00  0.00    +0.000 HD
BRANCH   2   9
ATOM      6  C   UNL     1       1.082   9.457  19.088  0.00  0.00    +0.000 A 
ATOM      7  C   UNL     1       1.982   8.672  18.358  0.00  0.00    +0.000 A 
ATOM      8  C   UNL     1       2.451   7.458  18.859  0.00  0.00    +0.000 A 
ATOM      9  C   UNL     1       2.072   7.020  20.122  0.00  0.00    +0.000 A 
ATOM     10  C   UNL     1       1.250   7.850  20.895  0.00  0.00    +0.000 A 
ATOM     11  C   UNL     1       0.750   9.069  20.394  0.00  0.00    +0.000 A 
BRANCH   6  13
ATOM     12  C   UNL     1       1.325  11.777  18.702  0.00  0.00    +0.000 C 
ATOM     13  O   UNL     1       0.542  10.593  18.544  0.00  0.00    +0.000 OA
ENDBRANCH   6  13
BRANCH  11  14
ATOM     14  O   UNL     1      -0.051   9.713  21.302  0.00  0.00    +0.000 OA
ATOM     15  C   UNL     1      -0.123   9.220  22.632  0.00  0.00    +0.000 C 
ENDBRANCH  11  14
ENDBRANCH   2   9
ENDBRANCH   1   3
BRANCH   1  16
ATOM     16  O   UNL     1       2.788   2.342  20.492  0.00  0.00    +0.000 OA
BRANCH  16  17
ATOM     17  C   UNL     1       4.028   2.420  19.935  0.00  0.00    +0.000 C 
ATOM     18  O   UNL     1       5.057   1.961  20.417  0.00  0.00    +0.000 OA
BRANCH  17  19
ATOM     19  C   UNL     1       3.952   3.105  18.580  0.00  0.00    +0.000 C 
BRANCH  19  20
ATOM     20  N   UNL     1       5.240   3.633  18.183  0.00  0.00    +0.000 N 
ATOM     21  C   UNL     1       5.457   4.179  16.933  0.00  0.00    +0.000 C 
ATOM     22  O   UNL     1       4.564   4.316  16.102  0.00  0.00    +0.000 OA
ATOM     23  H   UNL     1       6.034   3.407  18.771  0.00  0.00    +0.000 HD
BRANCH  21  24
ATOM     24  C   UNL     1       6.916   4.603  16.713  0.00  0.00    +0.000 C 
ATOM     25  C   UNL     1       7.002   6.026  16.145  0.00  0.00    +0.000 C 
ATOM     26  C   UNL     1       6.706   7.070  17.217  0.00  0.00    +0.000 C 
ATOM     27  C   UNL     1       7.736   6.977  18.330  0.00  0.00    +0.000 C 
ATOM     28  C   UNL     1       7.749   5.590  18.964  0.00  0.00    +0.000 C 
ATOM     29  C   UNL     1       7.821   4.446  17.947  0.00  0.00    +0.000 C 
ENDBRANCH  21  24
ENDBRANCH  19  20
ENDBRANCH  17  19
ENDBRANCH  16  17
ENDBRANCH   1  16
TORSDOF 9
ENDMDL
MODEL 3
REMARK VINA RESULT:      -7.1      5.288      7.444
REMARK  Name = 
REMARK  11 active torsions:
REMARK  status: ('A' for Active; 'I' for Inactive)
REMARK    1  A    between atoms: C_1  and  O_2
REMARK    2  A    between atoms: O_2  and  C_3
REMARK    3  A    between atoms: C_6  and  N_7
REMARK    4  A    between atoms: C_8  and  C_10
REMARK    5  A    between atoms: C_10  and  O_11
REMARK    6  A    between atoms: O_11  and  C_12
REMARK    7  A    between atoms: C_12  and  C_14
REMARK    8  A    between atoms: C_14  and  N_15
REMARK    9  A    between atoms: C_16  and  C_18
REMARK   10  A    between atoms: C_25  and  O_26
REMARK   11  A    between atoms: O_26  and  C_27
REMARK                            x       y       z     vdW  Elec       q    Type
REMARK                         _______ _______ _______ _____ _____    ______ ____
ROOT
ATOM      1  C   UNL     1       8.137   6.789  18.498  0.00  0.00    +0.000 C 
ENDROOT
BRANCH   1   3
ATOM      2  N   UNL     1       9.083   8.924  19.173  0.00  0.00    +0.000 N 
ATOM      3  C   UNL     1       8.192   8.302  18.306  0.00  0.00    +0.000 C 
ATOM      4  O   UNL     1       7.525   8.841  17.427  0.00  0.00    +0.000 OA
ATOM      5  H   UNL     1       9.594   8.309  19.799  0.00  0.00    +0.000 HD
BRANCH   2   9
ATOM      6  C   UNL     1       9.940  13.052  19.539  0.00  0.00    +0.000 A 
ATOM      7  C   UNL     1       9.450  12.332  20.634  0.00  0.00    +0.000 A 
ATOM      8  C   UNL     1       9.156  10.973  20.531  0.00  0.00    +0.000 A 
ATOM      9  C   UNL     1       9.297  10.308  19.320  0.00  0.00    +0.000 A 
ATOM     10  C   UNL     1       9.693  11.046  18.198  0.00  0.00    +0.000 A 
ATOM     11  C   UNL     1      10.015  12.416  18.290  0.00  0.00    +0.000 A 
BRANCH   6  13
ATOM     12  C   UNL     1       9.310  15.328  19.427  0.00  0.00    +0.000 C 
ATOM     13  O   UNL     1      10.329  14.358  19.675  0.00  0.00    +0.000 OA
ENDBRANCH   6  13
BRANCH  11  14
ATOM     14  O   UNL     1      10.399  12.941  17.083  0.00  0.00    +0.000 OA
ATOM     15  C   UNL     1      11.783  13.105  16.810  0.00  0.00    +0.000 C 
ENDBRANCH  11  14
ENDBRANCH   2   9
ENDBRANCH   1   3
BRANCH   1  16
ATOM     16  O   UNL     1       6.912   6.240  18.009  0.00  0.00    +0.000 OA
BRANCH  16  17
ATOM     17  C   UNL     1       7.013   5.015  17.423  0.00  0.00    +0.000 C 
ATOM     18  O   UNL     1       8.041   4.355  17.323  0.00  0.00    +0.000 OA
BRANCH  17  19
ATOM     19  C   UNL     1       5.645   4.541  16.962  0.00  0.00    +0.000 C 
BRANCH  19  20
ATOM     20  N   UNL     1       5.040   3.653  17.933  0.00  0.00    +0.000 N 
ATOM     21  C   UNL     1       3.734   3.219  17.818  0.00  0.00    +0.000 C 
ATOM     22  O   UNL     1       3.021   3.497  16.858  0.00  0.00    +0.000 OA
ATOM     23  H   UNL     1       5.532   3.522  18.808  0.00  0.00    +0.000 HD
BRANCH  21  24
ATOM     24  C   UNL     1       3.289   2.349  19.003  0.00  0.00    +0.000 C 
ATOM     25  C   UNL     1       3.562   3.049  20.340  0.00  0.00    +0.000 C 
ATOM     26  C   UNL     1       2.557   4.168  20.595  0.00  0.00    +0.000 C 
ATOM     27  C   UNL     1       1.152   3.595  20.677  0.00  0.00    +0.000 C 
ATOM     28  C   UNL     1       0.776   2.858  19.395  0.00  0.00    +0.000 C 
ATOM     29  C   UNL     1       1.834   1.856  18.924  0.00  0.00    +0.000 C 
ENDBRANCH  21  24
ENDBRANCH  19  20
ENDBRANCH  17  19
ENDBRANCH  16  17
ENDBRANCH   1  16
TORSDOF 9
ENDMDL
MODEL 4
REMARK VINA RESULT:      -7.0      1.263      1.849
REMARK  Name = 
REMARK  11 active torsions:
REMARK  status: ('A' for Active; 'I' for Inactive)
REMARK    1  A    between atoms: C_1  and  O_2
REMARK    2  A    between atoms: O_2  and  C_3
REMARK    3  A    between atoms: C_6  and  N_7
REMARK    4  A    between atoms: C_8  and  C_10
REMARK    5  A    between atoms: C_10  and  O_11
REMARK    6  A    between atoms: O_11  and  C_12
REMARK    7  A    between atoms: C_12  and  C_14
REMARK    8  A    between atoms: C_14  and  N_15
REMARK    9  A    between atoms: C_16  and  C_18
REMARK   10  A    between atoms: C_25  and  O_26
REMARK   11  A    between atoms: O_26  and  C_27
REMARK                            x       y       z     vdW  Elec       q    Type
REMARK                         _______ _______ _______ _____ _____    ______ ____
ROOT
ATOM      1  C   UNL     1       2.787   3.677  21.113  0.00  0.00    +0.000 C 
ENDROOT
BRANCH   1   3
ATOM      2  N   UNL     1       2.698   5.913  20.164  0.00  0.00    +0.000 N 
ATOM      3  C   UNL     1       1.937   4.825  20.576  0.00  0.00    +0.000 C 
ATOM      4  O   UNL     1       0.716   4.714  20.504  0.00  0.00    +0.000 OA
ATOM      5  H   UNL     1       3.704   5.806  20.246  0.00  0.00    +0.000 HD
BRANCH   2   9
ATOM      6  C   UNL     1       1.056   9.589  18.859  0.00  0.00    +0.000 A 
ATOM      7  C   UNL     1       1.877   8.840  18.009  0.00  0.00    +0.000 A 
ATOM      8  C   UNL     1       2.432   7.629  18.423  0.00  0.00    +0.000 A 
ATOM      9  C   UNL     1       2.222   7.160  19.714  0.00  0.00    +0.000 A 
ATOM     10  C   UNL     1       1.483   7.954  20.598  0.00  0.00    +0.000 A 
ATOM     11  C   UNL     1       0.897   9.169  20.189  0.00  0.00    +0.000 A 
BRANCH   6  13
ATOM     12  C   UNL     1      -0.944  10.552  18.046  0.00  0.00    +0.000 C 
ATOM     13  O   UNL     1       0.427  10.720  18.410  0.00  0.00    +0.000 OA
ENDBRANCH   6  13
BRANCH  11  14
ATOM     14  O   UNL     1       0.199   9.776  21.201  0.00  0.00    +0.000 OA
ATOM     15  C   UNL     1       0.568  11.086  21.605  0.00  0.00    +0.000 C 
ENDBRANCH  11  14
ENDBRANCH   2   9
ENDBRANCH   1   3
BRANCH   1  16
ATOM     16  O   UNL     1       2.332   2.413  20.625  0.00  0.00    +0.000 OA
BRANCH  16  17
ATOM     17  C   UNL     1       2.538   2.192  19.297  0.00  0.00    +0.000 C 
ATOM     18  O   UNL     1       1.662   2.054  18.452  0.00  0.00    +0.000 OA
BRANCH  17  19
ATOM     19  C   UNL     1       4.027   2.208  18.989  0.00  0.00    +0.000 C 
BRANCH  19  20
ATOM     20  N   UNL     1       4.382   3.347  18.168  0.00  0.00    +0.000 N 
ATOM     21  C   UNL     1       5.311   4.285  18.575  0.00  0.00    +0.000 C 
ATOM     22  O   UNL     1       5.944   4.184  19.621  0.00  0.00    +0.000 OA
ATOM     23  H   UNL     1       3.783   3.551  17.377  0.00  0.00    +0.000 HD
BRANCH  21  24
ATOM     24  C   UNL     1       5.468   5.440  17.575  0.00  0.00    +0.000 C 
ATOM     25  C   UNL     1       6.948   5.743  17.305  0.00  0.00    +0.000 C 
ATOM     26  C   UNL     1       7.576   4.684  16.405  0.00  0.00    +0.000 C 
ATOM     27  C   UNL     1       6.876   4.668  15.056  0.00  0.00    +0.000 C 
ATOM     28  C   UNL     1       5.384   4.387  15.206  0.00  0.00    +0.000 C 
ATOM     29  C   UNL     1       4.693   5.258  16.259  0.00  0.00    +0.000 C 
ENDBRANCH  21  24
ENDBRANCH  19  20
ENDBRANCH  17  19
ENDBRANCH  16  17
ENDBRANCH   1  16
TORSDOF 9
ENDMDL
MODEL 5
REMARK VINA RESULT:      -7.0      5.049      6.959
REMARK  Name = 
REMARK  11 active torsions:
REMARK  status: ('A' for Active; 'I' for Inactive)
REMARK    1  A    between atoms: C_1  and  O_2
REMARK    2  A    between atoms: O_2  and  C_3
REMARK    3  A    between atoms: C_6  and  N_7
REMARK    4  A    between atoms: C_8  and  C_10
REMARK    5  A    between atoms: C_10  and  O_11
REMARK    6  A    between atoms: O_11  and  C_12
REMARK    7  A    between atoms: C_12  and  C_14
REMARK    8  A    between atoms: C_14  and  N_15
REMARK    9  A    between atoms: C_16  and  C_18
REMARK   10  A    between atoms: C_25  and  O_26
REMARK   11  A    between atoms: O_26  and  C_27
REMARK                            x       y       z     vdW  Elec       q    Type
REMARK                         _______ _______ _______ _____ _____    ______ ____
ROOT
ATOM      1  C   UNL     1       7.898   6.546  18.494  0.00  0.00    +0.000 C 
ENDROOT
BRANCH   1   3
ATOM      2  N   UNL     1       8.881   8.694  19.068  0.00  0.00    +0.000 N 
ATOM      3  C   UNL     1       8.086   8.021  18.147  0.00  0.00    +0.000 C 
ATOM      4  O   UNL     1       7.595   8.486  17.122  0.00  0.00    +0.000 OA
ATOM      5  H   UNL     1       9.250   8.132  19.829  0.00  0.00    +0.000 HD
BRANCH   2   9
ATOM      6  C   UNL     1       9.566  12.864  19.282  0.00  0.00    +0.000 A 
ATOM      7  C   UNL     1       9.415  12.236  18.041  0.00  0.00    +0.000 A 
ATOM      8  C   UNL     1       9.195  10.862  17.950  0.00  0.00    +0.000 A 
ATOM      9  C   UNL     1       9.168  10.072  19.093  0.00  0.00    +0.000 A 
ATOM     10  C   UNL     1       9.417  10.682  20.328  0.00  0.00    +0.000 A 
ATOM     11  C   UNL     1       9.620  12.073  20.439  0.00  0.00    +0.000 A 
BRANCH   6  13
ATOM     12  C   UNL     1       8.461  14.916  19.678  0.00  0.00    +0.000 C 
ATOM     13  O   UNL     1       9.673  14.227  19.369  0.00  0.00    +0.000 OA
ENDBRANCH   6  13
BRANCH  11  14
ATOM     14  O   UNL     1       9.823  12.466  21.737  0.00  0.00    +0.000 OA
ATOM     15  C   UNL     1       8.726  12.466  22.638  0.00  0.00    +0.000 C 
ENDBRANCH  11  14
ENDBRANCH   2   9
ENDBRANCH   1   3
BRANCH   1  16
ATOM     16  O   UNL     1       7.818   5.736  17.319  0.00  0.00    +0.000 OA
BRANCH  16  17
ATOM     17  C   UNL     1       6.721   4.933  17.238  0.00  0.00    +0.000 C 
ATOM     18  O   UNL     1       6.528   4.074  16.386  0.00  0.00    +0.000 OA
BRANCH  17  19
ATOM     19  C   UNL     1       5.786   5.204  18.405  0.00  0.00    +0.000 C 
BRANCH  19  20
ATOM     20  N   UNL     1       5.094   4.001  18.816  0.00  0.00    +0.000 N 
ATOM     21  C   UNL     1       3.819   3.700  18.377  0.00  0.00    +0.000 C 
ATOM     22  O   UNL     1       3.216   4.390  17.561  0.00  0.00    +0.000 OA
ATOM     23  H   UNL     1       5.485   3.487  19.596  0.00  0.00    +0.000 HD
BRANCH  21  24
ATOM     24  C   UNL     1       3.261   2.414  19.004  0.00  0.00    +0.000 C 
ATOM     25  C   UNL     1       3.518   2.377  20.517  0.00  0.00    +0.000 C 
ATOM     26  C   UNL     1       2.581   3.322  21.262  0.00  0.00    +0.000 C 
ATOM     27  C   UNL     1       1.138   2.896  21.049  0.00  0.00    +0.000 C 
ATOM     28  C   UNL     1       0.773   2.884  19.569  0.00  0.00    +0.000 C 
ATOM     29  C   UNL     1       1.781   2.138  18.689  0.00  0.00    +0.000 C 
ENDBRANCH  21  24
ENDBRANCH  19  20
ENDBRANCH  17  19
ENDBRANCH  16  17
ENDBRANCH   1  16
TORSDOF 9
ENDMDL
MODEL 6
REMARK VINA RESULT:      -6.9      5.507      7.711
REMARK  Name = 
REMARK  11 active torsions:
REMARK  status: ('A' for Active; 'I' for Inactive)
REMARK    1  A    between atoms: C_1  and  O_2
REMARK    2  A    between atoms: O_2  and  C_3
REMARK    3  A    between atoms: C_6  and  N_7
REMARK    4  A    between atoms: C_8  and  C_10
REMARK    5  A    between atoms: C_10  and  O_11
REMARK    6  A    between atoms: O_11  and  C_12
REMARK    7  A    between atoms: C_12  and  C_14
REMARK    8  A    between atoms: C_14  and  N_15
REMARK    9  A    between atoms: C_16  and  C_18
REMARK   10  A    between atoms: C_25  and  O_26
REMARK   11  A    between atoms: O_26  and  C_27
REMARK                            x       y       z     vdW  Elec       q    Type
REMARK                         _______ _______ _______ _____ _____    ______ ____
ROOT
ATOM      1  C   UNL     1       7.926   7.101  18.033  0.00  0.00    +0.000 C 
ENDROOT
BRANCH   1   3
ATOM      2  N   UNL     1       9.054   9.015  19.020  0.00  0.00    +0.000 N 
ATOM      3  C   UNL     1       8.136   8.612  18.056  0.00  0.00    +0.000 C 
ATOM      4  O   UNL     1       7.555   9.333  17.250  0.00  0.00    +0.000 OA
ATOM      5  H   UNL     1       9.481   8.271  19.563  0.00  0.00    +0.000 HD
BRANCH   2   9
ATOM      6  C   UNL     1      10.296  12.948  19.966  0.00  0.00    +0.000 A 
ATOM      7  C   UNL     1       9.775  12.113  20.960  0.00  0.00    +0.000 A 
ATOM      8  C   UNL     1       9.355  10.816  20.667  0.00  0.00    +0.000 A 
ATOM      9  C   UNL     1       9.399  10.336  19.364  0.00  0.00    +0.000 A 
ATOM     10  C   UNL     1       9.828  11.201  18.350  0.00  0.00    +0.000 A 
ATOM     11  C   UNL     1      10.277  12.507  18.633  0.00  0.00    +0.000 A 
BRANCH   6  13
ATOM     12  C   UNL     1      10.170  14.844  21.373  0.00  0.00    +0.000 C 
ATOM     13  O   UNL     1      10.808  14.179  20.280  0.00  0.00    +0.000 OA
ENDBRANCH   6  13
BRANCH  11  14
ATOM     14  O   UNL     1      10.672  13.177  17.504  0.00  0.00    +0.000 OA
ATOM     15  C   UNL     1      12.049  13.190  17.156  0.00  0.00    +0.000 C 
ENDBRANCH  11  14
ENDBRANCH   2   9
ENDBRANCH   1   3
BRANCH   1  16
ATOM     16  O   UNL     1       6.554   6.764  17.820  0.00  0.00    +0.000 OA
BRANCH  16  17
ATOM     17  C   UNL     1       6.311   5.947  16.757  0.00  0.00    +0.000 C 
ATOM     18  O   UNL     1       6.644   6.166  15.599  0.00  0.00    +0.000 OA
BRANCH  17  19
ATOM     19  C   UNL     1       5.621   4.675  17.222  0.00  0.00    +0.000 C 
BRANCH  19  20
ATOM     20  N   UNL     1       4.218   4.905  17.493  0.00  0.00    +0.000 N 
ATOM     21  C   UNL     1       3.743   5.119  18.773  0.00  0.00    +0.000 C 
ATOM     22  O   UNL     1       4.479   5.196  19.752  0.00  0.00    +0.000 OA
ATOM     23  H   UNL     1       3.563   4.702  16.748  0.00  0.00    +0.000 HD
BRANCH  21  24
ATOM     24  C   UNL     1       2.215   5.264  18.825  0.00  0.00    +0.000 C 
ATOM     25  C   UNL     1       1.534   4.333  17.812  0.00  0.00    +0.000 C 
ATOM     26  C   UNL     1       1.560   2.884  18.286  0.00  0.00    +0.000 C 
ATOM     27  C   UNL     1       0.793   2.751  19.591  0.00  0.00    +0.000 C 
ATOM     28  C   UNL     1       1.379   3.649  20.675  0.00  0.00    +0.000 C 
ATOM     29  C   UNL     1       1.603   5.096  20.226  0.00  0.00    +0.000 C 
ENDBRANCH  21  24
ENDBRANCH  19  20
ENDBRANCH  17  19
ENDBRANCH  16  17
ENDBRANCH   1  16
TORSDOF 9
ENDMDL
MODEL 7
REMARK VINA RESULT:      -6.9      5.244      7.083
REMARK  Name = 
REMARK  11 active torsions:
REMARK  status: ('A' for Active; 'I' for Inactive)
REMARK    1  A    between atoms: C_1  and  O_2
REMARK    2  A    between atoms: O_2  and  C_3
REMARK    3  A    between atoms: C_6  and  N_7
REMARK    4  A    between atoms: C_8  and  C_10
REMARK    5  A    between atoms: C_10  and  O_11
REMARK    6  A    between atoms: O_11  and  C_12
REMARK    7  A    between atoms: C_12  and  C_14
REMARK    8  A    between atoms: C_14  and  N_15
REMARK    9  A    between atoms: C_16  and  C_18
REMARK   10  A    between atoms: C_25  and  O_26
REMARK   11  A    between atoms: O_26  and  C_27
REMARK                            x       y       z     vdW  Elec       q    Type
REMARK                         _______ _______ _______ _____ _____    ______ ____
ROOT
ATOM      1  C   UNL     1       6.995   7.401  17.223  0.00  0.00    +0.000 C 
ENDROOT
BRANCH   1   3
ATOM      2  N   UNL     1       8.170   9.432  17.860  0.00  0.00    +0.000 N 
ATOM      3  C   UNL     1       8.045   8.069  18.106  0.00  0.00    +0.000 C 
ATOM      4  O   UNL     1       8.648   7.418  18.956  0.00  0.00    +0.000 OA
ATOM      5  H   UNL     1       7.546   9.813  17.155  0.00  0.00    +0.000 HD
BRANCH   2   9
ATOM      6  C   UNL     1      10.813  12.217  19.636  0.00  0.00    +0.000 A 
ATOM      7  C   UNL     1      10.977  11.842  18.299  0.00  0.00    +0.000 A 
ATOM      8  C   UNL     1      10.120  10.921  17.697  0.00  0.00    +0.000 A 
ATOM      9  C   UNL     1       9.107  10.314  18.430  0.00  0.00    +0.000 A 
ATOM     10  C   UNL     1       9.002  10.614  19.793  0.00  0.00    +0.000 A 
ATOM     11  C   UNL     1       9.846  11.559  20.411  0.00  0.00    +0.000 A 
BRANCH   6  13
ATOM     12  C   UNL     1      11.146  14.538  19.945  0.00  0.00    +0.000 C 
ATOM     13  O   UNL     1      11.590  13.202  20.188  0.00  0.00    +0.000 OA
ENDBRANCH   6  13
BRANCH  11  14
ATOM     14  O   UNL     1       9.560  11.719  21.742  0.00  0.00    +0.000 OA
ATOM     15  C   UNL     1       8.421  12.479  22.117  0.00  0.00    +0.000 C 
ENDBRANCH  11  14
ENDBRANCH   2   9
ENDBRANCH   1   3
BRANCH   1  16
ATOM     16  O   UNL     1       7.483   6.185  16.653  0.00  0.00    +0.000 OA
BRANCH  16  17
ATOM     17  C   UNL     1       6.963   5.042  17.180  0.00  0.00    +0.000 C 
ATOM     18  O   UNL     1       7.279   4.544  18.254  0.00  0.00    +0.000 OA
BRANCH  17  19
ATOM     19  C   UNL     1       5.871   4.497  16.274  0.00  0.00    +0.000 C 
BRANCH  19  20
ATOM     20  N   UNL     1       4.555   4.861  16.756  0.00  0.00    +0.000 N 
ATOM     21  C   UNL     1       3.695   3.934  17.312  0.00  0.00    +0.000 C 
ATOM     22  O   UNL     1       4.007   2.762  17.498  0.00  0.00    +0.000 OA
ATOM     23  H   UNL     1       4.200   5.771  16.489  0.00  0.00    +0.000 HD
BRANCH  21  24
ATOM     24  C   UNL     1       2.330   4.535  17.681  0.00  0.00    +0.000 C 
ATOM     25  C   UNL     1       1.573   3.633  18.665  0.00  0.00    +0.000 C 
ATOM     26  C   UNL     1       2.160   3.728  20.069  0.00  0.00    +0.000 C 
ATOM     27  C   UNL     1       2.033   5.151  20.589  0.00  0.00    +0.000 C 
ATOM     28  C   UNL     1       2.743   6.144  19.674  0.00  0.00    +0.000 C 
ATOM     29  C   UNL     1       2.386   5.984  18.193  0.00  0.00    +0.000 C 
ENDBRANCH  21  24
ENDBRANCH  19  20
ENDBRANCH  17  19
ENDBRANCH  16  17
ENDBRANCH   1  16
TORSDOF 9
ENDMDL
MODEL 8
REMARK VINA RESULT:      -6.9      5.690      7.417
REMARK  Name = 
REMARK  11 active torsions:
REMARK  status: ('A' for Active; 'I' for Inactive)
REMARK    1  A    between atoms: C_1  and  O_2
REMARK    2  A    between atoms: O_2  and  C_3
REMARK    3  A    between atoms: C_6  and  N_7
REMARK    4  A    between atoms: C_8  and  C_10
REMARK    5  A    between atoms: C_10  and  O_11
REMARK    6  A    between atoms: O_11  and  C_12
REMARK    7  A    between atoms: C_12  and  C_14
REMARK    8  A    between atoms: C_14  and  N_15
REMARK    9  A    between atoms: C_16  and  C_18
REMARK   10  A    between atoms: C_25  and  O_26
REMARK   11  A    between atoms: O_26  and  C_27
REMARK                            x       y       z     vdW  Elec       q    Type
REMARK                         _______ _______ _______ _____ _____    ______ ____
ROOT
ATOM      1  C   UNL     1       8.120   7.705  18.200  0.00  0.00    +0.000 C 
ENDROOT
BRANCH   1   3
ATOM      2  N   UNL     1       9.350   9.481  19.314  0.00  0.00    +0.000 N 
ATOM      3  C   UNL     1       8.466   9.189  18.282  0.00  0.00    +0.000 C 
ATOM      4  O   UNL     1       8.010   9.980  17.460  0.00  0.00    +0.000 OA
ATOM      5  H   UNL     1       9.668   8.688  19.862  0.00  0.00    +0.000 HD
BRANCH   2   9
ATOM      6  C   UNL     1      10.458  13.379  20.532  0.00  0.00    +0.000 A 
ATOM      7  C   UNL     1      11.012  12.815  19.378  0.00  0.00    +0.000 A 
ATOM      8  C   UNL     1      10.664  11.530  18.964  0.00  0.00    +0.000 A 
ATOM      9  C   UNL     1       9.791  10.756  19.718  0.00  0.00    +0.000 A 
ATOM     10  C   UNL     1       9.311  11.279  20.925  0.00  0.00    +0.000 A 
ATOM     11  C   UNL     1       9.635  12.585  21.346  0.00  0.00    +0.000 A 
BRANCH   6  13
ATOM     12  C   UNL     1      10.049  15.664  20.085  0.00  0.00    +0.000 C 
ATOM     13  O   UNL     1      10.720  14.680  20.873  0.00  0.00    +0.000 OA
ENDBRANCH   6  13
BRANCH  11  14
ATOM     14  O   UNL     1       9.044  12.907  22.540  0.00  0.00    +0.000 OA
ATOM     15  C   UNL     1       8.024  12.064  23.055  0.00  0.00    +0.000 C 
ENDBRANCH  11  14
ENDBRANCH   2   9
ENDBRANCH   1   3
BRANCH   1  16
ATOM     16  O   UNL     1       7.637   7.348  16.903  0.00  0.00    +0.000 OA
BRANCH  16  17
ATOM     17  C   UNL     1       7.006   6.143  16.827  0.00  0.00    +0.000 C 
ATOM     18  O   UNL     1       7.303   5.229  16.066  0.00  0.00    +0.000 OA
BRANCH  17  19
ATOM     19  C   UNL     1       5.911   6.058  17.877  0.00  0.00    +0.000 C 
BRANCH  19  20
ATOM     20  N   UNL     1       4.944   5.031  17.549  0.00  0.00    +0.000 N 
ATOM     21  C   UNL     1       4.814   3.878  18.298  0.00  0.00    +0.000 C 
ATOM     22  O   UNL     1       5.455   3.675  19.325  0.00  0.00    +0.000 OA
ATOM     23  H   UNL     1       4.506   5.083  16.637  0.00  0.00    +0.000 HD
BRANCH  21  24
ATOM     24  C   UNL     1       3.780   2.903  17.717  0.00  0.00    +0.000 C 
ATOM     25  C   UNL     1       3.345   1.866  18.761  0.00  0.00    +0.000 C 
ATOM     26  C   UNL     1       2.404   2.480  19.792  0.00  0.00    +0.000 C 
ATOM     27  C   UNL     1       1.140   2.977  19.111  0.00  0.00    +0.000 C 
ATOM     28  C   UNL     1       1.456   4.011  18.035  0.00  0.00    +0.000 C 
ATOM     29  C   UNL     1       2.560   3.577  17.066  0.00  0.00    +0.000 C 
ENDBRANCH  21  24
ENDBRANCH  19  20
ENDBRANCH  17  19
ENDBRANCH  16  17
ENDBRANCH   1  16
TORSDOF 9
ENDMDL
MODEL 9
REMARK VINA RESULT:      -6.8      1.139      1.407
REMARK  Name = 
REMARK  11 active torsions:
REMARK  status: ('A' for Active; 'I' for Inactive)
REMARK    1  A    between atoms: C_1  and  O_2
REMARK    2  A    between atoms: O_2  and  C_3
REMARK    3  A    between atoms: C_6  and  N_7
REMARK    4  A    between atoms: C_8  and  C_10
REMARK    5  A    between atoms: C_10  and  O_11
REMARK    6  A    between atoms: O_11  and  C_12
REMARK    7  A    between atoms: C_12  and  C_14
REMARK    8  A    between atoms: C_14  and  N_15
REMARK    9  A    between atoms: C_16  and  C_18
REMARK   10  A    between atoms: C_25  and  O_26
REMARK   11  A    between atoms: O_26  and  C_27
REMARK                            x       y       z     vdW  Elec       q    Type
REMARK                         _______ _______ _______ _____ _____    ______ ____
ROOT
ATOM      1  C   UNL     1       3.166   3.580  20.854  0.00  0.00    +0.000 C 
ENDROOT
BRANCH   1   3
ATOM      2  N   UNL     1       2.930   5.835  19.976  0.00  0.00    +0.000 N 
ATOM      3  C   UNL     1       2.240   4.703  20.395  0.00  0.00    +0.000 C 
ATOM      4  O   UNL     1       1.023   4.539  20.382  0.00  0.00    +0.000 OA
ATOM      5  H   UNL     1       3.943   5.771  20.004  0.00  0.00    +0.000 HD
BRANCH   2   9
ATOM      6  C   UNL     1       1.070   9.478  18.893  0.00  0.00    +0.000 A 
ATOM      7  C   UNL     1       1.737   8.712  17.931  0.00  0.00    +0.000 A 
ATOM      8  C   UNL     1       2.361   7.512  18.270  0.00  0.00    +0.000 A 
ATOM      9  C   UNL     1       2.378   7.070  19.587  0.00  0.00    +0.000 A 
ATOM     10  C   UNL     1       1.797   7.883  20.568  0.00  0.00    +0.000 A 
ATOM     11  C   UNL     1       1.143   9.087  20.239  0.00  0.00    +0.000 A 
BRANCH   6  13
ATOM     12  C   UNL     1      -1.021  10.390  18.273  0.00  0.00    +0.000 C 
ATOM     13  O   UNL     1       0.367  10.598  18.534  0.00  0.00    +0.000 OA
ENDBRANCH   6  13
BRANCH  11  14
ATOM     14  O   UNL     1       0.626   9.716  21.342  0.00  0.00    +0.000 OA
ATOM     15  C   UNL     1      -0.284   9.011  22.174  0.00  0.00    +0.000 C 
ENDBRANCH  11  14
ENDBRANCH   2   9
ENDBRANCH   1   3
BRANCH   1  16
ATOM     16  O   UNL     1       4.101   3.220  19.835  0.00  0.00    +0.000 OA
BRANCH  16  17
ATOM     17  C   UNL     1       3.589   2.488  18.806  0.00  0.00    +0.000 C 
ATOM     18  O   UNL     1       2.986   1.427  18.915  0.00  0.00    +0.000 OA
BRANCH  17  19
ATOM     19  C   UNL     1       3.811   3.213  17.488  0.00  0.00    +0.000 C 
BRANCH  19  20
ATOM     20  N   UNL     1       5.153   3.748  17.400  0.00  0.00    +0.000 N 
ATOM     21  C   UNL     1       5.666   4.257  16.223  0.00  0.00    +0.000 C 
ATOM     22  O   UNL     1       5.003   4.353  15.195  0.00  0.00    +0.000 OA
ATOM     23  H   UNL     1       5.780   3.553  18.172  0.00  0.00    +0.000 HD
BRANCH  21  24
ATOM     24  C   UNL     1       7.132   4.696  16.352  0.00  0.00    +0.000 C 
ATOM     25  C   UNL     1       7.306   6.171  15.965  0.00  0.00    +0.000 C 
ATOM     26  C   UNL     1       6.778   7.096  17.057  0.00  0.00    +0.000 C 
ATOM     27  C   UNL     1       7.562   6.882  18.341  0.00  0.00    +0.000 C 
ATOM     28  C   UNL     1       7.470   5.435  18.816  0.00  0.00    +0.000 C 
ATOM     29  C   UNL     1       7.769   4.406  17.721  0.00  0.00    +0.000 C 
ENDBRANCH  21  24
ENDBRANCH  19  20
ENDBRANCH  17  19
ENDBRANCH  16  17
ENDBRANCH   1  16
TORSDOF 9
ENDMDL
