MODEL 1
REMARK VINA RESULT:      -7.9      0.000      0.000
REMARK  Name = 
REMARK  2 active torsions:
REMARK  status: ('A' for Active; 'I' for Inactive)
REMARK    1  A    between atoms: C_10  and  C_12
REMARK    2  A    between atoms: C_14  and  C_15
REMARK                            x       y       z     vdW  Elec       q    Type
REMARK                         _______ _______ _______ _____ _____    ______ ____
ROOT
ATOM      1  O   UNL     1       7.380   4.525  12.226  0.00  0.00    +0.000 OA
ATOM      2  C   UNL     1       7.100   4.712  13.392  0.00  0.00    +0.000 C 
ATOM      3  N   UNL     1       7.856   5.368  14.301  0.00  0.00    +0.000 N 
ATOM      4  C   UNL     1       7.160   5.548  15.459  0.00  0.00    +0.000 C 
ATOM      5  O   UNL     1       7.550   6.227  16.396  0.00  0.00    +0.000 OA
ATOM      6  C   UNL     1       5.837   4.755  15.382  0.00  0.00    +0.000 C 
ATOM      7  C   UNL     1       4.616   5.646  15.610  0.00  0.00    +0.000 C 
ATOM      8  C   UNL     1       4.447   6.021  17.082  0.00  0.00    +0.000 C 
ATOM      9  N   UNL     1       4.460   4.820  17.917  0.00  0.00    +0.000 N 
ATOM     10  C   UNL     1       3.524   4.469  18.895  0.00  0.00    +0.000 C 
ATOM     11  O   UNL     1       3.642   3.455  19.577  0.00  0.00    +0.000 OA
ATOM     12  C   UNL     1       5.663   3.999  17.787  0.00  0.00    +0.000 C 
ATOM     13  C   UNL     1       5.868   3.561  16.338  0.00  0.00    +0.000 C 
ATOM     14  N   UNL     1       5.930   4.327  13.998  0.00  0.00    +0.000 N 
ATOM     15  H   UNL     1       8.731   5.807  14.089  0.00  0.00    +0.000 HD
ATOM     16  H   UNL     1       5.205   3.851  13.470  0.00  0.00    +0.000 HD
ENDROOT
BRANCH  10  17
ATOM     17  C   UNL     1       2.355   5.365  19.146  0.00  0.00    +0.000 C 
ATOM     18  C   UNL     1       1.741   5.505  20.517  0.00  0.00    +0.000 C 
ATOM     19  C   UNL     1       2.598   6.621  19.977  0.00  0.00    +0.000 C 
BRANCH  19  20
ATOM     20  C   UNL     1       1.963   7.923  19.559  0.00  0.00    +0.000 A 
ATOM     21  C   UNL     1       2.155   8.445  18.270  0.00  0.00    +0.000 A 
ATOM     22  C   UNL     1       1.623   9.682  17.901  0.00  0.00    +0.000 A 
ATOM     23  C   UNL     1       0.875  10.418  18.816  0.00  0.00    +0.000 A 
ATOM     24  C   UNL     1       0.630   9.900  20.084  0.00  0.00    +0.000 A 
ATOM     25  C   UNL     1       1.160   8.660  20.444  0.00  0.00    +0.000 A 
ENDBRANCH  19  20
ENDBRANCH  10  17
TORSDOF 2
ENDMDL
MODEL 2
REMARK VINA RESULT:      -7.8      0.279      1.038
REMARK  Name = 
REMARK  2 active torsions:
REMARK  status: ('A' for Active; 'I' for Inactive)
REMARK    1  A    between atoms: C_10  and  C_12
REMARK    2  A    between atoms: C_14  and  C_15
REMARK                            x       y       z     vdW  Elec       q    Type
REMARK                         _______ _______ _______ _____ _____    ______ ____
ROOT
ATOM      1  O   UNL     1       7.422   4.583  12.431  0.00  0.00    +0.000 OA
ATOM      2  C   UNL     1       7.128   4.787  13.590  0.00  0.00    +0.000 C 
ATOM      3  N   UNL     1       7.852   5.494  14.487  0.00  0.00    +0.000 N 
ATOM      4  C   UNL     1       7.143   5.676  15.636  0.00  0.00    +0.000 C 
ATOM      5  O   UNL     1       7.501   6.392  16.558  0.00  0.00    +0.000 OA
ATOM      6  C   UNL     1       5.851   4.832  15.571  0.00  0.00    +0.000 C 
ATOM      7  C   UNL     1       4.596   5.681  15.770  0.00  0.00    +0.000 C 
ATOM      8  C   UNL     1       4.403   6.086  17.232  0.00  0.00    +0.000 C 
ATOM      9  N   UNL     1       4.456   4.907  18.096  0.00  0.00    +0.000 N 
ATOM     10  C   UNL     1       3.528   4.545  19.077  0.00  0.00    +0.000 C 
ATOM     11  O   UNL     1       3.678   3.554  19.785  0.00  0.00    +0.000 OA
ATOM     12  C   UNL     1       5.689   4.130  17.993  0.00  0.00    +0.000 C 
ATOM     13  C   UNL     1       5.920   3.663  16.557  0.00  0.00    +0.000 C 
ATOM     14  N   UNL     1       5.969   4.374  14.199  0.00  0.00    +0.000 N 
ATOM     15  H   UNL     1       8.712   5.959  14.269  0.00  0.00    +0.000 HD
ATOM     16  H   UNL     1       5.266   3.858  13.679  0.00  0.00    +0.000 HD
ENDROOT
BRANCH  10  17
ATOM     17  C   UNL     1       2.323   5.403  19.299  0.00  0.00    +0.000 C 
ATOM     18  C   UNL     1       1.597   5.425  20.622  0.00  0.00    +0.000 C 
ATOM     19  C   UNL     1       2.473   6.592  20.242  0.00  0.00    +0.000 C 
BRANCH  19  20
ATOM     20  C   UNL     1       1.848   7.914  19.876  0.00  0.00    +0.000 A 
ATOM     21  C   UNL     1       1.161   8.683  20.829  0.00  0.00    +0.000 A 
ATOM     22  C   UNL     1       0.524   9.876  20.479  0.00  0.00    +0.000 A 
ATOM     23  C   UNL     1       0.575  10.330  19.164  0.00  0.00    +0.000 A 
ATOM     24  C   UNL     1       1.292   9.611  18.211  0.00  0.00    +0.000 A 
ATOM     25  C   UNL     1       1.929   8.423  18.570  0.00  0.00    +0.000 A 
ENDBRANCH  19  20
ENDBRANCH  10  17
TORSDOF 2
ENDMDL
MODEL 3
REMARK VINA RESULT:      -7.7      1.276      1.683
REMARK  Name = 
REMARK  2 active torsions:
REMARK  status: ('A' for Active; 'I' for Inactive)
REMARK    1  A    between atoms: C_10  and  C_12
REMARK    2  A    between atoms: C_14  and  C_15
REMARK                            x       y       z     vdW  Elec       q    Type
REMARK                         _______ _______ _______ _____ _____    ______ ____
ROOT
ATOM      1  O   UNL     1       7.794   5.440  13.759  0.00  0.00    +0.000 OA
ATOM      2  C   UNL     1       7.224   5.115  14.780  0.00  0.00    +0.000 C 
ATOM      3  N   UNL     1       7.811   4.693  15.924  0.00  0.00    +0.000 N 
ATOM      4  C   UNL     1       6.889   4.587  16.922  0.00  0.00    +0.000 C 
ATOM      5  O   UNL     1       7.165   4.360  18.089  0.00  0.00    +0.000 OA
ATOM      6  C   UNL     1       5.477   4.789  16.329  0.00  0.00    +0.000 C 
ATOM      7  C   UNL     1       4.716   5.919  17.022  0.00  0.00    +0.000 C 
ATOM      8  C   UNL     1       4.210   5.506  18.404  0.00  0.00    +0.000 C 
ATOM      9  N   UNL     1       3.452   4.258  18.314  0.00  0.00    +0.000 N 
ATOM     10  C   UNL     1       2.178   4.012  18.835  0.00  0.00    +0.000 C 
ATOM     11  O   UNL     1       1.636   2.914  18.746  0.00  0.00    +0.000 OA
ATOM     12  C   UNL     1       4.192   3.135  17.742  0.00  0.00    +0.000 C 
ATOM     13  C   UNL     1       4.695   3.474  16.340  0.00  0.00    +0.000 C 
ATOM     14  N   UNL     1       5.867   5.162  14.981  0.00  0.00    +0.000 N 
ATOM     15  H   UNL     1       8.802   4.637  16.056  0.00  0.00    +0.000 HD
ATOM     16  H   UNL     1       5.246   5.493  14.250  0.00  0.00    +0.000 HD
ENDROOT
BRANCH  10  17
ATOM     17  C   UNL     1       1.455   5.107  19.551  0.00  0.00    +0.000 C 
ATOM     18  C   UNL     1       1.599   5.314  21.039  0.00  0.00    +0.000 C 
ATOM     19  C   UNL     1       2.290   6.262  20.093  0.00  0.00    +0.000 C 
BRANCH  19  20
ATOM     20  C   UNL     1       1.788   7.676  19.945  0.00  0.00    +0.000 A 
ATOM     21  C   UNL     1       1.152   8.337  21.008  0.00  0.00    +0.000 A 
ATOM     22  C   UNL     1       0.627   9.622  20.854  0.00  0.00    +0.000 A 
ATOM     23  C   UNL     1       0.742  10.278  19.631  0.00  0.00    +0.000 A 
ATOM     24  C   UNL     1       1.411   9.663  18.577  0.00  0.00    +0.000 A 
ATOM     25  C   UNL     1       1.938   8.381  18.739  0.00  0.00    +0.000 A 
ENDBRANCH  19  20
ENDBRANCH  10  17
TORSDOF 2
ENDMDL
MODEL 4
REMARK VINA RESULT:      -7.6      1.250      1.314
REMARK  Name = 
REMARK  2 active torsions:
REMARK  status: ('A' for Active; 'I' for Inactive)
REMARK    1  A    between atoms: C_10  and  C_12
REMARK    2  A    between atoms: C_14  and  C_15
REMARK                            x       y       z     vdW  Elec       q    Type
REMARK                         _______ _______ _______ _____ _____    ______ ____
ROOT
ATOM      1  O   UNL     1       7.768   5.460  13.685  0.00  0.00    +0.000 OA
ATOM      2  C   UNL     1       7.207   5.136  14.712  0.00  0.00    +0.000 C 
ATOM      3  N   UNL     1       7.804   4.716  15.850  0.00  0.00    +0.000 N 
ATOM      4  C   UNL     1       6.892   4.611  16.856  0.00  0.00    +0.000 C 
ATOM      5  O   UNL     1       7.178   4.385  18.022  0.00  0.00    +0.000 OA
ATOM      6  C   UNL     1       5.475   4.811  16.276  0.00  0.00    +0.000 C 
ATOM      7  C   UNL     1       4.719   5.942  16.975  0.00  0.00    +0.000 C 
ATOM      8  C   UNL     1       4.225   5.530  18.362  0.00  0.00    +0.000 C 
ATOM      9  N   UNL     1       3.468   4.281  18.281  0.00  0.00    +0.000 N 
ATOM     10  C   UNL     1       2.198   4.035  18.813  0.00  0.00    +0.000 C 
ATOM     11  O   UNL     1       1.657   2.937  18.730  0.00  0.00    +0.000 OA
ATOM     12  C   UNL     1       4.203   3.158  17.703  0.00  0.00    +0.000 C 
ATOM     13  C   UNL     1       4.693   3.495  16.296  0.00  0.00    +0.000 C 
ATOM     14  N   UNL     1       5.852   5.182  14.925  0.00  0.00    +0.000 N 
ATOM     15  H   UNL     1       8.797   4.661  15.973  0.00  0.00    +0.000 HD
ATOM     16  H   UNL     1       5.225   5.512  14.198  0.00  0.00    +0.000 HD
ENDROOT
BRANCH  10  17
ATOM     17  C   UNL     1       1.481   5.131  19.534  0.00  0.00    +0.000 C 
ATOM     18  C   UNL     1       1.672   5.367  21.013  0.00  0.00    +0.000 C 
ATOM     19  C   UNL     1       2.315   6.310  20.027  0.00  0.00    +0.000 C 
BRANCH  19  20
ATOM     20  C   UNL     1       1.783   7.712  19.871  0.00  0.00    +0.000 A 
ATOM     21  C   UNL     1       1.920   8.411  18.661  0.00  0.00    +0.000 A 
ATOM     22  C   UNL     1       1.488   9.733  18.533  0.00  0.00    +0.000 A 
ATOM     23  C   UNL     1       0.896  10.378  19.615  0.00  0.00    +0.000 A 
ATOM     24  C   UNL     1       0.705   9.691  20.810  0.00  0.00    +0.000 A 
ATOM     25  C   UNL     1       1.134   8.369  20.929  0.00  0.00    +0.000 A 
ENDBRANCH  19  20
ENDBRANCH  10  17
TORSDOF 2
ENDMDL
MODEL 5
REMARK VINA RESULT:      -7.5      3.220      7.649
REMARK  Name = 
REMARK  2 active torsions:
REMARK  status: ('A' for Active; 'I' for Inactive)
REMARK    1  A    between atoms: C_10  and  C_12
REMARK    2  A    between atoms: C_14  and  C_15
REMARK                            x       y       z     vdW  Elec       q    Type
REMARK                         _______ _______ _______ _____ _____    ______ ____
ROOT
ATOM      1  O   UNL     1       0.736   4.118  20.845  0.00  0.00    +0.000 OA
ATOM      2  C   UNL     1       1.763   3.958  20.217  0.00  0.00    +0.000 C 
ATOM      3  N   UNL     1       2.552   2.860  20.242  0.00  0.00    +0.000 N 
ATOM      4  C   UNL     1       3.518   2.945  19.285  0.00  0.00    +0.000 C 
ATOM      5  O   UNL     1       4.280   2.036  18.996  0.00  0.00    +0.000 OA
ATOM      6  C   UNL     1       3.486   4.357  18.659  0.00  0.00    +0.000 C 
ATOM      7  C   UNL     1       3.306   4.312  17.142  0.00  0.00    +0.000 C 
ATOM      8  C   UNL     1       4.588   3.891  16.424  0.00  0.00    +0.000 C 
ATOM      9  N   UNL     1       5.709   4.725  16.857  0.00  0.00    +0.000 N 
ATOM     10  C   UNL     1       6.616   5.402  16.035  0.00  0.00    +0.000 C 
ATOM     11  O   UNL     1       7.555   6.047  16.491  0.00  0.00    +0.000 OA
ATOM     12  C   UNL     1       5.962   4.709  18.297  0.00  0.00    +0.000 C 
ATOM     13  C   UNL     1       4.724   5.158  19.070  0.00  0.00    +0.000 C 
ATOM     14  N   UNL     1       2.293   4.852  19.321  0.00  0.00    +0.000 N 
ATOM     15  H   UNL     1       2.345   2.034  20.770  0.00  0.00    +0.000 HD
ATOM     16  H   UNL     1       1.823   5.731  19.126  0.00  0.00    +0.000 HD
ENDROOT
BRANCH  10  17
ATOM     17  C   UNL     1       6.462   5.320  14.551  0.00  0.00    +0.000 C 
ATOM     18  C   UNL     1       7.653   5.370  13.625  0.00  0.00    +0.000 C 
ATOM     19  C   UNL     1       6.960   4.052  13.863  0.00  0.00    +0.000 C 
BRANCH  19  20
ATOM     20  C   UNL     1       6.134   3.428  12.767  0.00  0.00    +0.000 A 
ATOM     21  C   UNL     1       4.867   3.934  12.433  0.00  0.00    +0.000 A 
ATOM     22  C   UNL     1       4.072   3.318  11.465  0.00  0.00    +0.000 A 
ATOM     23  C   UNL     1       4.537   2.187  10.799  0.00  0.00    +0.000 A 
ATOM     24  C   UNL     1       5.809   1.696  11.077  0.00  0.00    +0.000 A 
ATOM     25  C   UNL     1       6.601   2.319  12.042  0.00  0.00    +0.000 A 
ENDBRANCH  19  20
ENDBRANCH  10  17
TORSDOF 2
ENDMDL
MODEL 6
REMARK VINA RESULT:      -7.3      3.444      5.198
REMARK  Name = 
REMARK  2 active torsions:
REMARK  status: ('A' for Active; 'I' for Inactive)
REMARK    1  A    between atoms: C_10  and  C_12
REMARK    2  A    between atoms: C_14  and  C_15
REMARK                            x       y       z     vdW  Elec       q    Type
REMARK                         _______ _______ _______ _____ _____    ______ ____
ROOT
ATOM      1  O   UNL     1       5.206   1.435  20.404  0.00  0.00    +0.000 OA
ATOM      2  C   UNL     1       4.439   2.276  19.981  0.00  0.00    +0.000 C 
ATOM      3  N   UNL     1       3.145   2.079  19.641  0.00  0.00    +0.000 N 
ATOM      4  C   UNL     1       2.535   3.269  19.380  0.00  0.00    +0.000 C 
ATOM      5  O   UNL     1       1.337   3.397  19.183  0.00  0.00    +0.000 OA
ATOM      6  C   UNL     1       3.597   4.390  19.367  0.00  0.00    +0.000 C 
ATOM      7  C   UNL     1       3.269   5.509  20.355  0.00  0.00    +0.000 C 
ATOM      8  C   UNL     1       2.140   6.407  19.850  0.00  0.00    +0.000 C 
ATOM      9  N   UNL     1       2.437   6.885  18.500  0.00  0.00    +0.000 N 
ATOM     10  C   UNL     1       2.391   8.209  18.052  0.00  0.00    +0.000 C 
ATOM     11  O   UNL     1       2.619   8.512  16.884  0.00  0.00    +0.000 OA
ATOM     12  C   UNL     1       2.661   5.830  17.513  0.00  0.00    +0.000 C 
ATOM     13  C   UNL     1       3.807   4.917  17.945  0.00  0.00    +0.000 C 
ATOM     14  N   UNL     1       4.735   3.605  19.813  0.00  0.00    +0.000 N 
ATOM     15  H   UNL     1       2.668   1.204  19.738  0.00  0.00    +0.000 HD
ATOM     16  H   UNL     1       5.652   3.967  20.052  0.00  0.00    +0.000 HD
ENDROOT
BRANCH  10  17
ATOM     17  C   UNL     1       2.027   9.296  19.011  0.00  0.00    +0.000 C 
ATOM     18  C   UNL     1       1.466  10.616  18.540  0.00  0.00    +0.000 C 
ATOM     19  C   UNL     1       0.545   9.611  19.184  0.00  0.00    +0.000 C 
BRANCH  19  20
ATOM     20  C   UNL     1      -0.004   9.870  20.564  0.00  0.00    +0.000 A 
ATOM     21  C   UNL     1      -0.422  11.153  20.952  0.00  0.00    +0.000 A 
ATOM     22  C   UNL     1      -0.869  11.410  22.250  0.00  0.00    +0.000 A 
ATOM     23  C   UNL     1      -0.918  10.380  23.185  0.00  0.00    +0.000 A 
ATOM     24  C   UNL     1      -0.554   9.089  22.811  0.00  0.00    +0.000 A 
ATOM     25  C   UNL     1      -0.114   8.838  21.511  0.00  0.00    +0.000 A 
ENDBRANCH  19  20
ENDBRANCH  10  17
TORSDOF 2
ENDMDL
MODEL 7
REMARK VINA RESULT:      -7.3      1.576      2.472
REMARK  Name = 
REMARK  2 active torsions:
REMARK  status: ('A' for Active; 'I' for Inactive)
REMARK    1  A    between atoms: C_10  and  C_12
REMARK    2  A    between atoms: C_14  and  C_15
REMARK                            x       y       z     vdW  Elec       q    Type
REMARK                         _______ _______ _______ _____ _____    ______ ____
ROOT
ATOM      1  O   UNL     1       6.739   4.063  13.195  0.00  0.00    +0.000 OA
ATOM      2  C   UNL     1       6.454   4.359  14.337  0.00  0.00    +0.000 C 
ATOM      3  N   UNL     1       7.285   4.327  15.404  0.00  0.00    +0.000 N 
ATOM      4  C   UNL     1       6.689   4.894  16.490  0.00  0.00    +0.000 C 
ATOM      5  O   UNL     1       7.260   5.120  17.545  0.00  0.00    +0.000 OA
ATOM      6  C   UNL     1       5.207   5.179  16.162  0.00  0.00    +0.000 C 
ATOM      7  C   UNL     1       4.842   6.649  16.368  0.00  0.00    +0.000 C 
ATOM      8  C   UNL     1       4.710   7.005  17.849  0.00  0.00    +0.000 C 
ATOM      9  N   UNL     1       3.797   6.076  18.514  0.00  0.00    +0.000 N 
ATOM     10  C   UNL     1       2.709   6.409  19.327  0.00  0.00    +0.000 C 
ATOM     11  O   UNL     1       2.021   5.555  19.879  0.00  0.00    +0.000 OA
ATOM     12  C   UNL     1       4.177   4.668  18.413  0.00  0.00    +0.000 C 
ATOM     13  C   UNL     1       4.291   4.240  16.951  0.00  0.00    +0.000 C 
ATOM     14  N   UNL     1       5.234   4.831  14.753  0.00  0.00    +0.000 N 
ATOM     15  H   UNL     1       8.255   4.081  15.349  0.00  0.00    +0.000 HD
ATOM     16  H   UNL     1       4.478   4.968  14.090  0.00  0.00    +0.000 HD
ENDROOT
BRANCH  10  17
ATOM     17  C   UNL     1       2.382   7.848  19.561  0.00  0.00    +0.000 C 
ATOM     18  C   UNL     1       1.782   8.713  18.479  0.00  0.00    +0.000 C 
ATOM     19  C   UNL     1       0.906   8.234  19.610  0.00  0.00    +0.000 C 
BRANCH  19  20
ATOM     20  C   UNL     1       0.427   9.209  20.655  0.00  0.00    +0.000 A 
ATOM     21  C   UNL     1       0.210   8.804  21.982  0.00  0.00    +0.000 A 
ATOM     22  C   UNL     1      -0.297   9.688  22.937  0.00  0.00    +0.000 A 
ATOM     23  C   UNL     1      -0.584  11.003  22.584  0.00  0.00    +0.000 A 
ATOM     24  C   UNL     1      -0.332  11.442  21.287  0.00  0.00    +0.000 A 
ATOM     25  C   UNL     1       0.179  10.555  20.339  0.00  0.00    +0.000 A 
ENDBRANCH  19  20
ENDBRANCH  10  17
TORSDOF 2
ENDMDL
MODEL 8
REMARK VINA RESULT:      -7.2      5.313      9.147
REMARK  Name = 
REMARK  2 active torsions:
REMARK  status: ('A' for Active; 'I' for Inactive)
REMARK    1  A    between atoms: C_10  and  C_12
REMARK    2  A    between atoms: C_14  and  C_15
REMARK                            x       y       z     vdW  Elec       q    Type
REMARK                         _______ _______ _______ _____ _____    ______ ____
ROOT
ATOM      1  O   UNL     1      -4.431  13.463  20.331  0.00  0.00    +0.000 OA
ATOM      2  C   UNL     1      -3.338  12.936  20.358  0.00  0.00    +0.000 C 
ATOM      3  N   UNL     1      -2.569  12.745  21.453  0.00  0.00    +0.000 N 
ATOM      4  C   UNL     1      -1.494  11.965  21.151  0.00  0.00    +0.000 C 
ATOM      5  O   UNL     1      -0.712  11.523  21.979  0.00  0.00    +0.000 OA
ATOM      6  C   UNL     1      -1.436  11.754  19.622  0.00  0.00    +0.000 C 
ATOM      7  C   UNL     1      -1.432  10.274  19.242  0.00  0.00    +0.000 C 
ATOM      8  C   UNL     1      -0.077   9.617  19.506  0.00  0.00    +0.000 C 
ATOM      9  N   UNL     1       0.992  10.388  18.872  0.00  0.00    +0.000 N 
ATOM     10  C   UNL     1       1.998   9.893  18.035  0.00  0.00    +0.000 C 
ATOM     11  O   UNL     1       2.882  10.613  17.580  0.00  0.00    +0.000 OA
ATOM     12  C   UNL     1       1.070  11.785  19.292  0.00  0.00    +0.000 C 
ATOM     13  C   UNL     1      -0.248  12.508  19.019  0.00  0.00    +0.000 C 
ATOM     14  N   UNL     1      -2.695  12.388  19.276  0.00  0.00    +0.000 N 
ATOM     15  H   UNL     1      -2.846  12.997  22.382  0.00  0.00    +0.000 HD
ATOM     16  H   UNL     1      -3.129  12.393  18.358  0.00  0.00    +0.000 HD
ENDROOT
BRANCH  10  17
ATOM     17  C   UNL     1       2.023   8.436  17.702  0.00  0.00    +0.000 C 
ATOM     18  C   UNL     1       3.279   7.754  17.216  0.00  0.00    +0.000 C 
ATOM     19  C   UNL     1       2.812   7.517  18.630  0.00  0.00    +0.000 C 
BRANCH  19  20
ATOM     20  C   UNL     1       2.234   6.180  19.017  0.00  0.00    +0.000 A 
ATOM     21  C   UNL     1       1.900   5.890  20.350  0.00  0.00    +0.000 A 
ATOM     22  C   UNL     1       1.427   4.630  20.722  0.00  0.00    +0.000 A 
ATOM     23  C   UNL     1       1.266   3.636  19.761  0.00  0.00    +0.000 A 
ATOM     24  C   UNL     1       1.544   3.913  18.426  0.00  0.00    +0.000 A 
ATOM     25  C   UNL     1       2.011   5.176  18.060  0.00  0.00    +0.000 A 
ENDBRANCH  19  20
ENDBRANCH  10  17
TORSDOF 2
ENDMDL
MODEL 9
REMARK VINA RESULT:      -7.2      2.475      3.859
REMARK  Name = 
REMARK  2 active torsions:
REMARK  status: ('A' for Active; 'I' for Inactive)
REMARK    1  A    between atoms: C_10  and  C_12
REMARK    2  A    between atoms: C_14  and  C_15
REMARK                            x       y       z     vdW  Elec       q    Type
REMARK                         _______ _______ _______ _____ _____    ______ ____
ROOT
ATOM      1  O   UNL     1       8.557   4.080  17.892  0.00  0.00    +0.000 OA
ATOM      2  C   UNL     1       7.428   4.478  17.691  0.00  0.00    +0.000 C 
ATOM      3  N   UNL     1       6.506   3.899  16.889  0.00  0.00    +0.000 N 
ATOM      4  C   UNL     1       5.295   4.505  17.038  0.00  0.00    +0.000 C 
ATOM      5  O   UNL     1       4.258   4.099  16.538  0.00  0.00    +0.000 OA
ATOM      6  C   UNL     1       5.465   5.765  17.915  0.00  0.00    +0.000 C 
ATOM      7  C   UNL     1       4.553   5.742  19.142  0.00  0.00    +0.000 C 
ATOM      8  C   UNL     1       3.098   6.042  18.780  0.00  0.00    +0.000 C 
ATOM      9  N   UNL     1       3.013   7.282  18.008  0.00  0.00    +0.000 N 
ATOM     10  C   UNL     1       2.166   8.367  18.258  0.00  0.00    +0.000 C 
ATOM     11  O   UNL     1       2.135   9.352  17.527  0.00  0.00    +0.000 OA
ATOM     12  C   UNL     1       3.803   7.292  16.779  0.00  0.00    +0.000 C 
ATOM     13  C   UNL     1       5.278   7.033  17.079  0.00  0.00    +0.000 C 
ATOM     14  N   UNL     1       6.856   5.576  18.285  0.00  0.00    +0.000 N 
ATOM     15  H   UNL     1       6.657   3.042  16.392  0.00  0.00    +0.000 HD
ATOM     16  H   UNL     1       7.375   6.130  18.959  0.00  0.00    +0.000 HD
ENDROOT
BRANCH  10  17
ATOM     17  C   UNL     1       1.244   8.322  19.433  0.00  0.00    +0.000 C 
ATOM     18  C   UNL     1       1.666   7.721  20.752  0.00  0.00    +0.000 C 
ATOM     19  C   UNL     1       1.577   9.220  20.620  0.00  0.00    +0.000 C 
BRANCH  19  20
ATOM     20  C   UNL     1       0.470   9.971  21.317  0.00  0.00    +0.000 A 
ATOM     21  C   UNL     1      -0.157  11.071  20.708  0.00  0.00    +0.000 A 
ATOM     22  C   UNL     1      -1.136  11.809  21.377  0.00  0.00    +0.000 A 
ATOM     23  C   UNL     1      -1.517  11.452  22.667  0.00  0.00    +0.000 A 
ATOM     24  C   UNL     1      -0.945  10.336  23.273  0.00  0.00    +0.000 A 
ATOM     25  C   UNL     1       0.029   9.600  22.597  0.00  0.00    +0.000 A 
ENDBRANCH  19  20
ENDBRANCH  10  17
TORSDOF 2
ENDMDL
