MODEL 1
REMARK VINA RESULT:      -8.6      0.000      0.000
REMARK  Name = 
REMARK  7 active torsions:
REMARK  status: ('A' for Active; 'I' for Inactive)
REMARK    1  A    between atoms: N_1  and  S_2
REMARK    2  A    between atoms: S_2  and  C_5
REMARK    3  A    between atoms: C_10  and  N_11
REMARK    4  A    between atoms: N_11  and  S_12
REMARK    5  A    between atoms: S_12  and  C_15
REMARK    6  A    between atoms: C_16  and  C_17
REMARK    7  A    between atoms: C_20  and  C_21
REMARK                            x       y       z     vdW  Elec       q    Type
REMARK                         _______ _______ _______ _____ _____    ______ ____
ROOT
ATOM      1  S   UNL     1       3.579   3.666  18.075  0.00  0.00    +0.000 S 
ATOM      2  O   UNL     1       2.854   2.899  17.088  0.00  0.00    +0.000 OA
ATOM      3  O   UNL     1       3.441   3.335  19.485  0.00  0.00    +0.000 OA
ENDROOT
BRANCH   1   4
ATOM      4  N   UNL     1       5.223   3.415  17.687  0.00  0.00    +0.000 N 
ATOM      5  H   UNL     1       5.504   2.545  18.168  0.00  0.00    +0.000 HD
BRANCH   4  11
ATOM      6  C   UNL     1       6.742   5.289  16.933  0.00  0.00    +0.000 A 
ATOM      7  C   UNL     1       7.588   6.358  17.278  0.00  0.00    +0.000 A 
ATOM      8  C   UNL     1       7.886   6.611  18.613  0.00  0.00    +0.000 A 
ATOM      9  C   UNL     1       7.336   5.804  19.603  0.00  0.00    +0.000 A 
ATOM     10  C   UNL     1       6.460   4.768  19.265  0.00  0.00    +0.000 A 
ATOM     11  C   UNL     1       6.132   4.510  17.930  0.00  0.00    +0.000 A 
BRANCH   6  12
ATOM     12  S   UNL     1       6.489   5.025  15.205  0.00  0.00    +0.000 S 
ATOM     13  O   UNL     1       5.947   3.700  15.002  0.00  0.00    +0.000 OA
ATOM     14  O   UNL     1       7.676   5.473  14.511  0.00  0.00    +0.000 OA
BRANCH  12  15
ATOM     15  N   UNL     1       5.277   6.137  14.843  0.00  0.00    +0.000 NA
ATOM     16  H   UNL     1       4.421   5.871  15.333  0.00  0.00    +0.000 HD
ATOM     17  H   UNL     1       5.067   6.148  13.835  0.00  0.00    +0.000 HD
ENDBRANCH  12  15
ENDBRANCH   6  12
ENDBRANCH   4  11
ENDBRANCH   1   4
BRANCH   1  18
ATOM     18  C   UNL     1       3.189   5.356  17.825  0.00  0.00    +0.000 C 
ATOM     19  C   UNL     1       2.699   6.034  18.883  0.00  0.00    +0.000 C 
BRANCH  19  20
ATOM     20  C   UNL     1       2.214   7.432  18.965  0.00  0.00    +0.000 A 
ATOM     21  C   UNL     1       1.642   8.007  20.102  0.00  0.00    +0.000 A 
ATOM     22  C   UNL     1       1.233   9.355  20.098  0.00  0.00    +0.000 A 
ATOM     23  C   UNL     1       1.379  10.176  18.966  0.00  0.00    +0.000 A 
ATOM     24  C   UNL     1       1.945   9.597  17.826  0.00  0.00    +0.000 A 
ATOM     25  C   UNL     1       2.353   8.250  17.830  0.00  0.00    +0.000 A 
BRANCH  23  26
ATOM     26  C   UNL     1       0.968  11.584  19.010  0.00  0.00    +0.000 A 
ATOM     27  C   UNL     1      -0.232  12.206  19.307  0.00  0.00    +0.000 A 
ATOM     28  C   UNL     1      -0.016  13.604  19.231  0.00  0.00    +0.000 A 
ATOM     29  C   UNL     1      -0.804  14.746  19.449  0.00  0.00    +0.000 A 
ATOM     30  C   UNL     1      -0.232  16.008  19.247  0.00  0.00    +0.000 A 
ATOM     31  C   UNL     1       1.097  16.134  18.835  0.00  0.00    +0.000 A 
ATOM     32  C   UNL     1       1.904  15.006  18.628  0.00  0.00    +0.000 A 
ATOM     33  C   UNL     1       1.309  13.761  18.843  0.00  0.00    +0.000 A 
ATOM     34  O   UNL     1       1.910  12.538  18.715  0.00  0.00    +0.000 OA
ENDBRANCH  23  26
ENDBRANCH  19  20
ENDBRANCH   1  18
TORSDOF 7
ENDMDL
MODEL 2
REMARK VINA RESULT:      -8.5      1.528      1.910
REMARK  Name = 
REMARK  7 active torsions:
REMARK  status: ('A' for Active; 'I' for Inactive)
REMARK    1  A    between atoms: N_1  and  S_2
REMARK    2  A    between atoms: S_2  and  C_5
REMARK    3  A    between atoms: C_10  and  N_11
REMARK    4  A    between atoms: N_11  and  S_12
REMARK    5  A    between atoms: S_12  and  C_15
REMARK    6  A    between atoms: C_16  and  C_17
REMARK    7  A    between atoms: C_20  and  C_21
REMARK                            x       y       z     vdW  Elec       q    Type
REMARK                         _______ _______ _______ _____ _____    ______ ____
ROOT
ATOM      1  S   UNL     1       4.616   3.500  18.995  0.00  0.00    +0.000 S 
ATOM      2  O   UNL     1       3.582   2.980  18.131  0.00  0.00    +0.000 OA
ATOM      3  O   UNL     1       5.076   2.705  20.124  0.00  0.00    +0.000 OA
ENDROOT
BRANCH   1   4
ATOM      4  N   UNL     1       5.969   3.700  17.972  0.00  0.00    +0.000 N 
ATOM      5  H   UNL     1       6.607   2.914  18.179  0.00  0.00    +0.000 HD
BRANCH   4  11
ATOM      6  C   UNL     1       6.573   5.941  16.973  0.00  0.00    +0.000 A 
ATOM      7  C   UNL     1       7.229   7.178  17.112  0.00  0.00    +0.000 A 
ATOM      8  C   UNL     1       8.003   7.436  18.239  0.00  0.00    +0.000 A 
ATOM      9  C   UNL     1       8.117   6.466  19.229  0.00  0.00    +0.000 A 
ATOM     10  C   UNL     1       7.430   5.253  19.113  0.00  0.00    +0.000 A 
ATOM     11  C   UNL     1       6.631   4.983  17.998  0.00  0.00    +0.000 A 
BRANCH   6  12
ATOM     12  S   UNL     1       5.674   5.703  15.471  0.00  0.00    +0.000 S 
ATOM     13  O   UNL     1       5.078   6.958  15.072  0.00  0.00    +0.000 OA
ATOM     14  O   UNL     1       4.886   4.499  15.613  0.00  0.00    +0.000 OA
BRANCH  12  15
ATOM     15  N   UNL     1       6.899   5.343  14.371  0.00  0.00    +0.000 NA
ATOM     16  H   UNL     1       6.496   5.265  13.435  0.00  0.00    +0.000 HD
ATOM     17  H   UNL     1       7.348   4.443  14.591  0.00  0.00    +0.000 HD
ENDBRANCH  12  15
ENDBRANCH   6  12
ENDBRANCH   4  11
ENDBRANCH   1   4
BRANCH   1  18
ATOM     18  C   UNL     1       4.094   5.075  19.558  0.00  0.00    +0.000 C 
ATOM     19  C   UNL     1       3.028   5.624  18.941  0.00  0.00    +0.000 C 
BRANCH  19  20
ATOM     20  C   UNL     1       2.405   6.954  19.137  0.00  0.00    +0.000 A 
ATOM     21  C   UNL     1       2.279   7.926  18.142  0.00  0.00    +0.000 A 
ATOM     22  C   UNL     1       1.646   9.155  18.413  0.00  0.00    +0.000 A 
ATOM     23  C   UNL     1       1.117   9.459  19.680  0.00  0.00    +0.000 A 
ATOM     24  C   UNL     1       1.250   8.489  20.677  0.00  0.00    +0.000 A 
ATOM     25  C   UNL     1       1.883   7.261  20.407  0.00  0.00    +0.000 A 
BRANCH  23  26
ATOM     26  C   UNL     1       0.439  10.739  19.914  0.00  0.00    +0.000 A 
ATOM     27  C   UNL     1      -0.845  11.186  19.658  0.00  0.00    +0.000 A 
ATOM     28  C   UNL     1      -0.940  12.511  20.151  0.00  0.00    +0.000 A 
ATOM     29  C   UNL     1      -1.960  13.474  20.225  0.00  0.00    +0.000 A 
ATOM     30  C   UNL     1      -1.666  14.725  20.780  0.00  0.00    +0.000 A 
ATOM     31  C   UNL     1      -0.383  15.016  21.250  0.00  0.00    +0.000 A 
ATOM     32  C   UNL     1       0.644  14.062  21.199  0.00  0.00    +0.000 A 
ATOM     33  C   UNL     1       0.319  12.821  20.647  0.00  0.00    +0.000 A 
ATOM     34  O   UNL     1       1.157  11.746  20.512  0.00  0.00    +0.000 OA
ENDBRANCH  23  26
ENDBRANCH  19  20
ENDBRANCH   1  18
TORSDOF 7
ENDMDL
MODEL 3
REMARK VINA RESULT:      -8.4      1.322      2.066
REMARK  Name = 
REMARK  7 active torsions:
REMARK  status: ('A' for Active; 'I' for Inactive)
REMARK    1  A    between atoms: N_1  and  S_2
REMARK    2  A    between atoms: S_2  and  C_5
REMARK    3  A    between atoms: C_10  and  N_11
REMARK    4  A    between atoms: N_11  and  S_12
REMARK    5  A    between atoms: S_12  and  C_15
REMARK    6  A    between atoms: C_16  and  C_17
REMARK    7  A    between atoms: C_20  and  C_21
REMARK                            x       y       z     vdW  Elec       q    Type
REMARK                         _______ _______ _______ _____ _____    ______ ____
ROOT
ATOM      1  S   UNL     1       4.139   3.226  19.046  0.00  0.00    +0.000 S 
ATOM      2  O   UNL     1       3.040   2.541  18.407  0.00  0.00    +0.000 OA
ATOM      3  O   UNL     1       4.891   2.555  20.096  0.00  0.00    +0.000 OA
ENDROOT
BRANCH   1   4
ATOM      4  N   UNL     1       5.250   3.526  17.784  0.00  0.00    +0.000 N 
ATOM      5  H   UNL     1       5.732   2.630  17.605  0.00  0.00    +0.000 HD
BRANCH   4  11
ATOM      6  C   UNL     1       6.557   5.517  16.942  0.00  0.00    +0.000 A 
ATOM      7  C   UNL     1       7.427   6.586  17.224  0.00  0.00    +0.000 A 
ATOM      8  C   UNL     1       7.964   6.732  18.499  0.00  0.00    +0.000 A 
ATOM      9  C   UNL     1       7.628   5.821  19.493  0.00  0.00    +0.000 A 
ATOM     10  C   UNL     1       6.728   4.784  19.226  0.00  0.00    +0.000 A 
ATOM     11  C   UNL     1       6.162   4.631  17.957  0.00  0.00    +0.000 A 
BRANCH   6  12
ATOM     12  S   UNL     1       5.992   5.395  15.272  0.00  0.00    +0.000 S 
ATOM     13  O   UNL     1       5.201   6.563  14.953  0.00  0.00    +0.000 OA
ATOM     14  O   UNL     1       5.482   4.056  15.075  0.00  0.00    +0.000 OA
BRANCH  12  15
ATOM     15  N   UNL     1       7.427   5.492  14.397  0.00  0.00    +0.000 NA
ATOM     16  H   UNL     1       8.166   5.004  14.909  0.00  0.00    +0.000 HD
ATOM     17  H   UNL     1       7.728   6.469  14.276  0.00  0.00    +0.000 HD
ENDBRANCH  12  15
ENDBRANCH   6  12
ENDBRANCH   4  11
ENDBRANCH   1   4
BRANCH   1  18
ATOM     18  C   UNL     1       3.534   4.758  19.644  0.00  0.00    +0.000 C 
ATOM     19  C   UNL     1       2.921   5.564  18.753  0.00  0.00    +0.000 C 
BRANCH  19  20
ATOM     20  C   UNL     1       2.379   6.931  18.934  0.00  0.00    +0.000 A 
ATOM     21  C   UNL     1       2.293   7.891  17.923  0.00  0.00    +0.000 A 
ATOM     22  C   UNL     1       1.736   9.159  18.180  0.00  0.00    +0.000 A 
ATOM     23  C   UNL     1       1.247   9.517  19.449  0.00  0.00    +0.000 A 
ATOM     24  C   UNL     1       1.341   8.559  20.462  0.00  0.00    +0.000 A 
ATOM     25  C   UNL     1       1.897   7.291  20.205  0.00  0.00    +0.000 A 
BRANCH  23  26
ATOM     26  C   UNL     1       0.648  10.838  19.670  0.00  0.00    +0.000 A 
ATOM     27  C   UNL     1       1.125  12.127  19.513  0.00  0.00    +0.000 A 
ATOM     28  C   UNL     1       0.069  13.013  19.839  0.00  0.00    +0.000 A 
ATOM     29  C   UNL     1      -0.092  14.409  19.848  0.00  0.00    +0.000 A 
ATOM     30  C   UNL     1      -1.317  14.943  20.266  0.00  0.00    +0.000 A 
ATOM     31  C   UNL     1      -2.362  14.108  20.670  0.00  0.00    +0.000 A 
ATOM     32  C   UNL     1      -2.225  12.712  20.653  0.00  0.00    +0.000 A 
ATOM     33  C   UNL     1      -0.995  12.208  20.225  0.00  0.00    +0.000 A 
ATOM     34  O   UNL     1      -0.650  10.887  20.116  0.00  0.00    +0.000 OA
ENDBRANCH  23  26
ENDBRANCH  19  20
ENDBRANCH   1  18
TORSDOF 7
ENDMDL
MODEL 4
REMARK VINA RESULT:      -8.2      5.220      7.234
REMARK  Name = 
REMARK  7 active torsions:
REMARK  status: ('A' for Active; 'I' for Inactive)
REMARK    1  A    between atoms: N_1  and  S_2
REMARK    2  A    between atoms: S_2  and  C_5
REMARK    3  A    between atoms: C_10  and  N_11
REMARK    4  A    between atoms: N_11  and  S_12
REMARK    5  A    between atoms: S_12  and  C_15
REMARK    6  A    between atoms: C_16  and  C_17
REMARK    7  A    between atoms: C_20  and  C_21
REMARK                            x       y       z     vdW  Elec       q    Type
REMARK                         _______ _______ _______ _____ _____    ______ ____
ROOT
ATOM      1  S   UNL     1       6.785   5.815  16.875  0.00  0.00    +0.000 S 
ATOM      2  O   UNL     1       7.186   4.787  17.808  0.00  0.00    +0.000 OA
ATOM      3  O   UNL     1       7.442   5.905  15.580  0.00  0.00    +0.000 OA
ENDROOT
BRANCH   1   4
ATOM      4  N   UNL     1       5.141   5.482  16.553  0.00  0.00    +0.000 N 
ATOM      5  H   UNL     1       4.956   5.839  15.601  0.00  0.00    +0.000 HD
BRANCH   4  11
ATOM      6  C   UNL     1       3.565   5.128  18.495  0.00  0.00    +0.000 A 
ATOM      7  C   UNL     1       2.657   5.679  19.418  0.00  0.00    +0.000 A 
ATOM      8  C   UNL     1       2.299   7.020  19.331  0.00  0.00    +0.000 A 
ATOM      9  C   UNL     1       2.850   7.813  18.331  0.00  0.00    +0.000 A 
ATOM     10  C   UNL     1       3.786   7.278  17.439  0.00  0.00    +0.000 A 
ATOM     11  C   UNL     1       4.174   5.937  17.522  0.00  0.00    +0.000 A 
BRANCH   6  12
ATOM     12  S   UNL     1       3.892   3.400  18.664  0.00  0.00    +0.000 S 
ATOM     13  O   UNL     1       4.074   2.822  17.351  0.00  0.00    +0.000 OA
ATOM     14  O   UNL     1       2.938   2.859  19.606  0.00  0.00    +0.000 OA
BRANCH  12  15
ATOM     15  N   UNL     1       5.386   3.390  19.441  0.00  0.00    +0.000 NA
ATOM     16  H   UNL     1       5.789   2.453  19.382  0.00  0.00    +0.000 HD
ATOM     17  H   UNL     1       5.292   3.624  20.440  0.00  0.00    +0.000 HD
ENDBRANCH  12  15
ENDBRANCH   6  12
ENDBRANCH   4  11
ENDBRANCH   1   4
BRANCH   1  18
ATOM     18  C   UNL     1       6.899   7.355  17.702  0.00  0.00    +0.000 C 
ATOM     19  C   UNL     1       8.047   8.047  17.553  0.00  0.00    +0.000 C 
BRANCH  19  20
ATOM     20  C   UNL     1       8.468   9.324  18.176  0.00  0.00    +0.000 A 
ATOM     21  C   UNL     1       9.088   9.432  19.422  0.00  0.00    +0.000 A 
ATOM     22  C   UNL     1       9.479  10.688  19.925  0.00  0.00    +0.000 A 
ATOM     23  C   UNL     1       9.267  11.879  19.207  0.00  0.00    +0.000 A 
ATOM     24  C   UNL     1       8.639  11.770  17.963  0.00  0.00    +0.000 A 
ATOM     25  C   UNL     1       8.249  10.515  17.460  0.00  0.00    +0.000 A 
BRANCH  23  26
ATOM     26  C   UNL     1       9.714  13.166  19.752  0.00  0.00    +0.000 A 
ATOM     27  C   UNL     1       9.890  13.632  21.042  0.00  0.00    +0.000 A 
ATOM     28  C   UNL     1      10.393  14.953  20.951  0.00  0.00    +0.000 A 
ATOM     29  C   UNL     1      10.798  15.930  21.876  0.00  0.00    +0.000 A 
ATOM     30  C   UNL     1      11.234  17.172  21.398  0.00  0.00    +0.000 A 
ATOM     31  C   UNL     1      11.264  17.440  20.027  0.00  0.00    +0.000 A 
ATOM     32  C   UNL     1      10.879  16.473  19.088  0.00  0.00    +0.000 A 
ATOM     33  C   UNL     1      10.456  15.242  19.594  0.00  0.00    +0.000 A 
ATOM     34  O   UNL     1      10.052  14.156  18.863  0.00  0.00    +0.000 OA
ENDBRANCH  23  26
ENDBRANCH  19  20
ENDBRANCH   1  18
TORSDOF 7
ENDMDL
MODEL 5
REMARK VINA RESULT:      -8.2      1.045      1.512
REMARK  Name = 
REMARK  7 active torsions:
REMARK  status: ('A' for Active; 'I' for Inactive)
REMARK    1  A    between atoms: N_1  and  S_2
REMARK    2  A    between atoms: S_2  and  C_5
REMARK    3  A    between atoms: C_10  and  N_11
REMARK    4  A    between atoms: N_11  and  S_12
REMARK    5  A    between atoms: S_12  and  C_15
REMARK    6  A    between atoms: C_16  and  C_17
REMARK    7  A    between atoms: C_20  and  C_21
REMARK                            x       y       z     vdW  Elec       q    Type
REMARK                         _______ _______ _______ _____ _____    ______ ____
ROOT
ATOM      1  S   UNL     1       3.882   3.821  18.375  0.00  0.00    +0.000 S 
ATOM      2  O   UNL     1       3.207   3.113  17.311  0.00  0.00    +0.000 OA
ATOM      3  O   UNL     1       3.679   3.406  19.755  0.00  0.00    +0.000 OA
ENDROOT
BRANCH   1   4
ATOM      4  N   UNL     1       5.543   3.597  18.051  0.00  0.00    +0.000 N 
ATOM      5  H   UNL     1       5.863   2.848  18.687  0.00  0.00    +0.000 HD
BRANCH   4  11
ATOM      6  C   UNL     1       6.825   5.487  16.969  0.00  0.00    +0.000 A 
ATOM      7  C   UNL     1       7.619   6.638  17.121  0.00  0.00    +0.000 A 
ATOM      8  C   UNL     1       8.039   7.036  18.386  0.00  0.00    +0.000 A 
ATOM      9  C   UNL     1       7.661   6.292  19.499  0.00  0.00    +0.000 A 
ATOM     10  C   UNL     1       6.835   5.173  19.354  0.00  0.00    +0.000 A 
ATOM     11  C   UNL     1       6.387   4.768  18.093  0.00  0.00    +0.000 A 
BRANCH   6  12
ATOM     12  S   UNL     1       6.409   5.043  15.310  0.00  0.00    +0.000 S 
ATOM     13  O   UNL     1       7.534   5.328  14.447  0.00  0.00    +0.000 OA
ATOM     14  O   UNL     1       5.088   5.561  15.032  0.00  0.00    +0.000 OA
BRANCH  12  15
ATOM     15  N   UNL     1       6.251   3.369  15.413  0.00  0.00    +0.000 NA
ATOM     16  H   UNL     1       6.552   2.949  14.531  0.00  0.00    +0.000 HD
ATOM     17  H   UNL     1       5.271   3.093  15.570  0.00  0.00    +0.000 HD
ENDBRANCH  12  15
ENDBRANCH   6  12
ENDBRANCH   4  11
ENDBRANCH   1   4
BRANCH   1  18
ATOM     18  C   UNL     1       3.496   5.522  18.208  0.00  0.00    +0.000 C 
ATOM     19  C   UNL     1       2.724   6.072  19.168  0.00  0.00    +0.000 C 
BRANCH  19  20
ATOM     20  C   UNL     1       2.174   7.444  19.265  0.00  0.00    +0.000 A 
ATOM     21  C   UNL     1       1.565   7.976  20.403  0.00  0.00    +0.000 A 
ATOM     22  C   UNL     1       1.095   9.304  20.415  0.00  0.00    +0.000 A 
ATOM     23  C   UNL     1       1.214  10.148  19.296  0.00  0.00    +0.000 A 
ATOM     24  C   UNL     1       1.818   9.613  18.155  0.00  0.00    +0.000 A 
ATOM     25  C   UNL     1       2.288   8.286  18.144  0.00  0.00    +0.000 A 
BRANCH  23  26
ATOM     26  C   UNL     1       0.739  11.534  19.357  0.00  0.00    +0.000 A 
ATOM     27  C   UNL     1       1.097  12.684  18.675  0.00  0.00    +0.000 A 
ATOM     28  C   UNL     1       0.251  13.726  19.126  0.00  0.00    +0.000 A 
ATOM     29  C   UNL     1       0.090  15.086  18.809  0.00  0.00    +0.000 A 
ATOM     30  C   UNL     1      -0.870  15.831  19.504  0.00  0.00    +0.000 A 
ATOM     31  C   UNL     1      -1.653  15.239  20.498  0.00  0.00    +0.000 A 
ATOM     32  C   UNL     1      -1.518  13.880  20.818  0.00  0.00    +0.000 A 
ATOM     33  C   UNL     1      -0.559  13.161  20.103  0.00  0.00    +0.000 A 
ATOM     34  O   UNL     1      -0.270  11.829  20.240  0.00  0.00    +0.000 OA
ENDBRANCH  23  26
ENDBRANCH  19  20
ENDBRANCH   1  18
TORSDOF 7
ENDMDL
MODEL 6
REMARK VINA RESULT:      -8.2      4.650      6.869
REMARK  Name = 
REMARK  7 active torsions:
REMARK  status: ('A' for Active; 'I' for Inactive)
REMARK    1  A    between atoms: N_1  and  S_2
REMARK    2  A    between atoms: S_2  and  C_5
REMARK    3  A    between atoms: C_10  and  N_11
REMARK    4  A    between atoms: N_11  and  S_12
REMARK    5  A    between atoms: S_12  and  C_15
REMARK    6  A    between atoms: C_16  and  C_17
REMARK    7  A    between atoms: C_20  and  C_21
REMARK                            x       y       z     vdW  Elec       q    Type
REMARK                         _______ _______ _______ _____ _____    ______ ____
ROOT
ATOM      1  S   UNL     1       7.010   4.852  17.432  0.00  0.00    +0.000 S 
ATOM      2  O   UNL     1       8.217   4.155  17.812  0.00  0.00    +0.000 OA
ATOM      3  O   UNL     1       6.204   4.344  16.331  0.00  0.00    +0.000 OA
ENDROOT
BRANCH   1   4
ATOM      4  N   UNL     1       6.018   4.779  18.820  0.00  0.00    +0.000 N 
ATOM      5  H   UNL     1       6.136   3.829  19.209  0.00  0.00    +0.000 HD
BRANCH   4  11
ATOM      6  C   UNL     1       3.542   4.276  18.775  0.00  0.00    +0.000 A 
ATOM      7  C   UNL     1       2.225   4.750  18.636  0.00  0.00    +0.000 A 
ATOM      8  C   UNL     1       1.993   6.083  18.312  0.00  0.00    +0.000 A 
ATOM      9  C   UNL     1       3.070   6.944  18.135  0.00  0.00    +0.000 A 
ATOM     10  C   UNL     1       4.379   6.484  18.317  0.00  0.00    +0.000 A 
ATOM     11  C   UNL     1       4.633   5.153  18.662  0.00  0.00    +0.000 A 
BRANCH   6  12
ATOM     12  S   UNL     1       3.715   2.552  19.122  0.00  0.00    +0.000 S 
ATOM     13  O   UNL     1       2.408   1.986  19.372  0.00  0.00    +0.000 OA
ATOM     14  O   UNL     1       4.802   2.397  20.063  0.00  0.00    +0.000 OA
BRANCH  12  15
ATOM     15  N   UNL     1       4.267   1.942  17.652  0.00  0.00    +0.000 NA
ATOM     16  H   UNL     1       3.742   1.096  17.422  0.00  0.00    +0.000 HD
ATOM     17  H   UNL     1       5.263   1.685  17.703  0.00  0.00    +0.000 HD
ENDBRANCH  12  15
ENDBRANCH   6  12
ENDBRANCH   4  11
ENDBRANCH   1   4
BRANCH   1  18
ATOM     18  C   UNL     1       7.436   6.524  17.127  0.00  0.00    +0.000 C 
ATOM     19  C   UNL     1       7.900   7.238  18.173  0.00  0.00    +0.000 C 
BRANCH  19  20
ATOM     20  C   UNL     1       8.267   8.672  18.248  0.00  0.00    +0.000 A 
ATOM     21  C   UNL     1       7.807   9.655  17.370  0.00  0.00    +0.000 A 
ATOM     22  C   UNL     1       8.188  11.002  17.534  0.00  0.00    +0.000 A 
ATOM     23  C   UNL     1       9.037  11.416  18.575  0.00  0.00    +0.000 A 
ATOM     24  C   UNL     1       9.503  10.430  19.449  0.00  0.00    +0.000 A 
ATOM     25  C   UNL     1       9.122   9.084  19.286  0.00  0.00    +0.000 A 
BRANCH  23  26
ATOM     26  C   UNL     1       9.387  12.832  18.731  0.00  0.00    +0.000 A 
ATOM     27  C   UNL     1      10.408  13.482  19.401  0.00  0.00    +0.000 A 
ATOM     28  C   UNL     1      10.263  14.869  19.154  0.00  0.00    +0.000 A 
ATOM     29  C   UNL     1      10.979  16.024  19.512  0.00  0.00    +0.000 A 
ATOM     30  C   UNL     1      10.504  17.271  19.085  0.00  0.00    +0.000 A 
ATOM     31  C   UNL     1       9.339  17.368  18.319  0.00  0.00    +0.000 A 
ATOM     32  C   UNL     1       8.620  16.226  17.939  0.00  0.00    +0.000 A 
ATOM     33  C   UNL     1       9.121  14.997  18.373  0.00  0.00    +0.000 A 
ATOM     34  O   UNL     1       8.592  13.762  18.108  0.00  0.00    +0.000 OA
ENDBRANCH  23  26
ENDBRANCH  19  20
ENDBRANCH   1  18
TORSDOF 7
ENDMDL
MODEL 7
REMARK VINA RESULT:      -8.2      3.475      4.838
REMARK  Name = 
REMARK  7 active torsions:
REMARK  status: ('A' for Active; 'I' for Inactive)
REMARK    1  A    between atoms: N_1  and  S_2
REMARK    2  A    between atoms: S_2  and  C_5
REMARK    3  A    between atoms: C_10  and  N_11
REMARK    4  A    between atoms: N_11  and  S_12
REMARK    5  A    between atoms: S_12  and  C_15
REMARK    6  A    between atoms: C_16  and  C_17
REMARK    7  A    between atoms: C_20  and  C_21
REMARK                            x       y       z     vdW  Elec       q    Type
REMARK                         _______ _______ _______ _____ _____    ______ ____
ROOT
ATOM      1  S   UNL     1       2.415   6.119  19.688  0.00  0.00    +0.000 S 
ATOM      2  O   UNL     1       1.460   5.214  20.285  0.00  0.00    +0.000 OA
ATOM      3  O   UNL     1       3.818   6.032  20.064  0.00  0.00    +0.000 OA
ENDROOT
BRANCH   1   4
ATOM      4  N   UNL     1       2.349   5.770  18.018  0.00  0.00    +0.000 N 
ATOM      5  H   UNL     1       1.549   5.128  17.889  0.00  0.00    +0.000 HD
BRANCH   4  11
ATOM      6  C   UNL     1       3.965   3.948  17.347  0.00  0.00    +0.000 A 
ATOM      7  C   UNL     1       5.151   3.582  16.684  0.00  0.00    +0.000 A 
ATOM      8  C   UNL     1       5.972   4.558  16.130  0.00  0.00    +0.000 A 
ATOM      9  C   UNL     1       5.609   5.897  16.229  0.00  0.00    +0.000 A 
ATOM     10  C   UNL     1       4.408   6.259  16.849  0.00  0.00    +0.000 A 
ATOM     11  C   UNL     1       3.560   5.292  17.395  0.00  0.00    +0.000 A 
BRANCH   6  12
ATOM     12  S   UNL     1       3.039   2.628  18.068  0.00  0.00    +0.000 S 
ATOM     13  O   UNL     1       3.686   1.372  17.762  0.00  0.00    +0.000 OA
ATOM     14  O   UNL     1       1.642   2.855  17.771  0.00  0.00    +0.000 OA
BRANCH  12  15
ATOM     15  N   UNL     1       3.227   2.914  19.718  0.00  0.00    +0.000 NA
ATOM     16  H   UNL     1       4.097   3.427  19.872  0.00  0.00    +0.000 HD
ATOM     17  H   UNL     1       3.289   2.032  20.247  0.00  0.00    +0.000 HD
ENDBRANCH  12  15
ENDBRANCH   6  12
ENDBRANCH   4  11
ENDBRANCH   1   4
BRANCH   1  18
ATOM     18  C   UNL     1       1.835   7.751  19.950  0.00  0.00    +0.000 C 
ATOM     19  C   UNL     1       1.216   8.001  21.122  0.00  0.00    +0.000 C 
BRANCH  19  20
ATOM     20  C   UNL     1       0.561   9.242  21.598  0.00  0.00    +0.000 A 
ATOM     21  C   UNL     1       0.671  10.486  20.974  0.00  0.00    +0.000 A 
ATOM     22  C   UNL     1      -0.011  11.609  21.482  0.00  0.00    +0.000 A 
ATOM     23  C   UNL     1      -0.825  11.533  22.627  0.00  0.00    +0.000 A 
ATOM     24  C   UNL     1      -0.929  10.289  23.254  0.00  0.00    +0.000 A 
ATOM     25  C   UNL     1      -0.247   9.167  22.747  0.00  0.00    +0.000 A 
BRANCH  23  26
ATOM     26  C   UNL     1      -1.542  12.719  23.109  0.00  0.00    +0.000 A 
ATOM     27  C   UNL     1      -2.865  13.116  23.031  0.00  0.00    +0.000 A 
ATOM     28  C   UNL     1      -2.982  14.345  23.725  0.00  0.00    +0.000 A 
ATOM     29  C   UNL     1      -4.038  15.220  24.030  0.00  0.00    +0.000 A 
ATOM     30  C   UNL     1      -3.758  16.392  24.742  0.00  0.00    +0.000 A 
ATOM     31  C   UNL     1      -2.453  16.692  25.142  0.00  0.00    +0.000 A 
ATOM     32  C   UNL     1      -1.389  15.824  24.861  0.00  0.00    +0.000 A 
ATOM     33  C   UNL     1      -1.699  14.659  24.156  0.00  0.00    +0.000 A 
ATOM     34  O   UNL     1      -0.825  13.671  23.790  0.00  0.00    +0.000 OA
ENDBRANCH  23  26
ENDBRANCH  19  20
ENDBRANCH   1  18
TORSDOF 7
ENDMDL
MODEL 8
REMARK VINA RESULT:      -8.2      3.466      4.695
REMARK  Name = 
REMARK  7 active torsions:
REMARK  status: ('A' for Active; 'I' for Inactive)
REMARK    1  A    between atoms: N_1  and  S_2
REMARK    2  A    between atoms: S_2  and  C_5
REMARK    3  A    between atoms: C_10  and  N_11
REMARK    4  A    between atoms: N_11  and  S_12
REMARK    5  A    between atoms: S_12  and  C_15
REMARK    6  A    between atoms: C_16  and  C_17
REMARK    7  A    between atoms: C_20  and  C_21
REMARK                            x       y       z     vdW  Elec       q    Type
REMARK                         _______ _______ _______ _____ _____    ______ ____
ROOT
ATOM      1  S   UNL     1       2.276   5.958  19.693  0.00  0.00    +0.000 S 
ATOM      2  O   UNL     1       1.882   5.937  18.303  0.00  0.00    +0.000 OA
ATOM      3  O   UNL     1       1.691   5.000  20.619  0.00  0.00    +0.000 OA
ENDROOT
BRANCH   1   4
ATOM      4  N   UNL     1       3.952   5.631  19.667  0.00  0.00    +0.000 N 
ATOM      5  H   UNL     1       4.414   6.461  20.074  0.00  0.00    +0.000 HD
BRANCH   4  11
ATOM      6  C   UNL     1       4.462   3.937  17.863  0.00  0.00    +0.000 A 
ATOM      7  C   UNL     1       5.027   3.659  16.605  0.00  0.00    +0.000 A 
ATOM      8  C   UNL     1       5.719   4.648  15.916  0.00  0.00    +0.000 A 
ATOM      9  C   UNL     1       5.843   5.916  16.475  0.00  0.00    +0.000 A 
ATOM     10  C   UNL     1       5.244   6.206  17.705  0.00  0.00    +0.000 A 
ATOM     11  C   UNL     1       4.527   5.231  18.405  0.00  0.00    +0.000 A 
BRANCH   6  12
ATOM     12  S   UNL     1       3.664   2.585  18.673  0.00  0.00    +0.000 S 
ATOM     13  O   UNL     1       3.962   2.636  20.087  0.00  0.00    +0.000 OA
ATOM     14  O   UNL     1       3.907   1.394  17.889  0.00  0.00    +0.000 OA
BRANCH  12  15
ATOM     15  N   UNL     1       2.033   2.958  18.478  0.00  0.00    +0.000 NA
ATOM     16  H   UNL     1       1.468   2.166  18.789  0.00  0.00    +0.000 HD
ATOM     17  H   UNL     1       1.804   3.134  17.489  0.00  0.00    +0.000 HD
ENDBRANCH  12  15
ENDBRANCH   6  12
ENDBRANCH   4  11
ENDBRANCH   1   4
BRANCH   1  18
ATOM     18  C   UNL     1       2.025   7.585  20.292  0.00  0.00    +0.000 C 
ATOM     19  C   UNL     1       0.852   7.837  20.908  0.00  0.00    +0.000 C 
BRANCH  19  20
ATOM     20  C   UNL     1       0.324   9.113  21.446  0.00  0.00    +0.000 A 
ATOM     21  C   UNL     1       0.472  10.356  20.828  0.00  0.00    +0.000 A 
ATOM     22  C   UNL     1      -0.089  11.515  21.400  0.00  0.00    +0.000 A 
ATOM     23  C   UNL     1      -0.815  11.478  22.603  0.00  0.00    +0.000 A 
ATOM     24  C   UNL     1      -0.956  10.234  23.225  0.00  0.00    +0.000 A 
ATOM     25  C   UNL     1      -0.396   9.076  22.654  0.00  0.00    +0.000 A 
BRANCH  23  26
ATOM     26  C   UNL     1      -1.408  12.702  23.152  0.00  0.00    +0.000 A 
ATOM     27  C   UNL     1      -2.716  13.115  23.335  0.00  0.00    +0.000 A 
ATOM     28  C   UNL     1      -2.677  14.386  23.959  0.00  0.00    +0.000 A 
ATOM     29  C   UNL     1      -3.641  15.295  24.427  0.00  0.00    +0.000 A 
ATOM     30  C   UNL     1      -3.211  16.504  24.987  0.00  0.00    +0.000 A 
ATOM     31  C   UNL     1      -1.849  16.807  25.078  0.00  0.00    +0.000 A 
ATOM     32  C   UNL     1      -0.873  15.905  24.631  0.00  0.00    +0.000 A 
ATOM     33  C   UNL     1      -1.331  14.705  24.084  0.00  0.00    +0.000 A 
ATOM     34  O   UNL     1      -0.558  13.682  23.602  0.00  0.00    +0.000 OA
ENDBRANCH  23  26
ENDBRANCH  19  20
ENDBRANCH   1  18
TORSDOF 7
ENDMDL
MODEL 9
REMARK VINA RESULT:      -8.1      5.809     10.945
REMARK  Name = 
REMARK  7 active torsions:
REMARK  status: ('A' for Active; 'I' for Inactive)
REMARK    1  A    between atoms: N_1  and  S_2
REMARK    2  A    between atoms: S_2  and  C_5
REMARK    3  A    between atoms: C_10  and  N_11
REMARK    4  A    between atoms: N_11  and  S_12
REMARK    5  A    between atoms: S_12  and  C_15
REMARK    6  A    between atoms: C_16  and  C_17
REMARK    7  A    between atoms: C_20  and  C_21
REMARK                            x       y       z     vdW  Elec       q    Type
REMARK                         _______ _______ _______ _____ _____    ______ ____
ROOT
ATOM      1  S   UNL     1      -1.144  12.420  22.487  0.00  0.00    +0.000 S 
ATOM      2  O   UNL     1      -0.534  13.307  23.451  0.00  0.00    +0.000 OA
ATOM      3  O   UNL     1      -2.150  11.465  22.927  0.00  0.00    +0.000 OA
ENDROOT
BRANCH   1   4
ATOM      4  N   UNL     1      -1.927  13.462  21.383  0.00  0.00    +0.000 N 
ATOM      5  H   UNL     1      -2.281  14.258  21.939  0.00  0.00    +0.000 HD
BRANCH   4  11
ATOM      6  C   UNL     1      -4.311  12.854  20.808  0.00  0.00    +0.000 A 
ATOM      7  C   UNL     1      -5.217  12.290  19.891  0.00  0.00    +0.000 A 
ATOM      8  C   UNL     1      -4.749  11.688  18.728  0.00  0.00    +0.000 A 
ATOM      9  C   UNL     1      -3.382  11.653  18.475  0.00  0.00    +0.000 A 
ATOM     10  C   UNL     1      -2.484  12.252  19.365  0.00  0.00    +0.000 A 
ATOM     11  C   UNL     1      -2.935  12.880  20.530  0.00  0.00    +0.000 A 
BRANCH   6  12
ATOM     12  S   UNL     1      -5.016  13.531  22.280  0.00  0.00    +0.000 S 
ATOM     13  O   UNL     1      -4.194  14.629  22.738  0.00  0.00    +0.000 OA
ATOM     14  O   UNL     1      -5.366  12.431  23.150  0.00  0.00    +0.000 OA
BRANCH  12  15
ATOM     15  N   UNL     1      -6.468  14.176  21.721  0.00  0.00    +0.000 NA
ATOM     16  H   UNL     1      -6.270  14.875  21.002  0.00  0.00    +0.000 HD
ATOM     17  H   UNL     1      -6.985  14.648  22.477  0.00  0.00    +0.000 HD
ENDBRANCH  12  15
ENDBRANCH   6  12
ENDBRANCH   4  11
ENDBRANCH   1   4
BRANCH   1  18
ATOM     18  C   UNL     1       0.145  11.576  21.653  0.00  0.00    +0.000 C 
ATOM     19  C   UNL     1      -0.161  10.386  21.098  0.00  0.00    +0.000 C 
BRANCH  19  20
ATOM     20  C   UNL     1       0.717   9.415  20.403  0.00  0.00    +0.000 A 
ATOM     21  C   UNL     1       1.235   8.256  20.984  0.00  0.00    +0.000 A 
ATOM     22  C   UNL     1       2.041   7.375  20.237  0.00  0.00    +0.000 A 
ATOM     23  C   UNL     1       2.358   7.615  18.888  0.00  0.00    +0.000 A 
ATOM     24  C   UNL     1       1.845   8.779  18.309  0.00  0.00    +0.000 A 
ATOM     25  C   UNL     1       1.040   9.660  19.055  0.00  0.00    +0.000 A 
BRANCH  23  26
ATOM     26  C   UNL     1       3.177   6.658  18.135  0.00  0.00    +0.000 A 
ATOM     27  C   UNL     1       3.244   5.276  18.128  0.00  0.00    +0.000 A 
ATOM     28  C   UNL     1       4.198   4.902  17.151  0.00  0.00    +0.000 A 
ATOM     29  C   UNL     1       4.685   3.682  16.652  0.00  0.00    +0.000 A 
ATOM     30  C   UNL     1       5.680   3.706  15.666  0.00  0.00    +0.000 A 
ATOM     31  C   UNL     1       6.182   4.919  15.187  0.00  0.00    +0.000 A 
ATOM     32  C   UNL     1       5.697   6.146  15.661  0.00  0.00    +0.000 A 
ATOM     33  C   UNL     1       4.701   6.090  16.638  0.00  0.00    +0.000 A 
ATOM     34  O   UNL     1       4.078   7.158  17.228  0.00  0.00    +0.000 OA
ENDBRANCH  23  26
ENDBRANCH  19  20
ENDBRANCH   1  18
TORSDOF 7
ENDMDL
