MODEL 1
REMARK VINA RESULT:      -7.9      0.000      0.000
REMARK  Name = 
REMARK  10 active torsions:
REMARK  status: ('A' for Active; 'I' for Inactive)
REMARK    1  A    between atoms: C_1  and  C_2
REMARK    2  A    between atoms: C_2  and  O_3
REMARK    3  A    between atoms: O_3  and  C_4
REMARK    4  A    between atoms: C_4  and  C_6
REMARK    5  A    between atoms: C_8  and  C_9
REMARK    6  A    between atoms: N_11  and  C_12
REMARK    7  A    between atoms: C_19  and  C_20
REMARK    8  A    between atoms: C_28  and  C_29
REMARK    9  A    between atoms: C_32  and  O_33
REMARK   10  A    between atoms: O_33  and  C_34
REMARK                            x       y       z     vdW  Elec       q    Type
REMARK                         _______ _______ _______ _____ _____    ______ ____
ROOT
ATOM      1  C   UNL     1      -5.369  12.046  19.778  0.00  0.00    +0.000 A 
ATOM      2  S   UNL     1      -5.279  12.799  21.326  0.00  0.00    +0.000 S 
ATOM      3  C   UNL     1      -3.585  12.943  21.165  0.00  0.00    +0.000 A 
ATOM      4  N   UNL     1      -3.105  12.523  20.019  0.00  0.00    +0.000 NA
ATOM      5  C   UNL     1      -4.104  11.987  19.220  0.00  0.00    +0.000 A 
ENDROOT
BRANCH   5   6
ATOM      6  C   UNL     1      -3.741  11.401  17.931  0.00  0.00    +0.000 A 
ATOM      7  C   UNL     1      -2.627  10.570  17.778  0.00  0.00    +0.000 A 
ATOM      8  C   UNL     1      -2.285  10.061  16.524  0.00  0.00    +0.000 A 
ATOM      9  C   UNL     1      -3.040  10.379  15.397  0.00  0.00    +0.000 A 
ATOM     10  C   UNL     1      -4.135  11.228  15.526  0.00  0.00    +0.000 A 
ATOM     11  C   UNL     1      -4.481  11.736  16.786  0.00  0.00    +0.000 A 
BRANCH   9  12
ATOM     12  O   UNL     1      -2.573   9.845  14.228  0.00  0.00    +0.000 OA
ATOM     13  C   UNL     1      -3.499   9.805  13.150  0.00  0.00    +0.000 C 
ENDBRANCH   9  12
ENDBRANCH   5   6
BRANCH   3  14
ATOM     14  C   UNL     1      -2.706  13.476  22.245  0.00  0.00    +0.000 A 
ATOM     15  C   UNL     1      -2.940  14.624  22.965  0.00  0.00    +0.000 A 
ATOM     16  N   UNL     1      -1.874  14.786  23.816  0.00  0.00    +0.000 N 
ATOM     17  N   UNL     1      -0.974  13.783  23.680  0.00  0.00    +0.000 NA
ATOM     18  C   UNL     1      -1.479  12.956  22.745  0.00  0.00    +0.000 A 
BRANCH  18  19
ATOM     19  C   UNL     1      -0.788  11.711  22.396  0.00  0.00    +0.000 A 
ATOM     20  C   UNL     1       0.040  11.623  21.264  0.00  0.00    +0.000 A 
ATOM     21  C   UNL     1       0.765  10.462  20.993  0.00  0.00    +0.000 A 
ATOM     22  C   UNL     1       0.621   9.364  21.825  0.00  0.00    +0.000 A 
ATOM     23  F   UNL     1       1.320   8.250  21.574  0.00  0.00    +0.000 F 
ATOM     24  C   UNL     1      -0.236   9.400  22.918  0.00  0.00    +0.000 A 
ATOM     25  C   UNL     1      -0.943  10.572  23.204  0.00  0.00    +0.000 A 
ENDBRANCH  18  19
BRANCH  16  26
ATOM     26  C   UNL     1      -1.665  15.842  24.748  0.00  0.00    +0.000 A 
ATOM     27  C   UNL     1      -0.750  15.710  25.804  0.00  0.00    +0.000 A 
ATOM     28  C   UNL     1      -0.557  16.762  26.703  0.00  0.00    +0.000 A 
ATOM     29  C   UNL     1      -1.275  17.947  26.559  0.00  0.00    +0.000 A 
ATOM     30  C   UNL     1      -2.187  18.086  25.515  0.00  0.00    +0.000 A 
ATOM     31  C   UNL     1      -2.382  17.040  24.610  0.00  0.00    +0.000 A 
ENDBRANCH  16  26
ENDBRANCH   3  14
BRANCH   1  32
ATOM     32  C   UNL     1      -6.657  11.694  19.244  0.00  0.00    +0.000 C 
ATOM     33  O   UNL     1      -7.473  12.477  18.772  0.00  0.00    +0.000 OA
BRANCH  32  34
ATOM     34  O   UNL     1      -6.869  10.353  19.376  0.00  0.00    +0.000 OA
BRANCH  34  36
ATOM     35  C   UNL     1      -7.671   8.452  20.562  0.00  0.00    +0.000 C 
ATOM     36  C   UNL     1      -7.592   9.968  20.549  0.00  0.00    +0.000 C 
ENDBRANCH  34  36
ENDBRANCH  32  34
ENDBRANCH   1  32
TORSDOF 8
ENDMDL
MODEL 2
REMARK VINA RESULT:      -7.8      6.807     10.609
REMARK  Name = 
REMARK  10 active torsions:
REMARK  status: ('A' for Active; 'I' for Inactive)
REMARK    1  A    between atoms: C_1  and  C_2
REMARK    2  A    between atoms: C_2  and  O_3
REMARK    3  A    between atoms: O_3  and  C_4
REMARK    4  A    between atoms: C_4  and  C_6
REMARK    5  A    between atoms: C_8  and  C_9
REMARK    6  A    between atoms: N_11  and  C_12
REMARK    7  A    between atoms: C_19  and  C_20
REMARK    8  A    between atoms: C_28  and  C_29
REMARK    9  A    between atoms: C_32  and  O_33
REMARK   10  A    between atoms: O_33  and  C_34
REMARK                            x       y       z     vdW  Elec       q    Type
REMARK                         _______ _______ _______ _____ _____    ______ ____
ROOT
ATOM      1  C   UNL     1       1.492   8.600  20.733  0.00  0.00    +0.000 A 
ATOM      2  S   UNL     1       2.292   7.073  20.726  0.00  0.00    +0.000 S 
ATOM      3  C   UNL     1       2.658   7.266  19.070  0.00  0.00    +0.000 A 
ATOM      4  N   UNL     1       2.277   8.410  18.552  0.00  0.00    +0.000 NA
ATOM      5  C   UNL     1       1.589   9.178  19.479  0.00  0.00    +0.000 A 
ENDROOT
BRANCH   5   6
ATOM      6  C   UNL     1       1.023  10.458  19.057  0.00  0.00    +0.000 A 
ATOM      7  C   UNL     1       1.768  11.641  19.067  0.00  0.00    +0.000 A 
ATOM      8  C   UNL     1       1.184  12.854  18.698  0.00  0.00    +0.000 A 
ATOM      9  C   UNL     1      -0.156  12.913  18.322  0.00  0.00    +0.000 A 
ATOM     10  C   UNL     1      -0.921  11.749  18.333  0.00  0.00    +0.000 A 
ATOM     11  C   UNL     1      -0.333  10.530  18.701  0.00  0.00    +0.000 A 
BRANCH   9  12
ATOM     12  O   UNL     1      -0.609  14.166  18.020  0.00  0.00    +0.000 OA
ATOM     13  C   UNL     1      -0.190  15.206  18.895  0.00  0.00    +0.000 C 
ENDBRANCH   9  12
ENDBRANCH   5   6
BRANCH   3  14
ATOM     14  C   UNL     1       3.334   6.214  18.257  0.00  0.00    +0.000 A 
ATOM     15  C   UNL     1       4.141   6.448  17.168  0.00  0.00    +0.000 A 
ATOM     16  N   UNL     1       4.516   5.221  16.677  0.00  0.00    +0.000 N 
ATOM     17  N   UNL     1       3.993   4.212  17.414  0.00  0.00    +0.000 NA
ATOM     18  C   UNL     1       3.291   4.799  18.402  0.00  0.00    +0.000 A 
BRANCH  18  19
ATOM     19  C   UNL     1       2.643   3.991  19.440  0.00  0.00    +0.000 A 
ATOM     20  C   UNL     1       3.387   3.356  20.447  0.00  0.00    +0.000 A 
ATOM     21  C   UNL     1       2.754   2.666  21.483  0.00  0.00    +0.000 A 
ATOM     22  C   UNL     1       1.372   2.564  21.482  0.00  0.00    +0.000 A 
ATOM     23  F   UNL     1       0.759   1.910  22.476  0.00  0.00    +0.000 F 
ATOM     24  C   UNL     1       0.612   3.130  20.466  0.00  0.00    +0.000 A 
ATOM     25  C   UNL     1       1.246   3.843  19.444  0.00  0.00    +0.000 A 
ENDBRANCH  18  19
BRANCH  16  26
ATOM     26  C   UNL     1       5.341   4.957  15.547  0.00  0.00    +0.000 A 
ATOM     27  C   UNL     1       6.652   5.453  15.473  0.00  0.00    +0.000 A 
ATOM     28  C   UNL     1       7.445   5.176  14.357  0.00  0.00    +0.000 A 
ATOM     29  C   UNL     1       6.939   4.410  13.309  0.00  0.00    +0.000 A 
ATOM     30  C   UNL     1       5.637   3.916  13.374  0.00  0.00    +0.000 A 
ATOM     31  C   UNL     1       4.839   4.186  14.488  0.00  0.00    +0.000 A 
ENDBRANCH  16  26
ENDBRANCH   3  14
BRANCH   1  32
ATOM     32  C   UNL     1       0.956   9.104  21.969  0.00  0.00    +0.000 C 
ATOM     33  O   UNL     1       1.599   9.336  22.985  0.00  0.00    +0.000 OA
BRANCH  32  34
ATOM     34  O   UNL     1      -0.397   9.250  21.868  0.00  0.00    +0.000 OA
BRANCH  34  36
ATOM     35  C   UNL     1      -0.780  11.576  22.196  0.00  0.00    +0.000 C 
ATOM     36  C   UNL     1      -0.974  10.189  22.781  0.00  0.00    +0.000 C 
ENDBRANCH  34  36
ENDBRANCH  32  34
ENDBRANCH   1  32
TORSDOF 8
ENDMDL
MODEL 3
REMARK VINA RESULT:      -7.6      8.568     12.664
REMARK  Name = 
REMARK  10 active torsions:
REMARK  status: ('A' for Active; 'I' for Inactive)
REMARK    1  A    between atoms: C_1  and  C_2
REMARK    2  A    between atoms: C_2  and  O_3
REMARK    3  A    between atoms: O_3  and  C_4
REMARK    4  A    between atoms: C_4  and  C_6
REMARK    5  A    between atoms: C_8  and  C_9
REMARK    6  A    between atoms: N_11  and  C_12
REMARK    7  A    between atoms: C_19  and  C_20
REMARK    8  A    between atoms: C_28  and  C_29
REMARK    9  A    between atoms: C_32  and  O_33
REMARK   10  A    between atoms: O_33  and  C_34
REMARK                            x       y       z     vdW  Elec       q    Type
REMARK                         _______ _______ _______ _____ _____    ______ ____
ROOT
ATOM      1  C   UNL     1       2.717   5.152  19.640  0.00  0.00    +0.000 A 
ATOM      2  S   UNL     1       3.764   4.092  18.773  0.00  0.00    +0.000 S 
ATOM      3  C   UNL     1       4.212   5.372  17.737  0.00  0.00    +0.000 A 
ATOM      4  N   UNL     1       3.680   6.534  18.036  0.00  0.00    +0.000 NA
ATOM      5  C   UNL     1       2.805   6.426  19.107  0.00  0.00    +0.000 A 
ENDROOT
BRANCH   5   6
ATOM      6  C   UNL     1       2.062   7.609  19.535  0.00  0.00    +0.000 A 
ATOM      7  C   UNL     1       1.519   7.724  20.819  0.00  0.00    +0.000 A 
ATOM      8  C   UNL     1       0.779   8.850  21.181  0.00  0.00    +0.000 A 
ATOM      9  C   UNL     1       0.555   9.879  20.268  0.00  0.00    +0.000 A 
ATOM     10  C   UNL     1       1.064   9.769  18.977  0.00  0.00    +0.000 A 
ATOM     11  C   UNL     1       1.811   8.639  18.614  0.00  0.00    +0.000 A 
BRANCH   9  12
ATOM     12  O   UNL     1      -0.216  10.904  20.741  0.00  0.00    +0.000 OA
ATOM     13  C   UNL     1      -1.189  11.415  19.841  0.00  0.00    +0.000 C 
ENDBRANCH   9  12
ENDBRANCH   5   6
BRANCH   3  14
ATOM     14  C   UNL     1       5.115   5.193  16.563  0.00  0.00    +0.000 A 
ATOM     15  C   UNL     1       4.832   4.436  15.452  0.00  0.00    +0.000 A 
ATOM     16  N   UNL     1       5.937   4.490  14.638  0.00  0.00    +0.000 N 
ATOM     17  N   UNL     1       6.911   5.261  15.177  0.00  0.00    +0.000 NA
ATOM     18  C   UNL     1       6.416   5.724  16.340  0.00  0.00    +0.000 A 
BRANCH  18  19
ATOM     19  C   UNL     1       7.190   6.662  17.162  0.00  0.00    +0.000 A 
ATOM     20  C   UNL     1       7.331   8.011  16.799  0.00  0.00    +0.000 A 
ATOM     21  C   UNL     1       7.992   8.914  17.634  0.00  0.00    +0.000 A 
ATOM     22  C   UNL     1       8.562   8.456  18.810  0.00  0.00    +0.000 A 
ATOM     23  F   UNL     1       9.191   9.319  19.618  0.00  0.00    +0.000 F 
ATOM     24  C   UNL     1       8.492   7.115  19.166  0.00  0.00    +0.000 A 
ATOM     25  C   UNL     1       7.808   6.216  18.342  0.00  0.00    +0.000 A 
ENDBRANCH  18  19
BRANCH  16  26
ATOM     26  C   UNL     1       6.117   3.848  13.379  0.00  0.00    +0.000 A 
ATOM     27  C   UNL     1       7.360   3.858  12.729  0.00  0.00    +0.000 A 
ATOM     28  C   UNL     1       7.514   3.216  11.498  0.00  0.00    +0.000 A 
ATOM     29  C   UNL     1       6.433   2.566  10.906  0.00  0.00    +0.000 A 
ATOM     30  C   UNL     1       5.194   2.554  11.544  0.00  0.00    +0.000 A 
ATOM     31  C   UNL     1       5.034   3.190  12.778  0.00  0.00    +0.000 A 
ENDBRANCH  16  26
ENDBRANCH   3  14
BRANCH   1  32
ATOM     32  C   UNL     1       2.014   4.654  20.792  0.00  0.00    +0.000 C 
ATOM     33  O   UNL     1       2.460   4.596  21.931  0.00  0.00    +0.000 OA
BRANCH  32  34
ATOM     34  O   UNL     1       0.777   4.209  20.429  0.00  0.00    +0.000 OA
BRANCH  34  36
ATOM     35  C   UNL     1       0.613   2.408  18.882  0.00  0.00    +0.000 C 
ATOM     36  C   UNL     1       0.645   2.786  20.351  0.00  0.00    +0.000 C 
ENDBRANCH  34  36
ENDBRANCH  32  34
ENDBRANCH   1  32
TORSDOF 8
ENDMDL
MODEL 4
REMARK VINA RESULT:      -7.4      6.767     10.597
REMARK  Name = 
REMARK  10 active torsions:
REMARK  status: ('A' for Active; 'I' for Inactive)
REMARK    1  A    between atoms: C_1  and  C_2
REMARK    2  A    between atoms: C_2  and  O_3
REMARK    3  A    between atoms: O_3  and  C_4
REMARK    4  A    between atoms: C_4  and  C_6
REMARK    5  A    between atoms: C_8  and  C_9
REMARK    6  A    between atoms: N_11  and  C_12
REMARK    7  A    between atoms: C_19  and  C_20
REMARK    8  A    between atoms: C_28  and  C_29
REMARK    9  A    between atoms: C_32  and  O_33
REMARK   10  A    between atoms: O_33  and  C_34
REMARK                            x       y       z     vdW  Elec       q    Type
REMARK                         _______ _______ _______ _____ _____    ______ ____
ROOT
ATOM      1  C   UNL     1       1.459   8.598  20.851  0.00  0.00    +0.000 A 
ATOM      2  S   UNL     1       2.228   7.055  20.825  0.00  0.00    +0.000 S 
ATOM      3  C   UNL     1       2.625   7.275  19.179  0.00  0.00    +0.000 A 
ATOM      4  N   UNL     1       2.274   8.436  18.679  0.00  0.00    +0.000 NA
ATOM      5  C   UNL     1       1.587   9.199  19.612  0.00  0.00    +0.000 A 
ENDROOT
BRANCH   5   6
ATOM      6  C   UNL     1       1.054  10.499  19.208  0.00  0.00    +0.000 A 
ATOM      7  C   UNL     1      -0.283  10.672  18.839  0.00  0.00    +0.000 A 
ATOM      8  C   UNL     1      -0.750  11.919  18.419  0.00  0.00    +0.000 A 
ATOM      9  C   UNL     1       0.109  13.013  18.348  0.00  0.00    +0.000 A 
ATOM     10  C   UNL     1       1.451  12.852  18.684  0.00  0.00    +0.000 A 
ATOM     11  C   UNL     1       1.919  11.600  19.110  0.00  0.00    +0.000 A 
BRANCH   9  12
ATOM     12  O   UNL     1      -0.468  14.163  17.886  0.00  0.00    +0.000 OA
ATOM     13  C   UNL     1      -0.263  15.324  18.680  0.00  0.00    +0.000 C 
ENDBRANCH   9  12
ENDBRANCH   5   6
BRANCH   3  14
ATOM     14  C   UNL     1       3.292   6.227  18.354  0.00  0.00    +0.000 A 
ATOM     15  C   UNL     1       4.094   6.465  17.263  0.00  0.00    +0.000 A 
ATOM     16  N   UNL     1       4.461   5.240  16.761  0.00  0.00    +0.000 N 
ATOM     17  N   UNL     1       3.938   4.228  17.492  0.00  0.00    +0.000 NA
ATOM     18  C   UNL     1       3.244   4.811  18.489  0.00  0.00    +0.000 A 
BRANCH  18  19
ATOM     19  C   UNL     1       2.598   3.997  19.524  0.00  0.00    +0.000 A 
ATOM     20  C   UNL     1       3.340   3.391  20.551  0.00  0.00    +0.000 A 
ATOM     21  C   UNL     1       2.706   2.696  21.582  0.00  0.00    +0.000 A 
ATOM     22  C   UNL     1       1.327   2.559  21.558  0.00  0.00    +0.000 A 
ATOM     23  F   UNL     1       0.713   1.900  22.549  0.00  0.00    +0.000 F 
ATOM     24  C   UNL     1       0.572   3.096  20.524  0.00  0.00    +0.000 A 
ATOM     25  C   UNL     1       1.205   3.815  19.505  0.00  0.00    +0.000 A 
ENDBRANCH  18  19
BRANCH  16  26
ATOM     26  C   UNL     1       5.280   4.982  15.625  0.00  0.00    +0.000 A 
ATOM     27  C   UNL     1       4.806   4.222  14.545  0.00  0.00    +0.000 A 
ATOM     28  C   UNL     1       5.626   3.987  13.438  0.00  0.00    +0.000 A 
ATOM     29  C   UNL     1       6.919   4.503  13.401  0.00  0.00    +0.000 A 
ATOM     30  C   UNL     1       7.399   5.257  14.471  0.00  0.00    +0.000 A 
ATOM     31  C   UNL     1       6.583   5.499  15.579  0.00  0.00    +0.000 A 
ENDBRANCH  16  26
ENDBRANCH   3  14
BRANCH   1  32
ATOM     32  C   UNL     1       0.913   9.086  22.089  0.00  0.00    +0.000 C 
ATOM     33  O   UNL     1       1.548   9.299  23.116  0.00  0.00    +0.000 OA
BRANCH  32  34
ATOM     34  O   UNL     1      -0.437   9.243  21.977  0.00  0.00    +0.000 OA
BRANCH  34  36
ATOM     35  C   UNL     1      -0.898  11.547  22.355  0.00  0.00    +0.000 C 
ATOM     36  C   UNL     1      -1.022  10.144  22.922  0.00  0.00    +0.000 C 
ENDBRANCH  34  36
ENDBRANCH  32  34
ENDBRANCH   1  32
TORSDOF 8
ENDMDL
MODEL 5
REMARK VINA RESULT:      -7.4      0.799      1.438
REMARK  Name = 
REMARK  10 active torsions:
REMARK  status: ('A' for Active; 'I' for Inactive)
REMARK    1  A    between atoms: C_1  and  C_2
REMARK    2  A    between atoms: C_2  and  O_3
REMARK    3  A    between atoms: O_3  and  C_4
REMARK    4  A    between atoms: C_4  and  C_6
REMARK    5  A    between atoms: C_8  and  C_9
REMARK    6  A    between atoms: N_11  and  C_12
REMARK    7  A    between atoms: C_19  and  C_20
REMARK    8  A    between atoms: C_28  and  C_29
REMARK    9  A    between atoms: C_32  and  O_33
REMARK   10  A    between atoms: O_33  and  C_34
REMARK                            x       y       z     vdW  Elec       q    Type
REMARK                         _______ _______ _______ _____ _____    ______ ____
ROOT
ATOM      1  C   UNL     1      -5.351  11.832  19.742  0.00  0.00    +0.000 A 
ATOM      2  S   UNL     1      -5.256  12.605  21.280  0.00  0.00    +0.000 S 
ATOM      3  C   UNL     1      -3.594  12.907  21.032  0.00  0.00    +0.000 A 
ATOM      4  N   UNL     1      -3.134  12.525  19.864  0.00  0.00    +0.000 NA
ATOM      5  C   UNL     1      -4.116  11.889  19.120  0.00  0.00    +0.000 A 
ENDROOT
BRANCH   5   6
ATOM      6  C   UNL     1      -3.765  11.329  17.816  0.00  0.00    +0.000 A 
ATOM      7  C   UNL     1      -2.666  10.482  17.642  0.00  0.00    +0.000 A 
ATOM      8  C   UNL     1      -2.334   9.999  16.375  0.00  0.00    +0.000 A 
ATOM      9  C   UNL     1      -3.083  10.358  15.257  0.00  0.00    +0.000 A 
ATOM     10  C   UNL     1      -4.164  11.223  15.408  0.00  0.00    +0.000 A 
ATOM     11  C   UNL     1      -4.500  11.706  16.681  0.00  0.00    +0.000 A 
BRANCH   9  12
ATOM     12  O   UNL     1      -2.628   9.844  14.075  0.00  0.00    +0.000 OA
ATOM     13  C   UNL     1      -3.578   9.775  13.020  0.00  0.00    +0.000 C 
ENDBRANCH   9  12
ENDBRANCH   5   6
BRANCH   3  14
ATOM     14  C   UNL     1      -2.716  13.531  22.064  0.00  0.00    +0.000 A 
ATOM     15  C   UNL     1      -2.948  14.739  22.679  0.00  0.00    +0.000 A 
ATOM     16  N   UNL     1      -1.884  14.972  23.515  0.00  0.00    +0.000 N 
ATOM     17  N   UNL     1      -0.987  13.959  23.470  0.00  0.00    +0.000 NA
ATOM     18  C   UNL     1      -1.492  13.054  22.611  0.00  0.00    +0.000 A 
BRANCH  18  19
ATOM     19  C   UNL     1      -0.803  11.781  22.375  0.00  0.00    +0.000 A 
ATOM     20  C   UNL     1       0.119  11.629  21.327  0.00  0.00    +0.000 A 
ATOM     21  C   UNL     1       0.838  10.443  21.167  0.00  0.00    +0.000 A 
ATOM     22  C   UNL     1       0.593   9.383  22.026  0.00  0.00    +0.000 A 
ATOM     23  F   UNL     1       1.283   8.245  21.883  0.00  0.00    +0.000 F 
ATOM     24  C   UNL     1      -0.358   9.483  23.035  0.00  0.00    +0.000 A 
ATOM     25  C   UNL     1      -1.057  10.680  23.210  0.00  0.00    +0.000 A 
ENDBRANCH  18  19
BRANCH  16  26
ATOM     26  C   UNL     1      -1.674  16.106  24.352  0.00  0.00    +0.000 A 
ATOM     27  C   UNL     1      -0.380  16.537  24.681  0.00  0.00    +0.000 A 
ATOM     28  C   UNL     1      -0.200  17.656  25.499  0.00  0.00    +0.000 A 
ATOM     29  C   UNL     1      -1.303  18.347  25.994  0.00  0.00    +0.000 A 
ATOM     30  C   UNL     1      -2.591  17.924  25.675  0.00  0.00    +0.000 A 
ATOM     31  C   UNL     1      -2.780  16.809  24.854  0.00  0.00    +0.000 A 
ENDBRANCH  16  26
ENDBRANCH   3  14
BRANCH   1  32
ATOM     32  C   UNL     1      -6.626  11.355  19.276  0.00  0.00    +0.000 C 
ATOM     33  O   UNL     1      -6.857  10.227  18.859  0.00  0.00    +0.000 OA
BRANCH  32  34
ATOM     34  O   UNL     1      -7.547  12.360  19.323  0.00  0.00    +0.000 OA
BRANCH  34  36
ATOM     35  C   UNL     1      -7.917  14.604  18.620  0.00  0.00    +0.000 C 
ATOM     36  C   UNL     1      -7.592  13.194  18.161  0.00  0.00    +0.000 C 
ENDBRANCH  34  36
ENDBRANCH  32  34
ENDBRANCH   1  32
TORSDOF 8
ENDMDL
MODEL 6
REMARK VINA RESULT:      -7.4      8.553     12.712
REMARK  Name = 
REMARK  10 active torsions:
REMARK  status: ('A' for Active; 'I' for Inactive)
REMARK    1  A    between atoms: C_1  and  C_2
REMARK    2  A    between atoms: C_2  and  O_3
REMARK    3  A    between atoms: O_3  and  C_4
REMARK    4  A    between atoms: C_4  and  C_6
REMARK    5  A    between atoms: C_8  and  C_9
REMARK    6  A    between atoms: N_11  and  C_12
REMARK    7  A    between atoms: C_19  and  C_20
REMARK    8  A    between atoms: C_28  and  C_29
REMARK    9  A    between atoms: C_32  and  O_33
REMARK   10  A    between atoms: O_33  and  C_34
REMARK                            x       y       z     vdW  Elec       q    Type
REMARK                         _______ _______ _______ _____ _____    ______ ____
ROOT
ATOM      1  C   UNL     1       2.731   5.052  19.719  0.00  0.00    +0.000 A 
ATOM      2  S   UNL     1       3.799   4.042  18.818  0.00  0.00    +0.000 S 
ATOM      3  C   UNL     1       4.252   5.374  17.851  0.00  0.00    +0.000 A 
ATOM      4  N   UNL     1       3.706   6.516  18.197  0.00  0.00    +0.000 NA
ATOM      5  C   UNL     1       2.817   6.350  19.249  0.00  0.00    +0.000 A 
ENDROOT
BRANCH   5   6
ATOM      6  C   UNL     1       2.058   7.506  19.722  0.00  0.00    +0.000 A 
ATOM      7  C   UNL     1       1.559   7.585  21.026  0.00  0.00    +0.000 A 
ATOM      8  C   UNL     1       0.802   8.685  21.433  0.00  0.00    +0.000 A 
ATOM      9  C   UNL     1       0.519   9.722  20.546  0.00  0.00    +0.000 A 
ATOM     10  C   UNL     1       0.983   9.645  19.236  0.00  0.00    +0.000 A 
ATOM     11  C   UNL     1       1.747   8.542  18.828  0.00  0.00    +0.000 A 
BRANCH   9  12
ATOM     12  O   UNL     1      -0.262  10.718  21.063  0.00  0.00    +0.000 OA
ATOM     13  C   UNL     1      -0.625  10.577  22.430  0.00  0.00    +0.000 C 
ENDBRANCH   9  12
ENDBRANCH   5   6
BRANCH   3  14
ATOM     14  C   UNL     1       5.173   5.259  16.683  0.00  0.00    +0.000 A 
ATOM     15  C   UNL     1       4.939   4.504  15.558  0.00  0.00    +0.000 A 
ATOM     16  N   UNL     1       6.047   4.627  14.756  0.00  0.00    +0.000 N 
ATOM     17  N   UNL     1       6.976   5.438  15.315  0.00  0.00    +0.000 NA
ATOM     18  C   UNL     1       6.448   5.858  16.481  0.00  0.00    +0.000 A 
BRANCH  18  19
ATOM     19  C   UNL     1       7.166   6.820  17.323  0.00  0.00    +0.000 A 
ATOM     20  C   UNL     1       7.823   6.420  18.498  0.00  0.00    +0.000 A 
ATOM     21  C   UNL     1       8.580   7.326  19.243  0.00  0.00    +0.000 A 
ATOM     22  C   UNL     1       8.636   8.651  18.842  0.00  0.00    +0.000 A 
ATOM     23  F   UNL     1       9.367   9.523  19.548  0.00  0.00    +0.000 F 
ATOM     24  C   UNL     1       7.947   9.090  17.718  0.00  0.00    +0.000 A 
ATOM     25  C   UNL     1       7.211   8.176  16.958  0.00  0.00    +0.000 A 
ENDBRANCH  18  19
BRANCH  16  26
ATOM     26  C   UNL     1       6.270   4.014  13.490  0.00  0.00    +0.000 A 
ATOM     27  C   UNL     1       5.350   3.101  12.952  0.00  0.00    +0.000 A 
ATOM     28  C   UNL     1       5.588   2.517  11.705  0.00  0.00    +0.000 A 
ATOM     29  C   UNL     1       6.740   2.835  10.990  0.00  0.00    +0.000 A 
ATOM     30  C   UNL     1       7.660   3.739  11.518  0.00  0.00    +0.000 A 
ATOM     31  C   UNL     1       7.427   4.330  12.763  0.00  0.00    +0.000 A 
ENDBRANCH  16  26
ENDBRANCH   3  14
BRANCH   1  32
ATOM     32  C   UNL     1       2.016   4.493  20.835  0.00  0.00    +0.000 C 
ATOM     33  O   UNL     1       2.487   4.258  21.941  0.00  0.00    +0.000 OA
BRANCH  32  34
ATOM     34  O   UNL     1       0.729   4.217  20.475  0.00  0.00    +0.000 OA
BRANCH  34  36
ATOM     35  C   UNL     1       0.971   1.995  19.657  0.00  0.00    +0.000 C 
ATOM     36  C   UNL     1       0.589   3.419  19.296  0.00  0.00    +0.000 C 
ENDBRANCH  34  36
ENDBRANCH  32  34
ENDBRANCH   1  32
TORSDOF 8
ENDMDL
MODEL 7
REMARK VINA RESULT:      -7.4      6.600     10.340
REMARK  Name = 
REMARK  10 active torsions:
REMARK  status: ('A' for Active; 'I' for Inactive)
REMARK    1  A    between atoms: C_1  and  C_2
REMARK    2  A    between atoms: C_2  and  O_3
REMARK    3  A    between atoms: O_3  and  C_4
REMARK    4  A    between atoms: C_4  and  C_6
REMARK    5  A    between atoms: C_8  and  C_9
REMARK    6  A    between atoms: N_11  and  C_12
REMARK    7  A    between atoms: C_19  and  C_20
REMARK    8  A    between atoms: C_28  and  C_29
REMARK    9  A    between atoms: C_32  and  O_33
REMARK   10  A    between atoms: O_33  and  C_34
REMARK                            x       y       z     vdW  Elec       q    Type
REMARK                         _______ _______ _______ _____ _____    ______ ____
ROOT
ATOM      1  C   UNL     1       0.838   8.689  20.662  0.00  0.00    +0.000 A 
ATOM      2  S   UNL     1       1.574   7.130  20.707  0.00  0.00    +0.000 S 
ATOM      3  C   UNL     1       2.300   7.423  19.190  0.00  0.00    +0.000 A 
ATOM      4  N   UNL     1       2.076   8.616  18.694  0.00  0.00    +0.000 NA
ATOM      5  C   UNL     1       1.225   9.349  19.509  0.00  0.00    +0.000 A 
ENDROOT
BRANCH   5   6
ATOM      6  C   UNL     1       0.804  10.680  19.077  0.00  0.00    +0.000 A 
ATOM      7  C   UNL     1       1.653  11.789  19.148  0.00  0.00    +0.000 A 
ATOM      8  C   UNL     1       1.204  13.054  18.767  0.00  0.00    +0.000 A 
ATOM      9  C   UNL     1      -0.101  13.241  18.318  0.00  0.00    +0.000 A 
ATOM     10  C   UNL     1      -0.969  12.154  18.267  0.00  0.00    +0.000 A 
ATOM     11  C   UNL     1      -0.517  10.881  18.647  0.00  0.00    +0.000 A 
BRANCH   9  12
ATOM     12  O   UNL     1      -0.420  14.535  18.012  0.00  0.00    +0.000 OA
ATOM     13  C   UNL     1      -0.203  15.489  19.044  0.00  0.00    +0.000 C 
ENDBRANCH   9  12
ENDBRANCH   5   6
BRANCH   3  14
ATOM     14  C   UNL     1       3.106   6.401  18.462  0.00  0.00    +0.000 A 
ATOM     15  C   UNL     1       3.954   6.659  17.410  0.00  0.00    +0.000 A 
ATOM     16  N   UNL     1       4.455   5.450  16.994  0.00  0.00    +0.000 N 
ATOM     17  N   UNL     1       3.974   4.430  17.744  0.00  0.00    +0.000 NA
ATOM     18  C   UNL     1       3.171   4.994  18.665  0.00  0.00    +0.000 A 
BRANCH  18  19
ATOM     19  C   UNL     1       2.531   4.175  19.701  0.00  0.00    +0.000 A 
ATOM     20  C   UNL     1       1.174   3.819  19.620  0.00  0.00    +0.000 A 
ATOM     21  C   UNL     1       0.598   2.964  20.561  0.00  0.00    +0.000 A 
ATOM     22  C   UNL     1       1.367   2.506  21.619  0.00  0.00    +0.000 A 
ATOM     23  F   UNL     1       0.822   1.681  22.521  0.00  0.00    +0.000 F 
ATOM     24  C   UNL     1       2.695   2.891  21.760  0.00  0.00    +0.000 A 
ATOM     25  C   UNL     1       3.278   3.726  20.802  0.00  0.00    +0.000 A 
ENDBRANCH  18  19
BRANCH  16  26
ATOM     26  C   UNL     1       5.364   5.213  15.924  0.00  0.00    +0.000 A 
ATOM     27  C   UNL     1       6.661   5.750  15.939  0.00  0.00    +0.000 A 
ATOM     28  C   UNL     1       7.537   5.499  14.880  0.00  0.00    +0.000 A 
ATOM     29  C   UNL     1       7.128   4.718  13.801  0.00  0.00    +0.000 A 
ATOM     30  C   UNL     1       5.841   4.184  13.777  0.00  0.00    +0.000 A 
ATOM     31  C   UNL     1       4.961   4.427  14.835  0.00  0.00    +0.000 A 
ENDBRANCH  16  26
ENDBRANCH   3  14
BRANCH   1  32
ATOM     32  C   UNL     1       0.059   9.128  21.789  0.00  0.00    +0.000 C 
ATOM     33  O   UNL     1      -0.836   8.491  22.330  0.00  0.00    +0.000 OA
BRANCH  32  34
ATOM     34  O   UNL     1       0.431  10.389  22.152  0.00  0.00    +0.000 OA
BRANCH  34  36
ATOM     35  C   UNL     1      -1.055  12.235  21.933  0.00  0.00    +0.000 C 
ATOM     36  C   UNL     1      -0.567  11.134  22.857  0.00  0.00    +0.000 C 
ENDBRANCH  34  36
ENDBRANCH  32  34
ENDBRANCH   1  32
TORSDOF 8
ENDMDL
MODEL 8
REMARK VINA RESULT:      -7.3      0.771      1.221
REMARK  Name = 
REMARK  10 active torsions:
REMARK  status: ('A' for Active; 'I' for Inactive)
REMARK    1  A    between atoms: C_1  and  C_2
REMARK    2  A    between atoms: C_2  and  O_3
REMARK    3  A    between atoms: O_3  and  C_4
REMARK    4  A    between atoms: C_4  and  C_6
REMARK    5  A    between atoms: C_8  and  C_9
REMARK    6  A    between atoms: N_11  and  C_12
REMARK    7  A    between atoms: C_19  and  C_20
REMARK    8  A    between atoms: C_28  and  C_29
REMARK    9  A    between atoms: C_32  and  O_33
REMARK   10  A    between atoms: O_33  and  C_34
REMARK                            x       y       z     vdW  Elec       q    Type
REMARK                         _______ _______ _______ _____ _____    ______ ____
ROOT
ATOM      1  C   UNL     1      -5.172  12.155  19.620  0.00  0.00    +0.000 A 
ATOM      2  S   UNL     1      -4.960  12.901  21.160  0.00  0.00    +0.000 S 
ATOM      3  C   UNL     1      -3.265  12.867  20.949  0.00  0.00    +0.000 A 
ATOM      4  N   UNL     1      -2.865  12.395  19.793  0.00  0.00    +0.000 NA
ATOM      5  C   UNL     1      -3.937  11.963  19.026  0.00  0.00    +0.000 A 
ENDROOT
BRANCH   5   6
ATOM      6  C   UNL     1      -3.675  11.338  17.732  0.00  0.00    +0.000 A 
ATOM      7  C   UNL     1      -2.605  10.460  17.531  0.00  0.00    +0.000 A 
ATOM      8  C   UNL     1      -2.358   9.913  16.271  0.00  0.00    +0.000 A 
ATOM      9  C   UNL     1      -3.166  10.239  15.184  0.00  0.00    +0.000 A 
ATOM     10  C   UNL     1      -4.219  11.133  15.358  0.00  0.00    +0.000 A 
ATOM     11  C   UNL     1      -4.469  11.680  16.625  0.00  0.00    +0.000 A 
BRANCH   9  12
ATOM     12  O   UNL     1      -2.792   9.663  14.002  0.00  0.00    +0.000 OA
ATOM     13  C   UNL     1      -3.706   9.808  12.923  0.00  0.00    +0.000 C 
ENDBRANCH   9  12
ENDBRANCH   5   6
BRANCH   3  14
ATOM     14  C   UNL     1      -2.304  13.309  22.000  0.00  0.00    +0.000 A 
ATOM     15  C   UNL     1      -2.377  14.493  22.696  0.00  0.00    +0.000 A 
ATOM     16  N   UNL     1      -1.282  14.539  23.523  0.00  0.00    +0.000 N 
ATOM     17  N   UNL     1      -0.518  13.428  23.396  0.00  0.00    +0.000 NA
ATOM     18  C   UNL     1      -1.142  12.651  22.491  0.00  0.00    +0.000 A 
BRANCH  18  19
ATOM     19  C   UNL     1      -0.619  11.320  22.162  0.00  0.00    +0.000 A 
ATOM     20  C   UNL     1      -0.820  10.221  23.013  0.00  0.00    +0.000 A 
ATOM     21  C   UNL     1      -0.399   8.942  22.647  0.00  0.00    +0.000 A 
ATOM     22  C   UNL     1       0.276   8.769  21.448  0.00  0.00    +0.000 A 
ATOM     23  F   UNL     1       0.676   7.543  21.089  0.00  0.00    +0.000 F 
ATOM     24  C   UNL     1       0.542   9.847  20.614  0.00  0.00    +0.000 A 
ATOM     25  C   UNL     1       0.097  11.123  20.969  0.00  0.00    +0.000 A 
ENDBRANCH  18  19
BRANCH  16  26
ATOM     26  C   UNL     1      -0.923  15.581  24.425  0.00  0.00    +0.000 A 
ATOM     27  C   UNL     1      -0.032  16.597  24.046  0.00  0.00    +0.000 A 
ATOM     28  C   UNL     1       0.300  17.612  24.946  0.00  0.00    +0.000 A 
ATOM     29  C   UNL     1      -0.248  17.620  26.227  0.00  0.00    +0.000 A 
ATOM     30  C   UNL     1      -1.131  16.614  26.613  0.00  0.00    +0.000 A 
ATOM     31  C   UNL     1      -1.472  15.598  25.717  0.00  0.00    +0.000 A 
ENDBRANCH  16  26
ENDBRANCH   3  14
BRANCH   1  32
ATOM     32  C   UNL     1      -6.505  11.939  19.126  0.00  0.00    +0.000 C 
ATOM     33  O   UNL     1      -7.364  12.801  18.983  0.00  0.00    +0.000 OA
BRANCH  32  34
ATOM     34  O   UNL     1      -6.701  10.613  18.873  0.00  0.00    +0.000 OA
BRANCH  34  36
ATOM     35  C   UNL     1      -7.916  10.048  20.839  0.00  0.00    +0.000 C 
ATOM     36  C   UNL     1      -6.667   9.765  20.025  0.00  0.00    +0.000 C 
ENDBRANCH  34  36
ENDBRANCH  32  34
ENDBRANCH   1  32
TORSDOF 8
ENDMDL
MODEL 9
REMARK VINA RESULT:      -7.2      8.603     12.780
REMARK  Name = 
REMARK  10 active torsions:
REMARK  status: ('A' for Active; 'I' for Inactive)
REMARK    1  A    between atoms: C_1  and  C_2
REMARK    2  A    between atoms: C_2  and  O_3
REMARK    3  A    between atoms: O_3  and  C_4
REMARK    4  A    between atoms: C_4  and  C_6
REMARK    5  A    between atoms: C_8  and  C_9
REMARK    6  A    between atoms: N_11  and  C_12
REMARK    7  A    between atoms: C_19  and  C_20
REMARK    8  A    between atoms: C_28  and  C_29
REMARK    9  A    between atoms: C_32  and  O_33
REMARK   10  A    between atoms: O_33  and  C_34
REMARK                            x       y       z     vdW  Elec       q    Type
REMARK                         _______ _______ _______ _____ _____    ______ ____
ROOT
ATOM      1  C   UNL     1       2.380   5.082  19.292  0.00  0.00    +0.000 A 
ATOM      2  S   UNL     1       3.353   3.984  18.386  0.00  0.00    +0.000 S 
ATOM      3  C   UNL     1       4.061   5.293  17.549  0.00  0.00    +0.000 A 
ATOM      4  N   UNL     1       3.662   6.478  17.944  0.00  0.00    +0.000 NA
ATOM      5  C   UNL     1       2.686   6.380  18.925  0.00  0.00    +0.000 A 
ENDROOT
BRANCH   5   6
ATOM      6  C   UNL     1       2.069   7.603  19.434  0.00  0.00    +0.000 A 
ATOM      7  C   UNL     1       1.672   7.737  20.768  0.00  0.00    +0.000 A 
ATOM      8  C   UNL     1       1.048   8.904  21.212  0.00  0.00    +0.000 A 
ATOM      9  C   UNL     1       0.798   9.956  20.333  0.00  0.00    +0.000 A 
ATOM     10  C   UNL     1       1.161   9.829  18.995  0.00  0.00    +0.000 A 
ATOM     11  C   UNL     1       1.792   8.658  18.550  0.00  0.00    +0.000 A 
BRANCH   9  12
ATOM     12  O   UNL     1       0.149  11.022  20.890  0.00  0.00    +0.000 OA
ATOM     13  C   UNL     1       0.144  12.217  20.120  0.00  0.00    +0.000 C 
ENDBRANCH   9  12
ENDBRANCH   5   6
BRANCH   3  14
ATOM     14  C   UNL     1       5.036   5.116  16.435  0.00  0.00    +0.000 A 
ATOM     15  C   UNL     1       4.828   4.352  15.311  0.00  0.00    +0.000 A 
ATOM     16  N   UNL     1       5.982   4.412  14.567  0.00  0.00    +0.000 N 
ATOM     17  N   UNL     1       6.915   5.192  15.162  0.00  0.00    +0.000 NA
ATOM     18  C   UNL     1       6.345   5.655  16.291  0.00  0.00    +0.000 A 
BRANCH  18  19
ATOM     19  C   UNL     1       7.060   6.601  17.155  0.00  0.00    +0.000 A 
ATOM     20  C   UNL     1       7.705   6.179  18.329  0.00  0.00    +0.000 A 
ATOM     21  C   UNL     1       8.460   7.069  19.095  0.00  0.00    +0.000 A 
ATOM     22  C   UNL     1       8.524   8.401  18.716  0.00  0.00    +0.000 A 
ATOM     23  F   UNL     1       9.252   9.258  19.443  0.00  0.00    +0.000 F 
ATOM     24  C   UNL     1       7.846   8.860  17.594  0.00  0.00    +0.000 A 
ATOM     25  C   UNL     1       7.113   7.963  16.813  0.00  0.00    +0.000 A 
ENDBRANCH  18  19
BRANCH  16  26
ATOM     26  C   UNL     1       6.244   3.767  13.325  0.00  0.00    +0.000 A 
ATOM     27  C   UNL     1       7.458   3.957  12.648  0.00  0.00    +0.000 A 
ATOM     28  C   UNL     1       7.695   3.309  11.434  0.00  0.00    +0.000 A 
ATOM     29  C   UNL     1       6.726   2.472  10.885  0.00  0.00    +0.000 A 
ATOM     30  C   UNL     1       5.516   2.280  11.549  0.00  0.00    +0.000 A 
ATOM     31  C   UNL     1       5.274   2.921  12.766  0.00  0.00    +0.000 A 
ENDBRANCH  16  26
ENDBRANCH   3  14
BRANCH   1  32
ATOM     32  C   UNL     1       1.514   4.566  20.318  0.00  0.00    +0.000 C 
ATOM     33  O   UNL     1       0.301   4.425  20.225  0.00  0.00    +0.000 OA
BRANCH  32  34
ATOM     34  O   UNL     1       2.234   4.290  21.444  0.00  0.00    +0.000 OA
BRANCH  34  36
ATOM     35  C   UNL     1       1.367   2.214  22.217  0.00  0.00    +0.000 C 
ATOM     36  C   UNL     1       2.575   2.912  21.621  0.00  0.00    +0.000 C 
ENDBRANCH  34  36
ENDBRANCH  32  34
ENDBRANCH   1  32
TORSDOF 8
ENDMDL
