MODEL 1
REMARK VINA RESULT:      -7.7      0.000      0.000
REMARK  Name = 
REMARK  4 active torsions:
REMARK  status: ('A' for Active; 'I' for Inactive)
REMARK    1  A    between atoms: N_9  and  C_10
REMARK    2  A    between atoms: C_10  and  C_11
REMARK    3  A    between atoms: C_11  and  C_12
REMARK    4  A    between atoms: C_12  and  C_13
REMARK                            x       y       z     vdW  Elec       q    Type
REMARK                         _______ _______ _______ _____ _____    ______ ____
ROOT
ATOM      1  O   UNL     1       3.871   1.911  17.446  0.00  0.00    +0.000 OA
ATOM      2  C   UNL     1       3.685   3.083  17.752  0.00  0.00    +0.000 A 
ATOM      3  C   UNL     1       2.823   3.442  18.884  0.00  0.00    +0.000 A 
ATOM      4  C   UNL     1       2.184   2.397  19.575  0.00  0.00    +0.000 A 
ATOM      5  C   UNL     1       1.339   2.682  20.637  0.00  0.00    +0.000 A 
ATOM      6  C   UNL     1       1.109   4.007  20.975  0.00  0.00    +0.000 A 
ATOM      7  C   UNL     1       1.731   5.044  20.260  0.00  0.00    +0.000 A 
ATOM      8  C   UNL     1       2.638   4.799  19.215  0.00  0.00    +0.000 A 
ATOM      9  N   UNL     1       3.343   5.812  18.502  0.00  0.00    +0.000 N 
ATOM     10  C   UNL     1       4.143   5.504  17.363  0.00  0.00    +0.000 A 
ATOM     11  C   UNL     1       4.803   6.458  16.564  0.00  0.00    +0.000 A 
ATOM     12  C   UNL     1       5.559   6.093  15.434  0.00  0.00    +0.000 A 
ATOM     13  C   UNL     1       5.693   4.758  15.080  0.00  0.00    +0.000 A 
ATOM     14 CL   UNL     1       6.625   4.319  13.706  0.00  0.00    +0.000 Cl
ATOM     15  C   UNL     1       5.078   3.785  15.846  0.00  0.00    +0.000 A 
ATOM     16  C   UNL     1       4.322   4.160  16.970  0.00  0.00    +0.000 A 
ENDROOT
BRANCH   9  17
ATOM     17  C   UNL     1       3.008   7.230  18.782  0.00  0.00    +0.000 C 
BRANCH  17  18
ATOM     18  C   UNL     1       1.978   7.877  17.842  0.00  0.00    +0.000 C 
BRANCH  18  19
ATOM     19  C   UNL     1       1.878   9.401  17.858  0.00  0.00    +0.000 C 
BRANCH  19  20
ATOM     20  C   UNL     1       0.819   9.816  18.882  0.00  0.00    +0.000 C 
ATOM     21 CL   UNL     1      -0.737  10.155  18.101  0.00  0.00    +0.000 Cl
ENDBRANCH  19  20
ENDBRANCH  18  19
ENDBRANCH  17  18
ENDBRANCH   9  17
TORSDOF 4
ENDMDL
MODEL 2
REMARK VINA RESULT:      -7.4      2.290      4.614
REMARK  Name = 
REMARK  4 active torsions:
REMARK  status: ('A' for Active; 'I' for Inactive)
REMARK    1  A    between atoms: N_9  and  C_10
REMARK    2  A    between atoms: C_10  and  C_11
REMARK    3  A    between atoms: C_11  and  C_12
REMARK    4  A    between atoms: C_12  and  C_13
REMARK                            x       y       z     vdW  Elec       q    Type
REMARK                         _______ _______ _______ _____ _____    ______ ____
ROOT
ATOM      1  O   UNL     1       4.126   2.024  17.734  0.00  0.00    +0.000 OA
ATOM      2  C   UNL     1       3.980   3.240  17.788  0.00  0.00    +0.000 A 
ATOM      3  C   UNL     1       4.624   4.123  16.809  0.00  0.00    +0.000 A 
ATOM      4  C   UNL     1       5.448   3.529  15.836  0.00  0.00    +0.000 A 
ATOM      5  C   UNL     1       6.101   4.320  14.903  0.00  0.00    +0.000 A 
ATOM      6  C   UNL     1       5.957   5.697  14.971  0.00  0.00    +0.000 A 
ATOM      7  C   UNL     1       5.153   6.282  15.964  0.00  0.00    +0.000 A 
ATOM      8  C   UNL     1       4.429   5.516  16.894  0.00  0.00    +0.000 A 
ATOM      9  N   UNL     1       3.552   6.057  17.878  0.00  0.00    +0.000 N 
ATOM     10  C   UNL     1       2.954   5.235  18.878  0.00  0.00    +0.000 A 
ATOM     11  C   UNL     1       2.142   5.709  19.927  0.00  0.00    +0.000 A 
ATOM     12  C   UNL     1       1.602   4.850  20.902  0.00  0.00    +0.000 A 
ATOM     13  C   UNL     1       1.843   3.485  20.845  0.00  0.00    +0.000 A 
ATOM     14 CL   UNL     1       1.172   2.440  22.032  0.00  0.00    +0.000 Cl
ATOM     15  C   UNL     1       2.619   2.971  19.823  0.00  0.00    +0.000 A 
ATOM     16  C   UNL     1       3.158   3.839  18.856  0.00  0.00    +0.000 A 
ENDROOT
BRANCH   9  17
ATOM     17  C   UNL     1       3.489   7.531  18.029  0.00  0.00    +0.000 C 
BRANCH  17  18
ATOM     18  C   UNL     1       2.189   8.202  17.557  0.00  0.00    +0.000 C 
BRANCH  18  19
ATOM     19  C   UNL     1       1.959   9.653  17.974  0.00  0.00    +0.000 C 
BRANCH  19  20
ATOM     20  C   UNL     1       0.837   9.697  19.015  0.00  0.00    +0.000 C 
ATOM     21 CL   UNL     1      -0.697  10.214  18.288  0.00  0.00    +0.000 Cl
ENDBRANCH  19  20
ENDBRANCH  18  19
ENDBRANCH  17  18
ENDBRANCH   9  17
TORSDOF 4
ENDMDL
MODEL 3
REMARK VINA RESULT:      -7.2      2.565      6.452
REMARK  Name = 
REMARK  4 active torsions:
REMARK  status: ('A' for Active; 'I' for Inactive)
REMARK    1  A    between atoms: N_9  and  C_10
REMARK    2  A    between atoms: C_10  and  C_11
REMARK    3  A    between atoms: C_11  and  C_12
REMARK    4  A    between atoms: C_12  and  C_13
REMARK                            x       y       z     vdW  Elec       q    Type
REMARK                         _______ _______ _______ _____ _____    ______ ____
ROOT
ATOM      1  O   UNL     1       2.742   9.188  17.175  0.00  0.00    +0.000 OA
ATOM      2  C   UNL     1       2.662   8.284  17.999  0.00  0.00    +0.000 A 
ATOM      3  C   UNL     1       3.420   7.039  17.833  0.00  0.00    +0.000 A 
ATOM      4  C   UNL     1       4.205   6.902  16.674  0.00  0.00    +0.000 A 
ATOM      5  C   UNL     1       4.922   5.736  16.454  0.00  0.00    +0.000 A 
ATOM      6  C   UNL     1       4.819   4.702  17.373  0.00  0.00    +0.000 A 
ATOM      7  C   UNL     1       4.010   4.838  18.513  0.00  0.00    +0.000 A 
ATOM      8  C   UNL     1       3.312   6.024  18.803  0.00  0.00    +0.000 A 
ATOM      9  N   UNL     1       2.531   6.234  19.977  0.00  0.00    +0.000 N 
ATOM     10  C   UNL     1       1.738   7.408  20.144  0.00  0.00    +0.000 A 
ATOM     11  C   UNL     1       0.883   7.649  21.237  0.00  0.00    +0.000 A 
ATOM     12  C   UNL     1       0.104   8.817  21.334  0.00  0.00    +0.000 A 
ATOM     13  C   UNL     1       0.172   9.790  20.347  0.00  0.00    +0.000 A 
ATOM     14 CL   UNL     1      -0.773  11.218  20.475  0.00  0.00    +0.000 Cl
ATOM     15  C   UNL     1       1.012   9.605  19.264  0.00  0.00    +0.000 A 
ATOM     16  C   UNL     1       1.783   8.433  19.175  0.00  0.00    +0.000 A 
ENDROOT
BRANCH   9  17
ATOM     17  C   UNL     1       2.325   5.091  20.898  0.00  0.00    +0.000 C 
BRANCH  17  18
ATOM     18  C   UNL     1       1.148   4.160  20.563  0.00  0.00    +0.000 C 
BRANCH  18  19
ATOM     19  C   UNL     1       1.481   2.712  20.208  0.00  0.00    +0.000 C 
BRANCH  19  20
ATOM     20  C   UNL     1       1.028   2.439  18.771  0.00  0.00    +0.000 C 
ATOM     21 CL   UNL     1       2.396   1.974  17.742  0.00  0.00    +0.000 Cl
ENDBRANCH  19  20
ENDBRANCH  18  19
ENDBRANCH  17  18
ENDBRANCH   9  17
TORSDOF 4
ENDMDL
MODEL 4
REMARK VINA RESULT:      -7.2      2.586      4.846
REMARK  Name = 
REMARK  4 active torsions:
REMARK  status: ('A' for Active; 'I' for Inactive)
REMARK    1  A    between atoms: N_9  and  C_10
REMARK    2  A    between atoms: C_10  and  C_11
REMARK    3  A    between atoms: C_11  and  C_12
REMARK    4  A    between atoms: C_12  and  C_13
REMARK                            x       y       z     vdW  Elec       q    Type
REMARK                         _______ _______ _______ _____ _____    ______ ____
ROOT
ATOM      1  O   UNL     1       2.912   8.909  17.013  0.00  0.00    +0.000 OA
ATOM      2  C   UNL     1       2.798   8.054  17.884  0.00  0.00    +0.000 A 
ATOM      3  C   UNL     1       1.934   8.274  19.051  0.00  0.00    +0.000 A 
ATOM      4  C   UNL     1       1.280   9.515  19.154  0.00  0.00    +0.000 A 
ATOM      5  C   UNL     1       0.473   9.785  20.249  0.00  0.00    +0.000 A 
ATOM      6  C   UNL     1       0.356   8.831  21.248  0.00  0.00    +0.000 A 
ATOM      7  C   UNL     1       1.035   7.605  21.148  0.00  0.00    +0.000 A 
ATOM      8  C   UNL     1       1.818   7.268  20.030  0.00  0.00    +0.000 A 
ATOM      9  N   UNL     1       2.475   6.016  19.851  0.00  0.00    +0.000 N 
ATOM     10  C   UNL     1       3.364   5.789  18.760  0.00  0.00    +0.000 A 
ATOM     11  C   UNL     1       4.107   4.608  18.562  0.00  0.00    +0.000 A 
ATOM     12  C   UNL     1       4.990   4.453  17.479  0.00  0.00    +0.000 A 
ATOM     13  C   UNL     1       5.143   5.469  16.546  0.00  0.00    +0.000 A 
ATOM     14 CL   UNL     1       6.215   5.270  15.219  0.00  0.00    +0.000 Cl
ATOM     15  C   UNL     1       4.421   6.639  16.688  0.00  0.00    +0.000 A 
ATOM     16  C   UNL     1       3.544   6.786  17.778  0.00  0.00    +0.000 A 
ENDROOT
BRANCH   9  17
ATOM     17  C   UNL     1       2.448   5.043  20.970  0.00  0.00    +0.000 C 
BRANCH  17  18
ATOM     18  C   UNL     1       1.352   3.967  20.900  0.00  0.00    +0.000 C 
BRANCH  18  19
ATOM     19  C   UNL     1       1.804   2.508  20.896  0.00  0.00    +0.000 C 
BRANCH  19  20
ATOM     20  C   UNL     1       1.784   1.987  19.457  0.00  0.00    +0.000 C 
ATOM     21 CL   UNL     1       0.863   3.068  18.393  0.00  0.00    +0.000 Cl
ENDBRANCH  19  20
ENDBRANCH  18  19
ENDBRANCH  17  18
ENDBRANCH   9  17
TORSDOF 4
ENDMDL
MODEL 5
REMARK VINA RESULT:      -6.9      2.501      6.005
REMARK  Name = 
REMARK  4 active torsions:
REMARK  status: ('A' for Active; 'I' for Inactive)
REMARK    1  A    between atoms: N_9  and  C_10
REMARK    2  A    between atoms: C_10  and  C_11
REMARK    3  A    between atoms: C_11  and  C_12
REMARK    4  A    between atoms: C_12  and  C_13
REMARK                            x       y       z     vdW  Elec       q    Type
REMARK                         _______ _______ _______ _____ _____    ______ ____
ROOT
ATOM      1  O   UNL     1       3.635   8.077  16.962  0.00  0.00    +0.000 OA
ATOM      2  C   UNL     1       3.785   6.971  17.469  0.00  0.00    +0.000 A 
ATOM      3  C   UNL     1       4.627   5.953  16.830  0.00  0.00    +0.000 A 
ATOM      4  C   UNL     1       5.219   6.276  15.596  0.00  0.00    +0.000 A 
ATOM      5  C   UNL     1       6.003   5.342  14.936  0.00  0.00    +0.000 A 
ATOM      6  C   UNL     1       6.160   4.083  15.495  0.00  0.00    +0.000 A 
ATOM      7  C   UNL     1       5.542   3.762  16.715  0.00  0.00    +0.000 A 
ATOM      8  C   UNL     1       4.786   4.696  17.444  0.00  0.00    +0.000 A 
ATOM      9  N   UNL     1       4.193   4.439  18.715  0.00  0.00    +0.000 N 
ATOM     10  C   UNL     1       3.324   5.384  19.337  0.00  0.00    +0.000 A 
ATOM     11  C   UNL     1       2.642   5.169  20.551  0.00  0.00    +0.000 A 
ATOM     12  C   UNL     1       1.776   6.130  21.103  0.00  0.00    +0.000 A 
ATOM     13  C   UNL     1       1.580   7.347  20.465  0.00  0.00    +0.000 A 
ATOM     14 CL   UNL     1       0.530   8.521  21.148  0.00  0.00    +0.000 Cl
ATOM     15  C   UNL     1       2.243   7.611  19.280  0.00  0.00    +0.000 A 
ATOM     16  C   UNL     1       3.104   6.641  18.735  0.00  0.00    +0.000 A 
ENDROOT
BRANCH   9  17
ATOM     17  C   UNL     1       4.259   3.060  19.256  0.00  0.00    +0.000 C 
BRANCH  17  18
ATOM     18  C   UNL     1       3.181   2.087  18.753  0.00  0.00    +0.000 C 
BRANCH  18  19
ATOM     19  C   UNL     1       1.890   1.994  19.564  0.00  0.00    +0.000 C 
BRANCH  19  20
ATOM     20  C   UNL     1       0.711   2.365  18.661  0.00  0.00    +0.000 C 
ATOM     21 CL   UNL     1       1.093   3.767  17.644  0.00  0.00    +0.000 Cl
ENDBRANCH  19  20
ENDBRANCH  18  19
ENDBRANCH  17  18
ENDBRANCH   9  17
TORSDOF 4
ENDMDL
MODEL 6
REMARK VINA RESULT:      -6.7      2.778      5.224
REMARK  Name = 
REMARK  4 active torsions:
REMARK  status: ('A' for Active; 'I' for Inactive)
REMARK    1  A    between atoms: N_9  and  C_10
REMARK    2  A    between atoms: C_10  and  C_11
REMARK    3  A    between atoms: C_11  and  C_12
REMARK    4  A    between atoms: C_12  and  C_13
REMARK                            x       y       z     vdW  Elec       q    Type
REMARK                         _______ _______ _______ _____ _____    ______ ____
ROOT
ATOM      1  O   UNL     1       2.576   9.371  17.197  0.00  0.00    +0.000 OA
ATOM      2  C   UNL     1       2.493   8.473  18.026  0.00  0.00    +0.000 A 
ATOM      3  C   UNL     1       1.665   8.626  19.228  0.00  0.00    +0.000 A 
ATOM      4  C   UNL     1       1.007   9.855  19.415  0.00  0.00    +0.000 A 
ATOM      5  C   UNL     1       0.232  10.062  20.546  0.00  0.00    +0.000 A 
ATOM      6  C   UNL     1       0.151   9.057  21.498  0.00  0.00    +0.000 A 
ATOM      7  C   UNL     1       0.835   7.844  21.314  0.00  0.00    +0.000 A 
ATOM      8  C   UNL     1       1.585   7.571  20.157  0.00  0.00    +0.000 A 
ATOM      9  N   UNL     1       2.244   6.334  19.895  0.00  0.00    +0.000 N 
ATOM     10  C   UNL     1       3.101   6.170  18.767  0.00  0.00    +0.000 A 
ATOM     11  C   UNL     1       3.845   5.007  18.487  0.00  0.00    +0.000 A 
ATOM     12  C   UNL     1       4.695   4.914  17.370  0.00  0.00    +0.000 A 
ATOM     13  C   UNL     1       4.813   5.978  16.487  0.00  0.00    +0.000 A 
ATOM     14 CL   UNL     1       5.845   5.855  15.119  0.00  0.00    +0.000 Cl
ATOM     15  C   UNL     1       4.088   7.134  16.711  0.00  0.00    +0.000 A 
ATOM     16  C   UNL     1       3.244   7.217  17.832  0.00  0.00    +0.000 A 
ENDROOT
BRANCH   9  17
ATOM     17  C   UNL     1       2.258   5.305  20.963  0.00  0.00    +0.000 C 
BRANCH  17  18
ATOM     18  C   UNL     1       1.263   4.145  20.792  0.00  0.00    +0.000 C 
BRANCH  18  19
ATOM     19  C   UNL     1       1.750   2.746  21.164  0.00  0.00    +0.000 C 
BRANCH  19  20
ATOM     20  C   UNL     1       2.548   2.172  19.991  0.00  0.00    +0.000 C 
ATOM     21 CL   UNL     1       4.282   2.108  20.359  0.00  0.00    +0.000 Cl
ENDBRANCH  19  20
ENDBRANCH  18  19
ENDBRANCH  17  18
ENDBRANCH   9  17
TORSDOF 4
ENDMDL
MODEL 7
REMARK VINA RESULT:      -6.7      2.565      4.260
REMARK  Name = 
REMARK  4 active torsions:
REMARK  status: ('A' for Active; 'I' for Inactive)
REMARK    1  A    between atoms: N_9  and  C_10
REMARK    2  A    between atoms: C_10  and  C_11
REMARK    3  A    between atoms: C_11  and  C_12
REMARK    4  A    between atoms: C_12  and  C_13
REMARK                            x       y       z     vdW  Elec       q    Type
REMARK                         _______ _______ _______ _____ _____    ______ ____
ROOT
ATOM      1  O   UNL     1       3.847   7.882  16.353  0.00  0.00    +0.000 OA
ATOM      2  C   UNL     1       3.931   6.850  17.009  0.00  0.00    +0.000 A 
ATOM      3  C   UNL     1       3.214   6.701  18.281  0.00  0.00    +0.000 A 
ATOM      4  C   UNL     1       2.464   7.799  18.740  0.00  0.00    +0.000 A 
ATOM      5  C   UNL     1       1.787   7.721  19.947  0.00  0.00    +0.000 A 
ATOM      6  C   UNL     1       1.895   6.564  20.704  0.00  0.00    +0.000 A 
ATOM      7  C   UNL     1       2.670   5.484  20.249  0.00  0.00    +0.000 A 
ATOM      8  C   UNL     1       3.325   5.499  19.006  0.00  0.00    +0.000 A 
ATOM      9  N   UNL     1       4.070   4.407  18.471  0.00  0.00    +0.000 N 
ATOM     10  C   UNL     1       4.824   4.535  17.268  0.00  0.00    +0.000 A 
ATOM     11  C   UNL     1       5.643   3.528  16.723  0.00  0.00    +0.000 A 
ATOM     12  C   UNL     1       6.385   3.724  15.544  0.00  0.00    +0.000 A 
ATOM     13  C   UNL     1       6.315   4.931  14.863  0.00  0.00    +0.000 A 
ATOM     14 CL   UNL     1       7.216   5.161  13.418  0.00  0.00    +0.000 Cl
ATOM     15  C   UNL     1       5.509   5.943  15.350  0.00  0.00    +0.000 A 
ATOM     16  C   UNL     1       4.775   5.738  16.531  0.00  0.00    +0.000 A 
ENDROOT
BRANCH   9  17
ATOM     17  C   UNL     1       4.285   3.217  19.329  0.00  0.00    +0.000 C 
BRANCH  17  18
ATOM     18  C   UNL     1       3.235   2.100  19.206  0.00  0.00    +0.000 C 
BRANCH  18  19
ATOM     19  C   UNL     1       2.185   2.245  18.106  0.00  0.00    +0.000 C 
BRANCH  19  20
ATOM     20  C   UNL     1       0.830   2.545  18.752  0.00  0.00    +0.000 C 
ATOM     21 CL   UNL     1       0.971   2.673  20.516  0.00  0.00    +0.000 Cl
ENDBRANCH  19  20
ENDBRANCH  18  19
ENDBRANCH  17  18
ENDBRANCH   9  17
TORSDOF 4
ENDMDL
MODEL 8
REMARK VINA RESULT:      -6.6      2.317      5.377
REMARK  Name = 
REMARK  4 active torsions:
REMARK  status: ('A' for Active; 'I' for Inactive)
REMARK    1  A    between atoms: N_9  and  C_10
REMARK    2  A    between atoms: C_10  and  C_11
REMARK    3  A    between atoms: C_11  and  C_12
REMARK    4  A    between atoms: C_12  and  C_13
REMARK                            x       y       z     vdW  Elec       q    Type
REMARK                         _______ _______ _______ _____ _____    ______ ____
ROOT
ATOM      1  O   UNL     1       1.304   4.010  21.079  0.00  0.00    +0.000 OA
ATOM      2  C   UNL     1       1.922   4.507  20.145  0.00  0.00    +0.000 A 
ATOM      3  C   UNL     1       2.686   3.669  19.213  0.00  0.00    +0.000 A 
ATOM      4  C   UNL     1       2.720   2.285  19.456  0.00  0.00    +0.000 A 
ATOM      5  C   UNL     1       3.449   1.451  18.621  0.00  0.00    +0.000 A 
ATOM      6  C   UNL     1       4.167   2.010  17.575  0.00  0.00    +0.000 A 
ATOM      7  C   UNL     1       4.148   3.397  17.357  0.00  0.00    +0.000 A 
ATOM      8  C   UNL     1       3.378   4.272  18.144  0.00  0.00    +0.000 A 
ATOM      9  N   UNL     1       3.275   5.677  17.925  0.00  0.00    +0.000 N 
ATOM     10  C   UNL     1       2.588   6.526  18.842  0.00  0.00    +0.000 A 
ATOM     11  C   UNL     1       2.512   7.929  18.734  0.00  0.00    +0.000 A 
ATOM     12  C   UNL     1       1.840   8.717  19.686  0.00  0.00    +0.000 A 
ATOM     13  C   UNL     1       1.207   8.123  20.768  0.00  0.00    +0.000 A 
ATOM     14 CL   UNL     1       0.379   9.089  21.922  0.00  0.00    +0.000 Cl
ATOM     15  C   UNL     1       1.238   6.747  20.906  0.00  0.00    +0.000 A 
ATOM     16  C   UNL     1       1.916   5.969  19.950  0.00  0.00    +0.000 A 
ENDROOT
BRANCH   9  17
ATOM     17  C   UNL     1       4.134   6.290  16.883  0.00  0.00    +0.000 C 
BRANCH  17  18
ATOM     18  C   UNL     1       5.530   6.741  17.342  0.00  0.00    +0.000 C 
BRANCH  18  19
ATOM     19  C   UNL     1       6.732   6.016  16.738  0.00  0.00    +0.000 C 
BRANCH  19  20
ATOM     20  C   UNL     1       7.336   5.092  17.798  0.00  0.00    +0.000 C 
ATOM     21 CL   UNL     1       6.623   5.390  19.395  0.00  0.00    +0.000 Cl
ENDBRANCH  19  20
ENDBRANCH  18  19
ENDBRANCH  17  18
ENDBRANCH   9  17
TORSDOF 4
ENDMDL
MODEL 9
REMARK VINA RESULT:      -6.6      4.791      7.204
REMARK  Name = 
REMARK  4 active torsions:
REMARK  status: ('A' for Active; 'I' for Inactive)
REMARK    1  A    between atoms: N_9  and  C_10
REMARK    2  A    between atoms: C_10  and  C_11
REMARK    3  A    between atoms: C_11  and  C_12
REMARK    4  A    between atoms: C_12  and  C_13
REMARK                            x       y       z     vdW  Elec       q    Type
REMARK                         _______ _______ _______ _____ _____    ______ ____
ROOT
ATOM      1  O   UNL     1       0.669   8.921  22.626  0.00  0.00    +0.000 OA
ATOM      2  C   UNL     1       0.302   9.585  21.663  0.00  0.00    +0.000 A 
ATOM      3  C   UNL     1      -0.660  10.682  21.822  0.00  0.00    +0.000 A 
ATOM      4  C   UNL     1      -1.179  10.914  23.109  0.00  0.00    +0.000 A 
ATOM      5  C   UNL     1      -2.110  11.921  23.311  0.00  0.00    +0.000 A 
ATOM      6  C   UNL     1      -2.544  12.661  22.222  0.00  0.00    +0.000 A 
ATOM      7  C   UNL     1      -2.040  12.403  20.936  0.00  0.00    +0.000 A 
ATOM      8  C   UNL     1      -1.054  11.431  20.696  0.00  0.00    +0.000 A 
ATOM      9  N   UNL     1      -0.465  11.175  19.424  0.00  0.00    +0.000 N 
ATOM     10  C   UNL     1       0.430  10.083  19.222  0.00  0.00    +0.000 A 
ATOM     11  C   UNL     1       0.987   9.721  17.980  0.00  0.00    +0.000 A 
ATOM     12  C   UNL     1       1.845   8.615  17.839  0.00  0.00    +0.000 A 
ATOM     13  C   UNL     1       2.186   7.846  18.942  0.00  0.00    +0.000 A 
ATOM     14 CL   UNL     1       3.242   6.503  18.766  0.00  0.00    +0.000 Cl
ATOM     15  C   UNL     1       1.678   8.174  20.186  0.00  0.00    +0.000 A 
ATOM     16  C   UNL     1       0.818   9.279  20.315  0.00  0.00    +0.000 A 
ENDROOT
BRANCH   9  17
ATOM     17  C   UNL     1      -1.013  11.882  18.241  0.00  0.00    +0.000 C 
BRANCH  17  18
ATOM     18  C   UNL     1      -2.461  11.535  17.860  0.00  0.00    +0.000 C 
BRANCH  18  19
ATOM     19  C   UNL     1      -2.772  10.070  17.556  0.00  0.00    +0.000 C 
BRANCH  19  20
ATOM     20  C   UNL     1      -2.374   9.770  16.108  0.00  0.00    +0.000 C 
ATOM     21 CL   UNL     1      -3.530  10.477  14.962  0.00  0.00    +0.000 Cl
ENDBRANCH  19  20
ENDBRANCH  18  19
ENDBRANCH  17  18
ENDBRANCH   9  17
TORSDOF 4
ENDMDL
