MODEL 1
REMARK VINA RESULT:      -8.2      0.000      0.000
REMARK  Name = 
REMARK  7 active torsions:
REMARK  status: ('A' for Active; 'I' for Inactive)
REMARK    1  A    between atoms: C_1  and  C_2
REMARK    2  A    between atoms: C_2  and  O_3
REMARK    3  A    between atoms: O_3  and  C_4
REMARK    4  A    between atoms: C_4  and  C_6
REMARK    5  A    between atoms: C_9  and  N_10
REMARK    6  A    between atoms: N_10  and  C_11
REMARK    7  A    between atoms: N_20  and  C_21
REMARK                            x       y       z     vdW  Elec       q    Type
REMARK                         _______ _______ _______ _____ _____    ______ ____
ROOT
ATOM      1  C   UNL     1       3.151   5.539  18.290  0.00  0.00    +0.000 C 
ATOM      2  C   UNL     1       2.364   4.285  18.559  0.00  0.00    +0.000 A 
ATOM      3  C   UNL     1       1.113   4.085  19.118  0.00  0.00    +0.000 A 
ATOM      4  C   UNL     1       0.626   2.775  19.209  0.00  0.00    +0.000 A 
ATOM      5  C   UNL     1       1.376   1.690  18.722  0.00  0.00    +0.000 A 
ATOM      6  C   UNL     1       2.640   1.897  18.168  0.00  0.00    +0.000 A 
ATOM      7  C   UNL     1       3.107   3.197  18.112  0.00  0.00    +0.000 A 
ATOM      8  C   UNL     1       4.432   3.676  17.710  0.00  0.00    +0.000 C 
ATOM      9  O   UNL     1       5.264   2.916  17.253  0.00  0.00    +0.000 OA
ATOM     10  N   UNL     1       4.483   5.047  17.982  0.00  0.00    +0.000 N 
ENDROOT
BRANCH  10  11
ATOM     11  C   UNL     1       5.642   5.870  17.852  0.00  0.00    +0.000 A 
ATOM     12  C   UNL     1       6.760   5.700  18.674  0.00  0.00    +0.000 A 
ATOM     13  C   UNL     1       7.843   6.579  18.605  0.00  0.00    +0.000 A 
ATOM     14  C   UNL     1       7.792   7.621  17.701  0.00  0.00    +0.000 A 
ATOM     15  N   UNL     1       6.765   7.811  16.857  0.00  0.00    +0.000 NA
ATOM     16  C   UNL     1       5.730   6.932  16.945  0.00  0.00    +0.000 A 
ENDBRANCH  10  11
BRANCH   1  17
ATOM     17  N   UNL     1       3.145   6.421  19.430  0.00  0.00    +0.000 N 
ATOM     18  H   UNL     1       3.351   5.976  20.319  0.00  0.00    +0.000 HD
BRANCH  17  22
ATOM     19  C   UNL     1       0.710   9.862  19.464  0.00  0.00    +0.000 A 
ATOM     20  C   UNL     1       0.799   9.070  20.608  0.00  0.00    +0.000 A 
ATOM     21  C   UNL     1       1.604   7.930  20.613  0.00  0.00    +0.000 A 
ATOM     22  C   UNL     1       2.363   7.566  19.493  0.00  0.00    +0.000 A 
ATOM     23  C   UNL     1       2.201   8.328  18.327  0.00  0.00    +0.000 A 
ATOM     24  C   UNL     1       1.387   9.467  18.307  0.00  0.00    +0.000 A 
BRANCH  19  25
ATOM     25  C   UNL     1      -0.144  11.072  19.532  0.00  0.00    +0.000 C 
ATOM     26  O   UNL     1       0.270  12.170  19.872  0.00  0.00    +0.000 OA
BRANCH  25  27
ATOM     27  O   UNL     1      -1.428  10.754  19.240  0.00  0.00    +0.000 OA
BRANCH  27  29
ATOM     28  C   UNL     1      -2.144  10.026  17.087  0.00  0.00    +0.000 C 
ATOM     29  C   UNL     1      -1.887  11.232  17.972  0.00  0.00    +0.000 C 
ENDBRANCH  27  29
ENDBRANCH  25  27
ENDBRANCH  19  25
ENDBRANCH  17  22
ENDBRANCH   1  17
TORSDOF 6
ENDMDL
MODEL 2
REMARK VINA RESULT:      -8.0      1.027      1.382
REMARK  Name = 
REMARK  7 active torsions:
REMARK  status: ('A' for Active; 'I' for Inactive)
REMARK    1  A    between atoms: C_1  and  C_2
REMARK    2  A    between atoms: C_2  and  O_3
REMARK    3  A    between atoms: O_3  and  C_4
REMARK    4  A    between atoms: C_4  and  C_6
REMARK    5  A    between atoms: C_9  and  N_10
REMARK    6  A    between atoms: N_10  and  C_11
REMARK    7  A    between atoms: N_20  and  C_21
REMARK                            x       y       z     vdW  Elec       q    Type
REMARK                         _______ _______ _______ _____ _____    ______ ____
ROOT
ATOM      1  C   UNL     1       3.191   5.702  18.871  0.00  0.00    +0.000 C 
ATOM      2  C   UNL     1       2.437   4.615  19.586  0.00  0.00    +0.000 A 
ATOM      3  C   UNL     1       1.194   4.604  20.195  0.00  0.00    +0.000 A 
ATOM      4  C   UNL     1       0.740   3.406  20.762  0.00  0.00    +0.000 A 
ATOM      5  C   UNL     1       1.515   2.236  20.693  0.00  0.00    +0.000 A 
ATOM      6  C   UNL     1       2.770   2.255  20.085  0.00  0.00    +0.000 A 
ATOM      7  C   UNL     1       3.205   3.455  19.556  0.00  0.00    +0.000 A 
ATOM      8  C   UNL     1       4.516   3.784  18.990  0.00  0.00    +0.000 C 
ATOM      9  O   UNL     1       5.365   2.928  18.830  0.00  0.00    +0.000 OA
ATOM     10  N   UNL     1       4.534   5.161  18.744  0.00  0.00    +0.000 N 
ENDROOT
BRANCH  10  11
ATOM     11  C   UNL     1       5.671   5.906  18.310  0.00  0.00    +0.000 A 
ATOM     12  C   UNL     1       6.890   5.851  18.992  0.00  0.00    +0.000 A 
ATOM     13  C   UNL     1       7.962   6.665  18.617  0.00  0.00    +0.000 A 
ATOM     14  C   UNL     1       7.796   7.524  17.549  0.00  0.00    +0.000 A 
ATOM     15  N   UNL     1       6.664   7.591  16.828  0.00  0.00    +0.000 NA
ATOM     16  C   UNL     1       5.643   6.779  17.217  0.00  0.00    +0.000 A 
ENDBRANCH  10  11
BRANCH   1  17
ATOM     17  N   UNL     1       3.168   6.938  19.612  0.00  0.00    +0.000 N 
ATOM     18  H   UNL     1       3.591   6.893  20.534  0.00  0.00    +0.000 HD
BRANCH  17  22
ATOM     19  C   UNL     1       0.218   9.927  19.251  0.00  0.00    +0.000 A 
ATOM     20  C   UNL     1       0.979   9.572  18.138  0.00  0.00    +0.000 A 
ATOM     21  C   UNL     1       1.956   8.582  18.242  0.00  0.00    +0.000 A 
ATOM     22  C   UNL     1       2.181   7.900  19.444  0.00  0.00    +0.000 A 
ATOM     23  C   UNL     1       1.464   8.323  20.572  0.00  0.00    +0.000 A 
ATOM     24  C   UNL     1       0.489   9.323  20.482  0.00  0.00    +0.000 A 
BRANCH  19  25
ATOM     25  C   UNL     1      -0.820  10.970  19.069  0.00  0.00    +0.000 C 
ATOM     26  O   UNL     1      -1.252  11.656  19.983  0.00  0.00    +0.000 OA
BRANCH  25  27
ATOM     27  O   UNL     1      -1.249  10.983  17.784  0.00  0.00    +0.000 OA
BRANCH  27  29
ATOM     28  C   UNL     1      -3.233   9.690  17.518  0.00  0.00    +0.000 C 
ATOM     29  C   UNL     1      -2.668  11.093  17.630  0.00  0.00    +0.000 C 
ENDBRANCH  27  29
ENDBRANCH  25  27
ENDBRANCH  19  25
ENDBRANCH  17  22
ENDBRANCH   1  17
TORSDOF 6
ENDMDL
MODEL 3
REMARK VINA RESULT:      -8.0      1.560      2.138
REMARK  Name = 
REMARK  7 active torsions:
REMARK  status: ('A' for Active; 'I' for Inactive)
REMARK    1  A    between atoms: C_1  and  C_2
REMARK    2  A    between atoms: C_2  and  O_3
REMARK    3  A    between atoms: O_3  and  C_4
REMARK    4  A    between atoms: C_4  and  C_6
REMARK    5  A    between atoms: C_9  and  N_10
REMARK    6  A    between atoms: N_10  and  C_11
REMARK    7  A    between atoms: N_20  and  C_21
REMARK                            x       y       z     vdW  Elec       q    Type
REMARK                         _______ _______ _______ _____ _____    ______ ____
ROOT
ATOM      1  C   UNL     1       2.970   4.960  17.819  0.00  0.00    +0.000 C 
ATOM      2  C   UNL     1       2.244   4.206  18.899  0.00  0.00    +0.000 A 
ATOM      3  C   UNL     1       1.304   4.610  19.832  0.00  0.00    +0.000 A 
ATOM      4  C   UNL     1       0.778   3.650  20.706  0.00  0.00    +0.000 A 
ATOM      5  C   UNL     1       1.173   2.304  20.623  0.00  0.00    +0.000 A 
ATOM      6  C   UNL     1       2.127   1.904  19.687  0.00  0.00    +0.000 A 
ATOM      7  C   UNL     1       2.649   2.876  18.853  0.00  0.00    +0.000 A 
ATOM      8  C   UNL     1       3.743   2.760  17.886  0.00  0.00    +0.000 C 
ATOM      9  O   UNL     1       4.255   1.684  17.641  0.00  0.00    +0.000 OA
ATOM     10  N   UNL     1       4.021   4.045  17.409  0.00  0.00    +0.000 N 
ENDROOT
BRANCH  10  11
ATOM     11  C   UNL     1       5.102   4.387  16.542  0.00  0.00    +0.000 A 
ATOM     12  C   UNL     1       4.931   4.486  15.158  0.00  0.00    +0.000 A 
ATOM     13  C   UNL     1       6.020   4.719  14.314  0.00  0.00    +0.000 A 
ATOM     14  C   UNL     1       7.273   4.858  14.875  0.00  0.00    +0.000 A 
ATOM     15  N   UNL     1       7.493   4.815  16.200  0.00  0.00    +0.000 NA
ATOM     16  C   UNL     1       6.410   4.594  16.994  0.00  0.00    +0.000 A 
ENDBRANCH  10  11
BRANCH   1  17
ATOM     17  N   UNL     1       3.495   6.211  18.307  0.00  0.00    +0.000 N 
ATOM     18  H   UNL     1       4.323   6.130  18.889  0.00  0.00    +0.000 HD
BRANCH  17  22
ATOM     19  C   UNL     1       1.151   9.610  19.159  0.00  0.00    +0.000 A 
ATOM     20  C   UNL     1       1.698   9.452  17.886  0.00  0.00    +0.000 A 
ATOM     21  C   UNL     1       2.473   8.330  17.588  0.00  0.00    +0.000 A 
ATOM     22  C   UNL     1       2.698   7.324  18.537  0.00  0.00    +0.000 A 
ATOM     23  C   UNL     1       2.209   7.537  19.834  0.00  0.00    +0.000 A 
ATOM     24  C   UNL     1       1.440   8.665  20.147  0.00  0.00    +0.000 A 
BRANCH  19  25
ATOM     25  C   UNL     1       0.319  10.812  19.403  0.00  0.00    +0.000 C 
ATOM     26  O   UNL     1       0.295  11.408  20.470  0.00  0.00    +0.000 OA
BRANCH  25  27
ATOM     27  O   UNL     1      -0.440  11.085  18.315  0.00  0.00    +0.000 OA
BRANCH  27  29
ATOM     28  C   UNL     1      -2.075   9.899  17.050  0.00  0.00    +0.000 C 
ATOM     29  C   UNL     1      -1.775  10.573  18.376  0.00  0.00    +0.000 C 
ENDBRANCH  27  29
ENDBRANCH  25  27
ENDBRANCH  19  25
ENDBRANCH  17  22
ENDBRANCH   1  17
TORSDOF 6
ENDMDL
MODEL 4
REMARK VINA RESULT:      -7.9      0.877      1.308
REMARK  Name = 
REMARK  7 active torsions:
REMARK  status: ('A' for Active; 'I' for Inactive)
REMARK    1  A    between atoms: C_1  and  C_2
REMARK    2  A    between atoms: C_2  and  O_3
REMARK    3  A    between atoms: O_3  and  C_4
REMARK    4  A    between atoms: C_4  and  C_6
REMARK    5  A    between atoms: C_9  and  N_10
REMARK    6  A    between atoms: N_10  and  C_11
REMARK    7  A    between atoms: N_20  and  C_21
REMARK                            x       y       z     vdW  Elec       q    Type
REMARK                         _______ _______ _______ _____ _____    ______ ____
ROOT
ATOM      1  C   UNL     1       3.127   5.547  18.315  0.00  0.00    +0.000 C 
ATOM      2  C   UNL     1       2.337   4.295  18.577  0.00  0.00    +0.000 A 
ATOM      3  C   UNL     1       1.091   4.094  19.148  0.00  0.00    +0.000 A 
ATOM      4  C   UNL     1       0.599   2.785  19.228  0.00  0.00    +0.000 A 
ATOM      5  C   UNL     1       1.337   1.703  18.718  0.00  0.00    +0.000 A 
ATOM      6  C   UNL     1       2.595   1.911  18.152  0.00  0.00    +0.000 A 
ATOM      7  C   UNL     1       3.068   3.209  18.107  0.00  0.00    +0.000 A 
ATOM      8  C   UNL     1       4.391   3.686  17.695  0.00  0.00    +0.000 C 
ATOM      9  O   UNL     1       5.213   2.927  17.218  0.00  0.00    +0.000 OA
ATOM     10  N   UNL     1       4.453   5.053  17.984  0.00  0.00    +0.000 N 
ENDROOT
BRANCH  10  11
ATOM     11  C   UNL     1       5.614   5.872  17.851  0.00  0.00    +0.000 A 
ATOM     12  C   UNL     1       6.726   5.710  18.683  0.00  0.00    +0.000 A 
ATOM     13  C   UNL     1       7.812   6.586  18.610  0.00  0.00    +0.000 A 
ATOM     14  C   UNL     1       7.770   7.615  17.691  0.00  0.00    +0.000 A 
ATOM     15  N   UNL     1       6.749   7.796  16.836  0.00  0.00    +0.000 NA
ATOM     16  C   UNL     1       5.711   6.921  16.929  0.00  0.00    +0.000 A 
ENDBRANCH  10  11
BRANCH   1  17
ATOM     17  N   UNL     1       3.140   6.415  19.466  0.00  0.00    +0.000 N 
ATOM     18  H   UNL     1       3.362   5.958  20.345  0.00  0.00    +0.000 HD
BRANCH  17  22
ATOM     19  C   UNL     1       0.704   9.853  19.586  0.00  0.00    +0.000 A 
ATOM     20  C   UNL     1       0.793   9.033  20.710  0.00  0.00    +0.000 A 
ATOM     21  C   UNL     1       1.599   7.894  20.686  0.00  0.00    +0.000 A 
ATOM     22  C   UNL     1       2.357   7.558  19.557  0.00  0.00    +0.000 A 
ATOM     23  C   UNL     1       2.194   8.348  18.410  0.00  0.00    +0.000 A 
ATOM     24  C   UNL     1       1.380   9.486  18.419  0.00  0.00    +0.000 A 
BRANCH  19  25
ATOM     25  C   UNL     1      -0.151  11.061  19.683  0.00  0.00    +0.000 C 
ATOM     26  O   UNL     1      -1.007  11.211  20.542  0.00  0.00    +0.000 OA
BRANCH  25  27
ATOM     27  O   UNL     1       0.112  11.904  18.656  0.00  0.00    +0.000 OA
BRANCH  27  29
ATOM     28  C   UNL     1       2.030  13.242  18.202  0.00  0.00    +0.000 C 
ATOM     29  C   UNL     1       0.768  13.118  19.034  0.00  0.00    +0.000 C 
ENDBRANCH  27  29
ENDBRANCH  25  27
ENDBRANCH  19  25
ENDBRANCH  17  22
ENDBRANCH   1  17
TORSDOF 6
ENDMDL
MODEL 5
REMARK VINA RESULT:      -7.9      0.991      1.492
REMARK  Name = 
REMARK  7 active torsions:
REMARK  status: ('A' for Active; 'I' for Inactive)
REMARK    1  A    between atoms: C_1  and  C_2
REMARK    2  A    between atoms: C_2  and  O_3
REMARK    3  A    between atoms: O_3  and  C_4
REMARK    4  A    between atoms: C_4  and  C_6
REMARK    5  A    between atoms: C_9  and  N_10
REMARK    6  A    between atoms: N_10  and  C_11
REMARK    7  A    between atoms: N_20  and  C_21
REMARK                            x       y       z     vdW  Elec       q    Type
REMARK                         _______ _______ _______ _____ _____    ______ ____
ROOT
ATOM      1  C   UNL     1       3.146   5.553  18.339  0.00  0.00    +0.000 C 
ATOM      2  C   UNL     1       2.358   4.298  18.597  0.00  0.00    +0.000 A 
ATOM      3  C   UNL     1       1.116   4.092  19.173  0.00  0.00    +0.000 A 
ATOM      4  C   UNL     1       0.625   2.782  19.248  0.00  0.00    +0.000 A 
ATOM      5  C   UNL     1       1.362   1.704  18.728  0.00  0.00    +0.000 A 
ATOM      6  C   UNL     1       2.617   1.917  18.157  0.00  0.00    +0.000 A 
ATOM      7  C   UNL     1       3.088   3.215  18.118  0.00  0.00    +0.000 A 
ATOM      8  C   UNL     1       4.408   3.697  17.702  0.00  0.00    +0.000 C 
ATOM      9  O   UNL     1       5.230   2.942  17.217  0.00  0.00    +0.000 OA
ATOM     10  N   UNL     1       4.471   5.062  17.999  0.00  0.00    +0.000 N 
ENDROOT
BRANCH  10  11
ATOM     11  C   UNL     1       5.630   5.883  17.865  0.00  0.00    +0.000 A 
ATOM     12  C   UNL     1       6.751   5.711  18.684  0.00  0.00    +0.000 A 
ATOM     13  C   UNL     1       7.835   6.588  18.612  0.00  0.00    +0.000 A 
ATOM     14  C   UNL     1       7.784   7.629  17.707  0.00  0.00    +0.000 A 
ATOM     15  N   UNL     1       6.754   7.821  16.866  0.00  0.00    +0.000 NA
ATOM     16  C   UNL     1       5.718   6.944  16.957  0.00  0.00    +0.000 A 
ENDBRANCH  10  11
BRANCH   1  17
ATOM     17  N   UNL     1       3.163   6.414  19.496  0.00  0.00    +0.000 N 
ATOM     18  H   UNL     1       3.425   5.959  20.365  0.00  0.00    +0.000 HD
BRANCH  17  22
ATOM     19  C   UNL     1       0.623   9.772  19.706  0.00  0.00    +0.000 A 
ATOM     20  C   UNL     1       0.752   8.935  20.814  0.00  0.00    +0.000 A 
ATOM     21  C   UNL     1       1.592   7.822  20.760  0.00  0.00    +0.000 A 
ATOM     22  C   UNL     1       2.346   7.530  19.617  0.00  0.00    +0.000 A 
ATOM     23  C   UNL     1       2.145   8.335  18.486  0.00  0.00    +0.000 A 
ATOM     24  C   UNL     1       1.297   9.447  18.525  0.00  0.00    +0.000 A 
BRANCH  19  25
ATOM     25  C   UNL     1      -0.267  10.950  19.836  0.00  0.00    +0.000 C 
ATOM     26  O   UNL     1      -0.406  11.788  18.958  0.00  0.00    +0.000 OA
BRANCH  25  27
ATOM     27  O   UNL     1      -0.820  10.984  21.072  0.00  0.00    +0.000 OA
BRANCH  27  29
ATOM     28  C   UNL     1      -1.498  12.146  23.039  0.00  0.00    +0.000 C 
ATOM     29  C   UNL     1      -0.760  12.260  21.718  0.00  0.00    +0.000 C 
ENDBRANCH  27  29
ENDBRANCH  25  27
ENDBRANCH  19  25
ENDBRANCH  17  22
ENDBRANCH   1  17
TORSDOF 6
ENDMDL
MODEL 6
REMARK VINA RESULT:      -7.9      1.064      1.115
REMARK  Name = 
REMARK  7 active torsions:
REMARK  status: ('A' for Active; 'I' for Inactive)
REMARK    1  A    between atoms: C_1  and  C_2
REMARK    2  A    between atoms: C_2  and  O_3
REMARK    3  A    between atoms: O_3  and  C_4
REMARK    4  A    between atoms: C_4  and  C_6
REMARK    5  A    between atoms: C_9  and  N_10
REMARK    6  A    between atoms: N_10  and  C_11
REMARK    7  A    between atoms: N_20  and  C_21
REMARK                            x       y       z     vdW  Elec       q    Type
REMARK                         _______ _______ _______ _____ _____    ______ ____
ROOT
ATOM      1  C   UNL     1       3.204   5.685  18.926  0.00  0.00    +0.000 C 
ATOM      2  C   UNL     1       2.448   4.601  19.644  0.00  0.00    +0.000 A 
ATOM      3  C   UNL     1       1.206   4.595  20.258  0.00  0.00    +0.000 A 
ATOM      4  C   UNL     1       0.750   3.399  20.827  0.00  0.00    +0.000 A 
ATOM      5  C   UNL     1       1.521   2.226  20.756  0.00  0.00    +0.000 A 
ATOM      6  C   UNL     1       2.775   2.240  20.144  0.00  0.00    +0.000 A 
ATOM      7  C   UNL     1       3.211   3.439  19.612  0.00  0.00    +0.000 A 
ATOM      8  C   UNL     1       4.522   3.762  19.042  0.00  0.00    +0.000 C 
ATOM      9  O   UNL     1       5.368   2.903  18.880  0.00  0.00    +0.000 OA
ATOM     10  N   UNL     1       4.544   5.139  18.796  0.00  0.00    +0.000 N 
ENDROOT
BRANCH  10  11
ATOM     11  C   UNL     1       5.682   5.880  18.357  0.00  0.00    +0.000 A 
ATOM     12  C   UNL     1       6.903   5.821  19.036  0.00  0.00    +0.000 A 
ATOM     13  C   UNL     1       7.977   6.631  18.657  0.00  0.00    +0.000 A 
ATOM     14  C   UNL     1       7.811   7.489  17.589  0.00  0.00    +0.000 A 
ATOM     15  N   UNL     1       6.677   7.560  16.871  0.00  0.00    +0.000 NA
ATOM     16  C   UNL     1       5.654   6.752  17.263  0.00  0.00    +0.000 A 
ENDBRANCH  10  11
BRANCH   1  17
ATOM     17  N   UNL     1       3.187   6.921  19.667  0.00  0.00    +0.000 N 
ATOM     18  H   UNL     1       3.540   6.857  20.617  0.00  0.00    +0.000 HD
BRANCH  17  22
ATOM     19  C   UNL     1       0.334   9.902  18.804  0.00  0.00    +0.000 A 
ATOM     20  C   UNL     1       0.461   9.427  20.109  0.00  0.00    +0.000 A 
ATOM     21  C   UNL     1       1.404   8.444  20.410  0.00  0.00    +0.000 A 
ATOM     22  C   UNL     1       2.263   7.930  19.430  0.00  0.00    +0.000 A 
ATOM     23  C   UNL     1       2.068   8.359  18.110  0.00  0.00    +0.000 A 
ATOM     24  C   UNL     1       1.118   9.338  17.794  0.00  0.00    +0.000 A 
BRANCH  19  25
ATOM     25  C   UNL     1      -0.670  10.964  18.555  0.00  0.00    +0.000 C 
ATOM     26  O   UNL     1      -0.382  12.145  18.425  0.00  0.00    +0.000 OA
BRANCH  25  27
ATOM     27  O   UNL     1      -1.919  10.440  18.572  0.00  0.00    +0.000 OA
BRANCH  27  29
ATOM     28  C   UNL     1      -3.596  10.846  16.929  0.00  0.00    +0.000 C 
ATOM     29  C   UNL     1      -2.396   9.994  17.299  0.00  0.00    +0.000 C 
ENDBRANCH  27  29
ENDBRANCH  25  27
ENDBRANCH  19  25
ENDBRANCH  17  22
ENDBRANCH   1  17
TORSDOF 6
ENDMDL
MODEL 7
REMARK VINA RESULT:      -7.8      1.713      2.386
REMARK  Name = 
REMARK  7 active torsions:
REMARK  status: ('A' for Active; 'I' for Inactive)
REMARK    1  A    between atoms: C_1  and  C_2
REMARK    2  A    between atoms: C_2  and  O_3
REMARK    3  A    between atoms: O_3  and  C_4
REMARK    4  A    between atoms: C_4  and  C_6
REMARK    5  A    between atoms: C_9  and  N_10
REMARK    6  A    between atoms: N_10  and  C_11
REMARK    7  A    between atoms: N_20  and  C_21
REMARK                            x       y       z     vdW  Elec       q    Type
REMARK                         _______ _______ _______ _____ _____    ______ ____
ROOT
ATOM      1  C   UNL     1       2.999   5.013  17.847  0.00  0.00    +0.000 C 
ATOM      2  C   UNL     1       2.268   4.262  18.925  0.00  0.00    +0.000 A 
ATOM      3  C   UNL     1       1.346   4.674  19.872  0.00  0.00    +0.000 A 
ATOM      4  C   UNL     1       0.807   3.715  20.740  0.00  0.00    +0.000 A 
ATOM      5  C   UNL     1       1.173   2.362  20.637  0.00  0.00    +0.000 A 
ATOM      6  C   UNL     1       2.109   1.953  19.686  0.00  0.00    +0.000 A 
ATOM      7  C   UNL     1       2.643   2.924  18.859  0.00  0.00    +0.000 A 
ATOM      8  C   UNL     1       3.725   2.796  17.879  0.00  0.00    +0.000 C 
ATOM      9  O   UNL     1       4.211   1.712  17.616  0.00  0.00    +0.000 OA
ATOM     10  N   UNL     1       4.026   4.080  17.415  0.00  0.00    +0.000 N 
ENDROOT
BRANCH  10  11
ATOM     11  C   UNL     1       5.106   4.409  16.542  0.00  0.00    +0.000 A 
ATOM     12  C   UNL     1       4.932   4.492  15.157  0.00  0.00    +0.000 A 
ATOM     13  C   UNL     1       6.019   4.712  14.308  0.00  0.00    +0.000 A 
ATOM     14  C   UNL     1       7.274   4.856  14.865  0.00  0.00    +0.000 A 
ATOM     15  N   UNL     1       7.497   4.829  16.189  0.00  0.00    +0.000 NA
ATOM     16  C   UNL     1       6.415   4.619  16.988  0.00  0.00    +0.000 A 
ENDBRANCH  10  11
BRANCH   1  17
ATOM     17  N   UNL     1       3.556   6.246  18.345  0.00  0.00    +0.000 N 
ATOM     18  H   UNL     1       4.417   6.145  18.874  0.00  0.00    +0.000 HD
BRANCH  17  22
ATOM     19  C   UNL     1       1.111   9.584  19.151  0.00  0.00    +0.000 A 
ATOM     20  C   UNL     1       1.392   8.674  20.169  0.00  0.00    +0.000 A 
ATOM     21  C   UNL     1       2.203   7.567  19.918  0.00  0.00    +0.000 A 
ATOM     22  C   UNL     1       2.778   7.352  18.660  0.00  0.00    +0.000 A 
ATOM     23  C   UNL     1       2.421   8.231  17.627  0.00  0.00    +0.000 A 
ATOM     24  C   UNL     1       1.600   9.339  17.864  0.00  0.00    +0.000 A 
BRANCH  19  25
ATOM     25  C   UNL     1       0.262  10.751  19.488  0.00  0.00    +0.000 C 
ATOM     26  O   UNL     1      -0.622  11.174  18.758  0.00  0.00    +0.000 OA
BRANCH  25  27
ATOM     27  O   UNL     1       0.664  11.299  20.660  0.00  0.00    +0.000 OA
BRANCH  27  29
ATOM     28  C   UNL     1      -0.602  10.703  22.589  0.00  0.00    +0.000 C 
ATOM     29  C   UNL     1      -0.401  11.746  21.506  0.00  0.00    +0.000 C 
ENDBRANCH  27  29
ENDBRANCH  25  27
ENDBRANCH  19  25
ENDBRANCH  17  22
ENDBRANCH   1  17
TORSDOF 6
ENDMDL
MODEL 8
REMARK VINA RESULT:      -7.8      1.140      1.826
REMARK  Name = 
REMARK  7 active torsions:
REMARK  status: ('A' for Active; 'I' for Inactive)
REMARK    1  A    between atoms: C_1  and  C_2
REMARK    2  A    between atoms: C_2  and  O_3
REMARK    3  A    between atoms: O_3  and  C_4
REMARK    4  A    between atoms: C_4  and  C_6
REMARK    5  A    between atoms: C_9  and  N_10
REMARK    6  A    between atoms: N_10  and  C_11
REMARK    7  A    between atoms: N_20  and  C_21
REMARK                            x       y       z     vdW  Elec       q    Type
REMARK                         _______ _______ _______ _____ _____    ______ ____
ROOT
ATOM      1  C   UNL     1       3.104   5.552  18.492  0.00  0.00    +0.000 C 
ATOM      2  C   UNL     1       2.295   4.291  18.626  0.00  0.00    +0.000 A 
ATOM      3  C   UNL     1       1.027   4.059  19.131  0.00  0.00    +0.000 A 
ATOM      4  C   UNL     1       0.522   2.754  19.092  0.00  0.00    +0.000 A 
ATOM      5  C   UNL     1       1.272   1.706  18.530  0.00  0.00    +0.000 A 
ATOM      6  C   UNL     1       2.552   1.943  18.030  0.00  0.00    +0.000 A 
ATOM      7  C   UNL     1       3.036   3.236  18.103  0.00  0.00    +0.000 A 
ATOM      8  C   UNL     1       4.378   3.730  17.780  0.00  0.00    +0.000 C 
ATOM      9  O   UNL     1       5.213   3.001  17.279  0.00  0.00    +0.000 OA
ATOM     10  N   UNL     1       4.439   5.070  18.175  0.00  0.00    +0.000 N 
ENDROOT
BRANCH  10  11
ATOM     11  C   UNL     1       5.610   5.885  18.150  0.00  0.00    +0.000 A 
ATOM     12  C   UNL     1       5.748   6.945  17.248  0.00  0.00    +0.000 A 
ATOM     13  C   UNL     1       6.941   7.667  17.165  0.00  0.00    +0.000 A 
ATOM     14  C   UNL     1       7.984   7.318  17.999  0.00  0.00    +0.000 A 
ATOM     15  N   UNL     1       7.896   6.338  18.915  0.00  0.00    +0.000 NA
ATOM     16  C   UNL     1       6.718   5.660  18.974  0.00  0.00    +0.000 A 
ENDBRANCH  10  11
BRANCH   1  17
ATOM     17  N   UNL     1       3.078   6.329  19.706  0.00  0.00    +0.000 N 
ATOM     18  H   UNL     1       3.309   5.814  20.550  0.00  0.00    +0.000 HD
BRANCH  17  22
ATOM     19  C   UNL     1       0.524   9.663  20.061  0.00  0.00    +0.000 A 
ATOM     20  C   UNL     1       0.624   8.757  21.115  0.00  0.00    +0.000 A 
ATOM     21  C   UNL     1       1.468   7.651  21.013  0.00  0.00    +0.000 A 
ATOM     22  C   UNL     1       2.255   7.434  19.875  0.00  0.00    +0.000 A 
ATOM     23  C   UNL     1       2.083   8.310  18.793  0.00  0.00    +0.000 A 
ATOM     24  C   UNL     1       1.231   9.416  18.880  0.00  0.00    +0.000 A 
BRANCH  19  25
ATOM     25  C   UNL     1      -0.373  10.830  20.241  0.00  0.00    +0.000 C 
ATOM     26  O   UNL     1      -1.354  11.038  19.543  0.00  0.00    +0.000 OA
BRANCH  25  27
ATOM     27  O   UNL     1       0.101  11.637  21.220  0.00  0.00    +0.000 OA
BRANCH  27  29
ATOM     28  C   UNL     1      -1.329  11.116  23.054  0.00  0.00    +0.000 C 
ATOM     29  C   UNL     1      -0.905  12.193  22.073  0.00  0.00    +0.000 C 
ENDBRANCH  27  29
ENDBRANCH  25  27
ENDBRANCH  19  25
ENDBRANCH  17  22
ENDBRANCH   1  17
TORSDOF 6
ENDMDL
MODEL 9
REMARK VINA RESULT:      -7.8      0.364      1.032
REMARK  Name = 
REMARK  7 active torsions:
REMARK  status: ('A' for Active; 'I' for Inactive)
REMARK    1  A    between atoms: C_1  and  C_2
REMARK    2  A    between atoms: C_2  and  O_3
REMARK    3  A    between atoms: O_3  and  C_4
REMARK    4  A    between atoms: C_4  and  C_6
REMARK    5  A    between atoms: C_9  and  N_10
REMARK    6  A    between atoms: N_10  and  C_11
REMARK    7  A    between atoms: N_20  and  C_21
REMARK                            x       y       z     vdW  Elec       q    Type
REMARK                         _______ _______ _______ _____ _____    ______ ____
ROOT
ATOM      1  C   UNL     1       3.154   5.546  18.201  0.00  0.00    +0.000 C 
ATOM      2  C   UNL     1       2.362   4.300  18.492  0.00  0.00    +0.000 A 
ATOM      3  C   UNL     1       1.090   4.117  19.006  0.00  0.00    +0.000 A 
ATOM      4  C   UNL     1       0.606   2.809  19.135  0.00  0.00    +0.000 A 
ATOM      5  C   UNL     1       1.381   1.709  18.730  0.00  0.00    +0.000 A 
ATOM      6  C   UNL     1       2.666   1.899  18.221  0.00  0.00    +0.000 A 
ATOM      7  C   UNL     1       3.128   3.198  18.126  0.00  0.00    +0.000 A 
ATOM      8  C   UNL     1       4.467   3.668  17.759  0.00  0.00    +0.000 C 
ATOM      9  O   UNL     1       5.322   2.894  17.372  0.00  0.00    +0.000 OA
ATOM     10  N   UNL     1       4.500   5.050  17.971  0.00  0.00    +0.000 N 
ENDROOT
BRANCH  10  11
ATOM     11  C   UNL     1       5.659   5.875  17.853  0.00  0.00    +0.000 A 
ATOM     12  C   UNL     1       6.769   5.705  18.686  0.00  0.00    +0.000 A 
ATOM     13  C   UNL     1       7.852   6.586  18.629  0.00  0.00    +0.000 A 
ATOM     14  C   UNL     1       7.809   7.628  17.725  0.00  0.00    +0.000 A 
ATOM     15  N   UNL     1       6.790   7.817  16.870  0.00  0.00    +0.000 NA
ATOM     16  C   UNL     1       5.755   6.937  16.947  0.00  0.00    +0.000 A 
ENDBRANCH  10  11
BRANCH   1  17
ATOM     17  N   UNL     1       3.095   6.479  19.299  0.00  0.00    +0.000 N 
ATOM     18  H   UNL     1       3.263   6.074  20.215  0.00  0.00    +0.000 HD
BRANCH  17  22
ATOM     19  C   UNL     1       0.762   9.988  19.386  0.00  0.00    +0.000 A 
ATOM     20  C   UNL     1       1.454   9.650  18.224  0.00  0.00    +0.000 A 
ATOM     21  C   UNL     1       2.228   8.489  18.179  0.00  0.00    +0.000 A 
ATOM     22  C   UNL     1       2.308   7.622  19.276  0.00  0.00    +0.000 A 
ATOM     23  C   UNL     1       1.671   8.017  20.461  0.00  0.00    +0.000 A 
ATOM     24  C   UNL     1       0.902   9.185  20.521  0.00  0.00    +0.000 A 
BRANCH  19  25
ATOM     25  C   UNL     1      -0.060  11.222  19.360  0.00  0.00    +0.000 C 
ATOM     26  O   UNL     1       0.414  12.344  19.263  0.00  0.00    +0.000 OA
BRANCH  25  27
ATOM     27  O   UNL     1      -1.368  10.916  19.534  0.00  0.00    +0.000 OA
BRANCH  27  29
ATOM     28  C   UNL     1      -3.324  11.574  18.343  0.00  0.00    +0.000 C 
ATOM     29  C   UNL     1      -2.093  10.687  18.322  0.00  0.00    +0.000 C 
ENDBRANCH  27  29
ENDBRANCH  25  27
ENDBRANCH  19  25
ENDBRANCH  17  22
ENDBRANCH   1  17
TORSDOF 6
ENDMDL
