MODEL 1
REMARK VINA RESULT:      -7.6      0.000      0.000
REMARK  Name = 
REMARK  8 active torsions:
REMARK  status: ('A' for Active; 'I' for Inactive)
REMARK    1  A    between atoms: C_1  and  O_2
REMARK    2  A    between atoms: O_2  and  C_3
REMARK    3  A    between atoms: C_6  and  C_7
REMARK    4  A    between atoms: N_15  and  C1*_16
REMARK    5  A    between atoms: C4*_18  and  C5*_19
REMARK    6  A    between atoms: C5*_19  and  O5*_20
REMARK    7  A    between atoms: C3*_21  and  O3*_22
REMARK    8  A    between atoms: C2*_23  and  O2*_24
REMARK                            x       y       z     vdW  Elec       q    Type
REMARK                         _______ _______ _______ _____ _____    ______ ____
ROOT
ATOM      1  C   UNL     1       3.206   6.348  18.525  0.00  0.00    +0.000 A 
ATOM      2  N   UNL     1       3.000   5.550  19.614  0.00  0.00    +0.000 NA
ATOM      3  C   UNL     1       2.196   6.000  20.594  0.00  0.00    +0.000 A 
ATOM      4  N   UNL     1       1.516   7.159  20.638  0.00  0.00    +0.000 NA
ATOM      5  C   UNL     1       1.743   7.905  19.545  0.00  0.00    +0.000 A 
ATOM      6  C   UNL     1       2.559   7.593  18.469  0.00  0.00    +0.000 A 
ATOM      7  N   UNL     1       2.529   8.610  17.535  0.00  0.00    +0.000 NA
ATOM      8  C   UNL     1       1.700   9.504  18.026  0.00  0.00    +0.000 A 
ATOM      9  N   UNL     1       1.190   9.117  19.235  0.00  0.00    +0.000 N 
ENDROOT
BRANCH   1  13
ATOM     10  C   UNL     1       5.773   4.882  15.406  0.00  0.00    +0.000 A 
ATOM     11  C   UNL     1       5.736   6.241  15.713  0.00  0.00    +0.000 A 
ATOM     12  C   UNL     1       4.894   6.719  16.725  0.00  0.00    +0.000 A 
ATOM     13  C   UNL     1       4.065   5.848  17.450  0.00  0.00    +0.000 A 
ATOM     14  C   UNL     1       4.095   4.487  17.098  0.00  0.00    +0.000 A 
ATOM     15  C   UNL     1       4.936   4.007  16.090  0.00  0.00    +0.000 A 
BRANCH  10  17
ATOM     16  C   UNL     1       6.062   3.736  13.364  0.00  0.00    +0.000 C 
ATOM     17  O   UNL     1       6.630   4.528  14.402  0.00  0.00    +0.000 OA
ENDBRANCH  10  17
ENDBRANCH   1  13
BRANCH   9  18
ATOM     18  C1* UNL     1       0.184   9.838  19.985  0.00  0.00    +0.000 C 
ATOM     19  O4* UNL     1      -0.761  10.429  19.068  0.00  0.00    +0.000 OA
ATOM     20  C4* UNL     1      -1.032  11.787  19.497  0.00  0.00    +0.000 C 
ATOM     21  C3* UNL     1      -0.406  11.948  20.880  0.00  0.00    +0.000 C 
ATOM     22  C2* UNL     1       0.738  10.948  20.877  0.00  0.00    +0.000 C 
BRANCH  21  23
ATOM     23  O3* UNL     1      -1.316  11.563  21.932  0.00  0.00    +0.000 OA
ATOM     24  H3* UNL     1      -0.839  11.010  22.577  0.00  0.00    +0.000 HD
ENDBRANCH  21  23
BRANCH  22  25
ATOM     25  O2* UNL     1       1.037  10.482  22.195  0.00  0.00    +0.000 OA
ATOM     26  H2* UNL     1       1.903  10.026  22.132  0.00  0.00    +0.000 HD
ENDBRANCH  22  25
BRANCH  20  27
ATOM     27  C5* UNL     1      -0.476  12.767  18.461  0.00  0.00    +0.000 C 
BRANCH  27  28
ATOM     28  O5* UNL     1      -1.232  12.677  17.255  0.00  0.00    +0.000 OA
ATOM     29  H5* UNL     1      -1.353  13.594  16.941  0.00  0.00    +0.000 HD
ENDBRANCH  27  28
ENDBRANCH  20  27
ENDBRANCH   9  18
TORSDOF 7
ENDMDL
MODEL 2
REMARK VINA RESULT:      -7.6      0.778      1.225
REMARK  Name = 
REMARK  8 active torsions:
REMARK  status: ('A' for Active; 'I' for Inactive)
REMARK    1  A    between atoms: C_1  and  O_2
REMARK    2  A    between atoms: O_2  and  C_3
REMARK    3  A    between atoms: C_6  and  C_7
REMARK    4  A    between atoms: N_15  and  C1*_16
REMARK    5  A    between atoms: C4*_18  and  C5*_19
REMARK    6  A    between atoms: C5*_19  and  O5*_20
REMARK    7  A    between atoms: C3*_21  and  O3*_22
REMARK    8  A    between atoms: C2*_23  and  O2*_24
REMARK                            x       y       z     vdW  Elec       q    Type
REMARK                         _______ _______ _______ _____ _____    ______ ____
ROOT
ATOM      1  C   UNL     1       3.007   6.415  18.708  0.00  0.00    +0.000 A 
ATOM      2  N   UNL     1       2.740   5.698  19.840  0.00  0.00    +0.000 NA
ATOM      3  C   UNL     1       1.970   6.262  20.789  0.00  0.00    +0.000 A 
ATOM      4  N   UNL     1       1.380   7.470  20.762  0.00  0.00    +0.000 NA
ATOM      5  C   UNL     1       1.664   8.133  19.630  0.00  0.00    +0.000 A 
ATOM      6  C   UNL     1       2.456   7.699  18.578  0.00  0.00    +0.000 A 
ATOM      7  N   UNL     1       2.503   8.660  17.587  0.00  0.00    +0.000 NA
ATOM      8  C   UNL     1       1.743   9.641  18.021  0.00  0.00    +0.000 A 
ATOM      9  N   UNL     1       1.204   9.364  19.248  0.00  0.00    +0.000 N 
ENDROOT
BRANCH   1  13
ATOM     10  C   UNL     1       5.366   4.579  15.621  0.00  0.00    +0.000 A 
ATOM     11  C   UNL     1       4.531   3.808  16.428  0.00  0.00    +0.000 A 
ATOM     12  C   UNL     1       3.768   4.406  17.438  0.00  0.00    +0.000 A 
ATOM     13  C   UNL     1       3.827   5.790  17.668  0.00  0.00    +0.000 A 
ATOM     14  C   UNL     1       4.701   6.541  16.863  0.00  0.00    +0.000 A 
ATOM     15  C   UNL     1       5.462   5.947  15.853  0.00  0.00    +0.000 A 
BRANCH  10  17
ATOM     16  C   UNL     1       6.947   4.675  13.873  0.00  0.00    +0.000 C 
ATOM     17  O   UNL     1       6.063   3.891  14.667  0.00  0.00    +0.000 OA
ENDBRANCH  10  17
ENDBRANCH   1  13
BRANCH   9  18
ATOM     18  C1* UNL     1       0.254  10.200  19.949  0.00  0.00    +0.000 C 
ATOM     19  O4* UNL     1      -1.044  10.069  19.331  0.00  0.00    +0.000 OA
ATOM     20  C4* UNL     1      -1.629  11.389  19.206  0.00  0.00    +0.000 C 
ATOM     21  C3* UNL     1      -0.747  12.343  20.008  0.00  0.00    +0.000 C 
ATOM     22  C2* UNL     1       0.621  11.684  19.976  0.00  0.00    +0.000 C 
BRANCH  21  23
ATOM     23  O3* UNL     1      -1.157  12.425  21.389  0.00  0.00    +0.000 OA
ATOM     24  H3* UNL     1      -0.394  12.218  21.959  0.00  0.00    +0.000 HD
ENDBRANCH  21  23
BRANCH  22  25
ATOM     25  O2* UNL     1       1.400  12.026  21.123  0.00  0.00    +0.000 OA
ATOM     26  H2* UNL     1       2.317  11.739  20.924  0.00  0.00    +0.000 HD
ENDBRANCH  22  25
BRANCH  20  27
ATOM     27  C5* UNL     1      -1.735  11.759  17.725  0.00  0.00    +0.000 C 
BRANCH  27  28
ATOM     28  O5* UNL     1      -1.044  12.982  17.482  0.00  0.00    +0.000 OA
ATOM     29  H5* UNL     1      -0.105  12.742  17.355  0.00  0.00    +0.000 HD
ENDBRANCH  27  28
ENDBRANCH  20  27
ENDBRANCH   9  18
TORSDOF 7
ENDMDL
MODEL 3
REMARK VINA RESULT:      -7.5      2.731      8.622
REMARK  Name = 
REMARK  8 active torsions:
REMARK  status: ('A' for Active; 'I' for Inactive)
REMARK    1  A    between atoms: C_1  and  O_2
REMARK    2  A    between atoms: O_2  and  C_3
REMARK    3  A    between atoms: C_6  and  C_7
REMARK    4  A    between atoms: N_15  and  C1*_16
REMARK    5  A    between atoms: C4*_18  and  C5*_19
REMARK    6  A    between atoms: C5*_19  and  O5*_20
REMARK    7  A    between atoms: C3*_21  and  O3*_22
REMARK    8  A    between atoms: C2*_23  and  O2*_24
REMARK                            x       y       z     vdW  Elec       q    Type
REMARK                         _______ _______ _______ _____ _____    ______ ____
ROOT
ATOM      1  C   UNL     1       0.957   9.598  19.875  0.00  0.00    +0.000 A 
ATOM      2  N   UNL     1       1.226  10.300  18.735  0.00  0.00    +0.000 NA
ATOM      3  C   UNL     1       1.980   9.717  17.786  0.00  0.00    +0.000 A 
ATOM      4  N   UNL     1       2.501   8.478  17.792  0.00  0.00    +0.000 NA
ATOM      5  C   UNL     1       2.206   7.824  18.926  0.00  0.00    +0.000 A 
ATOM      6  C   UNL     1       1.466   8.296  20.000  0.00  0.00    +0.000 A 
ATOM      7  N   UNL     1       1.373   7.326  20.979  0.00  0.00    +0.000 NA
ATOM      8  C   UNL     1       2.022   6.288  20.500  0.00  0.00    +0.000 A 
ATOM      9  N   UNL     1       2.534   6.537  19.256  0.00  0.00    +0.000 N 
ENDROOT
BRANCH   1  13
ATOM     10  C   UNL     1      -1.552  11.423  22.847  0.00  0.00    +0.000 A 
ATOM     11  C   UNL     1      -1.397  12.010  21.593  0.00  0.00    +0.000 A 
ATOM     12  C   UNL     1      -0.573  11.419  20.628  0.00  0.00    +0.000 A 
ATOM     13  C   UNL     1       0.119  10.227  20.897  0.00  0.00    +0.000 A 
ATOM     14  C   UNL     1      -0.028   9.672  22.180  0.00  0.00    +0.000 A 
ATOM     15  C   UNL     1      -0.850  10.260  23.145  0.00  0.00    +0.000 A 
BRANCH  10  17
ATOM     16  C   UNL     1      -3.601  12.554  23.149  0.00  0.00    +0.000 C 
ATOM     17  O   UNL     1      -2.379  12.086  23.711  0.00  0.00    +0.000 OA
ENDBRANCH  10  17
ENDBRANCH   1  13
BRANCH   9  18
ATOM     18  C1* UNL     1       3.219   5.568  18.428  0.00  0.00    +0.000 C 
ATOM     19  O4* UNL     1       2.250   4.847  17.637  0.00  0.00    +0.000 OA
ATOM     20  C4* UNL     1       2.588   3.438  17.667  0.00  0.00    +0.000 C 
ATOM     21  C3* UNL     1       3.969   3.327  18.307  0.00  0.00    +0.000 C 
ATOM     22  C2* UNL     1       4.050   4.549  19.206  0.00  0.00    +0.000 C 
BRANCH  21  23
ATOM     23  O3* UNL     1       5.027   3.437  17.330  0.00  0.00    +0.000 OA
ATOM     24  H3* UNL     1       5.883   3.289  17.772  0.00  0.00    +0.000 HD
ENDBRANCH  21  23
BRANCH  22  25
ATOM     25  O2* UNL     1       5.399   4.982  19.391  0.00  0.00    +0.000 OA
ATOM     26  H2* UNL     1       5.830   4.912  18.512  0.00  0.00    +0.000 HD
ENDBRANCH  22  25
BRANCH  20  27
ATOM     27  C5* UNL     1       1.503   2.671  18.426  0.00  0.00    +0.000 C 
BRANCH  27  28
ATOM     28  O5* UNL     1       2.005   1.401  18.834  0.00  0.00    +0.000 OA
ATOM     29  H5* UNL     1       2.046   1.426  19.811  0.00  0.00    +0.000 HD
ENDBRANCH  27  28
ENDBRANCH  20  27
ENDBRANCH   9  18
TORSDOF 7
ENDMDL
MODEL 4
REMARK VINA RESULT:      -7.4      2.558      8.721
REMARK  Name = 
REMARK  8 active torsions:
REMARK  status: ('A' for Active; 'I' for Inactive)
REMARK    1  A    between atoms: C_1  and  O_2
REMARK    2  A    between atoms: O_2  and  C_3
REMARK    3  A    between atoms: C_6  and  C_7
REMARK    4  A    between atoms: N_15  and  C1*_16
REMARK    5  A    between atoms: C4*_18  and  C5*_19
REMARK    6  A    between atoms: C5*_19  and  O5*_20
REMARK    7  A    between atoms: C3*_21  and  O3*_22
REMARK    8  A    between atoms: C2*_23  and  O2*_24
REMARK                            x       y       z     vdW  Elec       q    Type
REMARK                         _______ _______ _______ _____ _____    ______ ____
ROOT
ATOM      1  C   UNL     1       1.074   9.365  19.828  0.00  0.00    +0.000 A 
ATOM      2  N   UNL     1       1.357  10.092  18.707  0.00  0.00    +0.000 NA
ATOM      3  C   UNL     1       2.122   9.528  17.754  0.00  0.00    +0.000 A 
ATOM      4  N   UNL     1       2.641   8.288  17.739  0.00  0.00    +0.000 NA
ATOM      5  C   UNL     1       2.330   7.610  18.855  0.00  0.00    +0.000 A 
ATOM      6  C   UNL     1       1.579   8.059  19.929  0.00  0.00    +0.000 A 
ATOM      7  N   UNL     1       1.472   7.068  20.886  0.00  0.00    +0.000 NA
ATOM      8  C   UNL     1       2.125   6.040  20.392  0.00  0.00    +0.000 A 
ATOM      9  N   UNL     1       2.653   6.316  19.160  0.00  0.00    +0.000 N 
ENDROOT
BRANCH   1  13
ATOM     10  C   UNL     1      -1.468  11.122  22.813  0.00  0.00    +0.000 A 
ATOM     11  C   UNL     1      -1.417  11.652  21.525  0.00  0.00    +0.000 A 
ATOM     12  C   UNL     1      -0.583  11.083  20.555  0.00  0.00    +0.000 A 
ATOM     13  C   UNL     1       0.224   9.973  20.853  0.00  0.00    +0.000 A 
ATOM     14  C   UNL     1       0.180   9.478  22.168  0.00  0.00    +0.000 A 
ATOM     15  C   UNL     1      -0.653  10.043  23.138  0.00  0.00    +0.000 A 
BRANCH  10  17
ATOM     16  C   UNL     1      -2.933  12.936  23.175  0.00  0.00    +0.000 C 
ATOM     17  O   UNL     1      -2.316  11.756  23.679  0.00  0.00    +0.000 OA
ENDBRANCH  10  17
ENDBRANCH   1  13
BRANCH   9  18
ATOM     18  C1* UNL     1       3.346   5.364  18.318  0.00  0.00    +0.000 C 
ATOM     19  O4* UNL     1       2.782   4.051  18.519  0.00  0.00    +0.000 OA
ATOM     20  C4* UNL     1       3.866   3.095  18.624  0.00  0.00    +0.000 C 
ATOM     21  C3* UNL     1       5.144   3.829  18.226  0.00  0.00    +0.000 C 
ATOM     22  C2* UNL     1       4.850   5.278  18.571  0.00  0.00    +0.000 C 
BRANCH  21  23
ATOM     23  O3* UNL     1       5.383   3.762  16.803  0.00  0.00    +0.000 OA
ATOM     24  H3* UNL     1       6.246   4.170  16.608  0.00  0.00    +0.000 HD
ENDBRANCH  21  23
BRANCH  22  25
ATOM     25  O2* UNL     1       5.589   6.180  17.743  0.00  0.00    +0.000 OA
ATOM     26  H2* UNL     1       5.028   6.978  17.643  0.00  0.00    +0.000 HD
ENDBRANCH  22  25
BRANCH  20  27
ATOM     27  C5* UNL     1       3.908   2.529  20.045  0.00  0.00    +0.000 C 
BRANCH  27  28
ATOM     28  O5* UNL     1       5.160   1.886  20.273  0.00  0.00    +0.000 OA
ATOM     29  H5* UNL     1       5.457   1.555  19.402  0.00  0.00    +0.000 HD
ENDBRANCH  27  28
ENDBRANCH  20  27
ENDBRANCH   9  18
TORSDOF 7
ENDMDL
MODEL 5
REMARK VINA RESULT:      -7.3      1.312      1.440
REMARK  Name = 
REMARK  8 active torsions:
REMARK  status: ('A' for Active; 'I' for Inactive)
REMARK    1  A    between atoms: C_1  and  O_2
REMARK    2  A    between atoms: O_2  and  C_3
REMARK    3  A    between atoms: C_6  and  C_7
REMARK    4  A    between atoms: N_15  and  C1*_16
REMARK    5  A    between atoms: C4*_18  and  C5*_19
REMARK    6  A    between atoms: C5*_19  and  O5*_20
REMARK    7  A    between atoms: C3*_21  and  O3*_22
REMARK    8  A    between atoms: C2*_23  and  O2*_24
REMARK                            x       y       z     vdW  Elec       q    Type
REMARK                         _______ _______ _______ _____ _____    ______ ____
ROOT
ATOM      1  C   UNL     1       2.752   6.659  18.899  0.00  0.00    +0.000 A 
ATOM      2  N   UNL     1       2.386   6.103  20.092  0.00  0.00    +0.000 NA
ATOM      3  C   UNL     1       1.633   6.833  20.935  0.00  0.00    +0.000 A 
ATOM      4  N   UNL     1       1.148   8.072  20.745  0.00  0.00    +0.000 NA
ATOM      5  C   UNL     1       1.525   8.574  19.559  0.00  0.00    +0.000 A 
ATOM      6  C   UNL     1       2.315   7.958  18.600  0.00  0.00    +0.000 A 
ATOM      7  N   UNL     1       2.478   8.790  17.509  0.00  0.00    +0.000 NA
ATOM      8  C   UNL     1       1.787   9.872  17.794  0.00  0.00    +0.000 A 
ATOM      9  N   UNL     1       1.184   9.784  19.019  0.00  0.00    +0.000 N 
ENDROOT
BRANCH   1  13
ATOM     10  C   UNL     1       5.143   4.289  16.229  0.00  0.00    +0.000 A 
ATOM     11  C   UNL     1       5.469   5.621  16.480  0.00  0.00    +0.000 A 
ATOM     12  C   UNL     1       4.685   6.394  17.344  0.00  0.00    +0.000 A 
ATOM     13  C   UNL     1       3.553   5.854  17.975  0.00  0.00    +0.000 A 
ATOM     14  C   UNL     1       3.226   4.519  17.681  0.00  0.00    +0.000 A 
ATOM     15  C   UNL     1       4.008   3.744  16.820  0.00  0.00    +0.000 A 
BRANCH  10  17
ATOM     16  C   UNL     1       6.344   4.352  14.199  0.00  0.00    +0.000 C 
ATOM     17  O   UNL     1       5.978   3.629  15.370  0.00  0.00    +0.000 OA
ENDBRANCH  10  17
ENDBRANCH   1  13
BRANCH   9  18
ATOM     18  C1* UNL     1       0.283  10.769  19.577  0.00  0.00    +0.000 C 
ATOM     19  O4* UNL     1      -1.078  10.400  19.269  0.00  0.00    +0.000 OA
ATOM     20  C4* UNL     1      -1.791  11.586  18.840  0.00  0.00    +0.000 C 
ATOM     21  C3* UNL     1      -0.884  12.779  19.134  0.00  0.00    +0.000 C 
ATOM     22  C2* UNL     1       0.515  12.192  19.072  0.00  0.00    +0.000 C 
BRANCH  21  23
ATOM     23  O3* UNL     1      -1.081  13.290  20.470  0.00  0.00    +0.000 OA
ATOM     24  H3* UNL     1      -0.804  12.612  21.113  0.00  0.00    +0.000 HD
ENDBRANCH  21  23
BRANCH  22  25
ATOM     25  O2* UNL     1       1.429  12.916  19.899  0.00  0.00    +0.000 OA
ATOM     26  H2* UNL     1       1.485  12.418  20.743  0.00  0.00    +0.000 HD
ENDBRANCH  22  25
BRANCH  20  27
ATOM     27  C5* UNL     1      -2.157  11.452  17.361  0.00  0.00    +0.000 C 
BRANCH  27  28
ATOM     28  O5* UNL     1      -1.616  10.241  16.837  0.00  0.00    +0.000 OA
ATOM     29  H5* UNL     1      -0.645  10.351  16.846  0.00  0.00    +0.000 HD
ENDBRANCH  27  28
ENDBRANCH  20  27
ENDBRANCH   9  18
TORSDOF 7
ENDMDL
MODEL 6
REMARK VINA RESULT:      -7.3      2.775      8.596
REMARK  Name = 
REMARK  8 active torsions:
REMARK  status: ('A' for Active; 'I' for Inactive)
REMARK    1  A    between atoms: C_1  and  O_2
REMARK    2  A    between atoms: O_2  and  C_3
REMARK    3  A    between atoms: C_6  and  C_7
REMARK    4  A    between atoms: N_15  and  C1*_16
REMARK    5  A    between atoms: C4*_18  and  C5*_19
REMARK    6  A    between atoms: C5*_19  and  O5*_20
REMARK    7  A    between atoms: C3*_21  and  O3*_22
REMARK    8  A    between atoms: C2*_23  and  O2*_24
REMARK                            x       y       z     vdW  Elec       q    Type
REMARK                         _______ _______ _______ _____ _____    ______ ____
ROOT
ATOM      1  C   UNL     1       0.977   9.516  19.842  0.00  0.00    +0.000 A 
ATOM      2  N   UNL     1       1.307  10.194  18.704  0.00  0.00    +0.000 NA
ATOM      3  C   UNL     1       2.099   9.586  17.802  0.00  0.00    +0.000 A 
ATOM      4  N   UNL     1       2.605   8.342  17.855  0.00  0.00    +0.000 NA
ATOM      5  C   UNL     1       2.248   7.711  18.985  0.00  0.00    +0.000 A 
ATOM      6  C   UNL     1       1.464   8.211  20.014  0.00  0.00    +0.000 A 
ATOM      7  N   UNL     1       1.313   7.260  21.004  0.00  0.00    +0.000 NA
ATOM      8  C   UNL     1       1.972   6.207  20.575  0.00  0.00    +0.000 A 
ATOM      9  N   UNL     1       2.546   6.428  19.352  0.00  0.00    +0.000 N 
ENDROOT
BRANCH   1  13
ATOM     10  C   UNL     1      -1.556  11.472  22.710  0.00  0.00    +0.000 A 
ATOM     11  C   UNL     1      -0.766  10.386  23.085  0.00  0.00    +0.000 A 
ATOM     12  C   UNL     1       0.053   9.745  22.149  0.00  0.00    +0.000 A 
ATOM     13  C   UNL     1       0.098  10.172  20.812  0.00  0.00    +0.000 A 
ATOM     14  C   UNL     1      -0.732  11.248  20.450  0.00  0.00    +0.000 A 
ATOM     15  C   UNL     1      -1.549  11.891  21.383  0.00  0.00    +0.000 A 
BRANCH  10  17
ATOM     16  C   UNL     1      -3.556  12.582  23.288  0.00  0.00    +0.000 C 
ATOM     17  O   UNL     1      -2.316  12.021  23.705  0.00  0.00    +0.000 OA
ENDBRANCH  10  17
ENDBRANCH   1  13
BRANCH   9  18
ATOM     18  C1* UNL     1       3.258   5.437  18.575  0.00  0.00    +0.000 C 
ATOM     19  O4* UNL     1       2.316   4.478  18.048  0.00  0.00    +0.000 OA
ATOM     20  C4* UNL     1       2.866   3.148  18.223  0.00  0.00    +0.000 C 
ATOM     21  C3* UNL     1       4.319   3.323  18.658  0.00  0.00    +0.000 C 
ATOM     22  C2* UNL     1       4.327   4.673  19.355  0.00  0.00    +0.000 C 
BRANCH  21  23
ATOM     23  O3* UNL     1       5.213   3.413  17.528  0.00  0.00    +0.000 OA
ATOM     24  H3* UNL     1       6.056   3.805  17.821  0.00  0.00    +0.000 HD
ENDBRANCH  21  23
BRANCH  22  25
ATOM     25  O2* UNL     1       5.608   5.303  19.272  0.00  0.00    +0.000 OA
ATOM     26  H2* UNL     1       6.102   4.823  18.574  0.00  0.00    +0.000 HD
ENDBRANCH  22  25
BRANCH  20  27
ATOM     27  C5* UNL     1       2.017   2.378  19.237  0.00  0.00    +0.000 C 
BRANCH  27  28
ATOM     28  O5* UNL     1       0.771   3.042  19.428  0.00  0.00    +0.000 OA
ATOM     29  H5* UNL     1       0.523   3.410  18.557  0.00  0.00    +0.000 HD
ENDBRANCH  27  28
ENDBRANCH  20  27
ENDBRANCH   9  18
TORSDOF 7
ENDMDL
MODEL 7
REMARK VINA RESULT:      -7.1      1.243      2.346
REMARK  Name = 
REMARK  8 active torsions:
REMARK  status: ('A' for Active; 'I' for Inactive)
REMARK    1  A    between atoms: C_1  and  O_2
REMARK    2  A    between atoms: O_2  and  C_3
REMARK    3  A    between atoms: C_6  and  C_7
REMARK    4  A    between atoms: N_15  and  C1*_16
REMARK    5  A    between atoms: C4*_18  and  C5*_19
REMARK    6  A    between atoms: C5*_19  and  O5*_20
REMARK    7  A    between atoms: C3*_21  and  O3*_22
REMARK    8  A    between atoms: C2*_23  and  O2*_24
REMARK                            x       y       z     vdW  Elec       q    Type
REMARK                         _______ _______ _______ _____ _____    ______ ____
ROOT
ATOM      1  C   UNL     1       2.552   6.879  18.988  0.00  0.00    +0.000 A 
ATOM      2  N   UNL     1       2.098   6.355  20.165  0.00  0.00    +0.000 NA
ATOM      3  C   UNL     1       1.378   7.145  20.983  0.00  0.00    +0.000 A 
ATOM      4  N   UNL     1       1.003   8.420  20.778  0.00  0.00    +0.000 NA
ATOM      5  C   UNL     1       1.464   8.888  19.608  0.00  0.00    +0.000 A 
ATOM      6  C   UNL     1       2.234   8.210  18.676  0.00  0.00    +0.000 A 
ATOM      7  N   UNL     1       2.504   9.026  17.595  0.00  0.00    +0.000 NA
ATOM      8  C   UNL     1       1.896  10.160  17.857  0.00  0.00    +0.000 A 
ATOM      9  N   UNL     1       1.243  10.122  19.060  0.00  0.00    +0.000 N 
ENDROOT
BRANCH   1  13
ATOM     10  C   UNL     1       4.837   4.322  16.398  0.00  0.00    +0.000 A 
ATOM     11  C   UNL     1       5.233   5.639  16.624  0.00  0.00    +0.000 A 
ATOM     12  C   UNL     1       4.484   6.473  17.462  0.00  0.00    +0.000 A 
ATOM     13  C   UNL     1       3.317   6.011  18.091  0.00  0.00    +0.000 A 
ATOM     14  C   UNL     1       2.919   4.690  17.821  0.00  0.00    +0.000 A 
ATOM     15  C   UNL     1       3.666   3.854  16.986  0.00  0.00    +0.000 A 
BRANCH  10  17
ATOM     16  C   UNL     1       5.919   4.204  14.305  0.00  0.00    +0.000 C 
ATOM     17  O   UNL     1       5.642   3.598  15.564  0.00  0.00    +0.000 OA
ENDBRANCH  10  17
ENDBRANCH   1  13
BRANCH   9  18
ATOM     18  C1* UNL     1       0.407  11.178  19.588  0.00  0.00    +0.000 C 
ATOM     19  O4* UNL     1       0.750  11.413  20.970  0.00  0.00    +0.000 OA
ATOM     20  C4* UNL     1      -0.474  11.550  21.733  0.00  0.00    +0.000 C 
ATOM     21  C3* UNL     1      -1.616  11.645  20.724  0.00  0.00    +0.000 C 
ATOM     22  C2* UNL     1      -1.093  10.891  19.514  0.00  0.00    +0.000 C 
BRANCH  21  23
ATOM     23  O3* UNL     1      -1.861  13.007  20.313  0.00  0.00    +0.000 OA
ATOM     24  H3* UNL     1      -1.125  13.568  20.618  0.00  0.00    +0.000 HD
ENDBRANCH  21  23
BRANCH  22  25
ATOM     25  O2* UNL     1      -1.674  11.371  18.299  0.00  0.00    +0.000 OA
ATOM     26  H2* UNL     1      -1.382  10.752  17.596  0.00  0.00    +0.000 HD
ENDBRANCH  22  25
BRANCH  20  27
ATOM     27  C5* UNL     1      -0.610  10.367  22.694  0.00  0.00    +0.000 C 
BRANCH  27  28
ATOM     28  O5* UNL     1       0.677   9.983  23.172  0.00  0.00    +0.000 OA
ATOM     29  H5* UNL     1       0.767   9.030  22.973  0.00  0.00    +0.000 HD
ENDBRANCH  27  28
ENDBRANCH  20  27
ENDBRANCH   9  18
TORSDOF 7
ENDMDL
MODEL 8
REMARK VINA RESULT:      -7.1      2.177      8.354
REMARK  Name = 
REMARK  8 active torsions:
REMARK  status: ('A' for Active; 'I' for Inactive)
REMARK    1  A    between atoms: C_1  and  O_2
REMARK    2  A    between atoms: O_2  and  C_3
REMARK    3  A    between atoms: C_6  and  C_7
REMARK    4  A    between atoms: N_15  and  C1*_16
REMARK    5  A    between atoms: C4*_18  and  C5*_19
REMARK    6  A    between atoms: C5*_19  and  O5*_20
REMARK    7  A    between atoms: C3*_21  and  O3*_22
REMARK    8  A    between atoms: C2*_23  and  O2*_24
REMARK                            x       y       z     vdW  Elec       q    Type
REMARK                         _______ _______ _______ _____ _____    ______ ____
ROOT
ATOM      1  C   UNL     1       1.535   7.455  20.301  0.00  0.00    +0.000 A 
ATOM      2  N   UNL     1       1.374   6.395  21.149  0.00  0.00    +0.000 NA
ATOM      3  C   UNL     1       2.062   5.266  20.900  0.00  0.00    +0.000 A 
ATOM      4  N   UNL     1       2.944   5.038  19.911  0.00  0.00    +0.000 NA
ATOM      5  C   UNL     1       3.074   6.107  19.110  0.00  0.00    +0.000 A 
ATOM      6  C   UNL     1       2.420   7.324  19.220  0.00  0.00    +0.000 A 
ATOM      7  N   UNL     1       2.824   8.178  18.212  0.00  0.00    +0.000 NA
ATOM      8  C   UNL     1       3.715   7.500  17.523  0.00  0.00    +0.000 A 
ATOM      9  N   UNL     1       3.909   6.245  18.035  0.00  0.00    +0.000 N 
ENDROOT
BRANCH   1  13
ATOM     10  C   UNL     1      -0.570  11.100  21.163  0.00  0.00    +0.000 A 
ATOM     11  C   UNL     1      -0.346  10.157  22.165  0.00  0.00    +0.000 A 
ATOM     12  C   UNL     1       0.333   8.967  21.881  0.00  0.00    +0.000 A 
ATOM     13  C   UNL     1       0.801   8.689  20.587  0.00  0.00    +0.000 A 
ATOM     14  C   UNL     1       0.533   9.640  19.587  0.00  0.00    +0.000 A 
ATOM     15  C   UNL     1      -0.143  10.830  19.867  0.00  0.00    +0.000 A 
BRANCH  10  17
ATOM     16  C   UNL     1      -1.068  12.602  22.913  0.00  0.00    +0.000 C 
ATOM     17  O   UNL     1      -1.243  12.225  21.552  0.00  0.00    +0.000 OA
ENDBRANCH  10  17
ENDBRANCH   1  13
BRANCH   9  18
ATOM     18  C1* UNL     1       4.888   5.293  17.558  0.00  0.00    +0.000 C 
ATOM     19  O4* UNL     1       5.682   4.828  18.670  0.00  0.00    +0.000 OA
ATOM     20  C4* UNL     1       7.074   4.810  18.267  0.00  0.00    +0.000 C 
ATOM     21  C3* UNL     1       7.102   5.045  16.759  0.00  0.00    +0.000 C 
ATOM     22  C2* UNL     1       5.838   5.845  16.495  0.00  0.00    +0.000 C 
BRANCH  21  23
ATOM     23  O3* UNL     1       6.997   3.811  16.018  0.00  0.00    +0.000 OA
ATOM     24  H3* UNL     1       7.876   3.574  15.671  0.00  0.00    +0.000 HD
ENDBRANCH  21  23
BRANCH  22  25
ATOM     25  O2* UNL     1       5.345   5.633  15.170  0.00  0.00    +0.000 OA
ATOM     26  H2* UNL     1       5.280   4.661  15.056  0.00  0.00    +0.000 HD
ENDBRANCH  22  25
BRANCH  20  27
ATOM     27  C5* UNL     1       7.846   5.865  19.061  0.00  0.00    +0.000 C 
BRANCH  27  28
ATOM     28  O5* UNL     1       7.976   5.450  20.419  0.00  0.00    +0.000 OA
ATOM     29  H5* UNL     1       8.889   5.117  20.515  0.00  0.00    +0.000 HD
ENDBRANCH  27  28
ENDBRANCH  20  27
ENDBRANCH   9  18
TORSDOF 7
ENDMDL
MODEL 9
REMARK VINA RESULT:      -7.0      0.965      1.562
REMARK  Name = 
REMARK  8 active torsions:
REMARK  status: ('A' for Active; 'I' for Inactive)
REMARK    1  A    between atoms: C_1  and  O_2
REMARK    2  A    between atoms: O_2  and  C_3
REMARK    3  A    between atoms: C_6  and  C_7
REMARK    4  A    between atoms: N_15  and  C1*_16
REMARK    5  A    between atoms: C4*_18  and  C5*_19
REMARK    6  A    between atoms: C5*_19  and  O5*_20
REMARK    7  A    between atoms: C3*_21  and  O3*_22
REMARK    8  A    between atoms: C2*_23  and  O2*_24
REMARK                            x       y       z     vdW  Elec       q    Type
REMARK                         _______ _______ _______ _____ _____    ______ ____
ROOT
ATOM      1  C   UNL     1       3.308   6.059  18.509  0.00  0.00    +0.000 A 
ATOM      2  N   UNL     1       3.036   5.196  19.532  0.00  0.00    +0.000 NA
ATOM      3  C   UNL     1       2.231   5.612  20.526  0.00  0.00    +0.000 A 
ATOM      4  N   UNL     1       1.606   6.797  20.640  0.00  0.00    +0.000 NA
ATOM      5  C   UNL     1       1.895   7.608  19.610  0.00  0.00    +0.000 A 
ATOM      6  C   UNL     1       2.722   7.335  18.532  0.00  0.00    +0.000 A 
ATOM      7  N   UNL     1       2.764   8.417  17.675  0.00  0.00    +0.000 NA
ATOM      8  C   UNL     1       1.966   9.313  18.211  0.00  0.00    +0.000 A 
ATOM      9  N   UNL     1       1.408   8.866  19.378  0.00  0.00    +0.000 N 
ENDROOT
BRANCH   1  13
ATOM     10  C   UNL     1       5.785   4.690  15.277  0.00  0.00    +0.000 A 
ATOM     11  C   UNL     1       5.127   3.778  16.101  0.00  0.00    +0.000 A 
ATOM     12  C   UNL     1       4.327   4.225  17.158  0.00  0.00    +0.000 A 
ATOM     13  C   UNL     1       4.168   5.596  17.419  0.00  0.00    +0.000 A 
ATOM     14  C   UNL     1       4.868   6.494  16.595  0.00  0.00    +0.000 A 
ATOM     15  C   UNL     1       5.667   6.051  15.537  0.00  0.00    +0.000 A 
BRANCH  10  17
ATOM     16  C   UNL     1       5.807   3.652  13.158  0.00  0.00    +0.000 C 
ATOM     17  O   UNL     1       6.539   4.143  14.276  0.00  0.00    +0.000 OA
ENDBRANCH  10  17
ENDBRANCH   1  13
BRANCH   9  18
ATOM     18  C1* UNL     1       0.419   9.579  20.157  0.00  0.00    +0.000 C 
ATOM     19  O4* UNL     1       0.018  10.768  19.444  0.00  0.00    +0.000 OA
ATOM     20  C4* UNL     1      -0.037  11.872  20.382  0.00  0.00    +0.000 C 
ATOM     21  C3* UNL     1       0.103  11.273  21.779  0.00  0.00    +0.000 C 
ATOM     22  C2* UNL     1       0.895   9.997  21.548  0.00  0.00    +0.000 C 
BRANCH  21  23
ATOM     23  O3* UNL     1      -1.175  10.895  22.334  0.00  0.00    +0.000 OA
ATOM     24  H3* UNL     1      -1.055  10.648  23.269  0.00  0.00    +0.000 HD
ENDBRANCH  21  23
BRANCH  22  25
ATOM     25  O2* UNL     1       0.604   9.007  22.537  0.00  0.00    +0.000 OA
ATOM     26  H2* UNL     1       0.093   9.466  23.238  0.00  0.00    +0.000 HD
ENDBRANCH  22  25
BRANCH  20  27
ATOM     27  C5* UNL     1       1.060  12.882  20.042  0.00  0.00    +0.000 C 
BRANCH  27  28
ATOM     28  O5* UNL     1       1.732  13.286  21.233  0.00  0.00    +0.000 OA
ATOM     29  H5* UNL     1       2.665  13.014  21.124  0.00  0.00    +0.000 HD
ENDBRANCH  27  28
ENDBRANCH  20  27
ENDBRANCH   9  18
TORSDOF 7
ENDMDL
