MODEL 1
REMARK VINA RESULT:      -7.5      0.000      0.000
REMARK  Name = 
REMARK  5 active torsions:
REMARK  status: ('A' for Active; 'I' for Inactive)
REMARK    1  A    between atoms: C_7  and  C_8
REMARK    2  A    between atoms: C_12  and  N_13
REMARK    3  A    between atoms: N_13  and  C_14
REMARK    4  A    between atoms: N_19  and  C_20
REMARK    5  A    between atoms: C_23  and  N_24
REMARK                            x       y       z     vdW  Elec       q    Type
REMARK                         _______ _______ _______ _____ _____    ______ ____
ROOT
ATOM      1  C   UNL     1      -3.625  11.224  17.337  0.00  0.00    +0.000 A 
ATOM      2  C   UNL     1      -3.318  10.168  16.470  0.00  0.00    +0.000 A 
ATOM      3  N   UNL     1      -2.039   9.791  16.544  0.00  0.00    +0.000 NA
ATOM      4  N   UNL     1      -1.515  10.542  17.560  0.00  0.00    +0.000 N 
ATOM      5  C   UNL     1      -0.242  10.408  18.162  0.00  0.00    +0.000 A 
ATOM      6  C   UNL     1      -0.021  11.167  19.260  0.00  0.00    +0.000 A 
ATOM      7  C   UNL     1      -0.998  12.239  19.644  0.00  0.00    +0.000 A 
ATOM      8  N   UNL     1      -0.601  13.134  20.637  0.00  0.00    +0.000 N 
ATOM      9  N   UNL     1      -2.150  12.360  19.029  0.00  0.00    +0.000 NA
ATOM     10  C   UNL     1      -2.452  11.464  18.043  0.00  0.00    +0.000 A 
ATOM     11  H   UNL     1       0.363  13.099  20.945  0.00  0.00    +0.000 HD
ENDROOT
BRANCH   1  18
ATOM     12  O   UNL     1      -7.372   9.714  20.749  0.00  0.00    +0.000 OA
ATOM     13  C   UNL     1      -7.035  10.514  19.895  0.00  0.00    +0.000 C 
ATOM     14  N   UNL     1      -7.785  11.587  19.472  0.00  0.00    +0.000 N 
ATOM     15  C   UNL     1      -7.141  12.286  18.496  0.00  0.00    +0.000 C 
ATOM     16  O   UNL     1      -7.517  13.281  17.906  0.00  0.00    +0.000 OA
ATOM     17  C   UNL     1      -5.853  11.566  18.308  0.00  0.00    +0.000 C 
ATOM     18  C   UNL     1      -4.868  11.903  17.461  0.00  0.00    +0.000 C 
ATOM     19  N   UNL     1      -5.869  10.534  19.189  0.00  0.00    +0.000 N 
ATOM     20  H   UNL     1      -8.692  11.811  19.838  0.00  0.00    +0.000 HD
ATOM     21  H   UNL     1      -5.141   9.808  19.257  0.00  0.00    +0.000 HD
ENDBRANCH   1  18
BRANCH   8  22
ATOM     22  C   UNL     1      -1.472  13.774  21.550  0.00  0.00    +0.000 A 
ATOM     23  C   UNL     1      -1.838  15.108  21.353  0.00  0.00    +0.000 A 
ATOM     24  C   UNL     1      -2.759  15.752  22.184  0.00  0.00    +0.000 A 
ATOM     25  C   UNL     1      -3.345  15.116  23.287  0.00  0.00    +0.000 A 
ATOM     26  C   UNL     1      -2.937  13.796  23.526  0.00  0.00    +0.000 A 
ATOM     27  C   UNL     1      -2.010  13.138  22.688  0.00  0.00    +0.000 A 
ATOM     28 CL   UNL     1      -1.566  11.521  23.114  0.00  0.00    +0.000 Cl
BRANCH  25  29
ATOM     29  N   UNL     1      -4.265  15.752  24.086  0.00  0.00    +0.000 N 
ATOM     30  C   UNL     1      -5.715  15.719  23.828  0.00  0.00    +0.000 C 
ATOM     31  C   UNL     1      -6.272  17.145  23.707  0.00  0.00    +0.000 C 
ATOM     32  O   UNL     1      -5.934  17.943  24.854  0.00  0.00    +0.000 OA
ATOM     33  C   UNL     1      -4.505  18.023  25.004  0.00  0.00    +0.000 C 
ATOM     34  C   UNL     1      -3.875  16.629  25.201  0.00  0.00    +0.000 C 
ENDBRANCH  25  29
ENDBRANCH   8  22
BRANCH   5  35
ATOM     35  N   UNL     1       0.639   9.448  17.674  0.00  0.00    +0.000 N 
ATOM     36  H   UNL     1       0.634   9.430  16.640  0.00  0.00    +0.000 HD
BRANCH  35  37
ATOM     37  C   UNL     1       1.899   9.078  18.362  0.00  0.00    +0.000 C 
ATOM     38  C   UNL     1       2.035   7.929  19.330  0.00  0.00    +0.000 C 
ATOM     39  C   UNL     1       2.580   7.795  17.933  0.00  0.00    +0.000 C 
ENDBRANCH  35  37
ENDBRANCH   5  35
TORSDOF 5
ENDMDL
MODEL 2
REMARK VINA RESULT:      -7.3      0.993      1.278
REMARK  Name = 
REMARK  5 active torsions:
REMARK  status: ('A' for Active; 'I' for Inactive)
REMARK    1  A    between atoms: C_7  and  C_8
REMARK    2  A    between atoms: C_12  and  N_13
REMARK    3  A    between atoms: N_13  and  C_14
REMARK    4  A    between atoms: N_19  and  C_20
REMARK    5  A    between atoms: C_23  and  N_24
REMARK                            x       y       z     vdW  Elec       q    Type
REMARK                         _______ _______ _______ _____ _____    ______ ____
ROOT
ATOM      1  C   UNL     1      -3.638  11.132  17.149  0.00  0.00    +0.000 A 
ATOM      2  C   UNL     1      -3.313  10.044  16.329  0.00  0.00    +0.000 A 
ATOM      3  N   UNL     1      -2.038   9.667  16.449  0.00  0.00    +0.000 NA
ATOM      4  N   UNL     1      -1.537  10.453  17.450  0.00  0.00    +0.000 N 
ATOM      5  C   UNL     1      -0.281  10.339  18.089  0.00  0.00    +0.000 A 
ATOM      6  C   UNL     1      -0.085  11.136  19.164  0.00  0.00    +0.000 A 
ATOM      7  C   UNL     1      -1.068  12.224  19.484  0.00  0.00    +0.000 A 
ATOM      8  N   UNL     1      -0.693  13.153  20.455  0.00  0.00    +0.000 N 
ATOM      9  N   UNL     1      -2.204  12.325  18.836  0.00  0.00    +0.000 NA
ATOM     10  C   UNL     1      -2.483  11.395  17.875  0.00  0.00    +0.000 A 
ATOM     11  H   UNL     1       0.262  13.127  20.787  0.00  0.00    +0.000 HD
ENDROOT
BRANCH   1  18
ATOM     12  O   UNL     1      -7.315  10.022  20.785  0.00  0.00    +0.000 OA
ATOM     13  C   UNL     1      -6.997  10.718  19.837  0.00  0.00    +0.000 C 
ATOM     14  N   UNL     1      -7.760  11.732  19.307  0.00  0.00    +0.000 N 
ATOM     15  C   UNL     1      -7.137  12.314  18.243  0.00  0.00    +0.000 C 
ATOM     16  O   UNL     1      -7.529  13.232  17.548  0.00  0.00    +0.000 OA
ATOM     17  C   UNL     1      -5.850  11.580  18.116  0.00  0.00    +0.000 C 
ATOM     18  C   UNL     1      -4.882  11.818  17.217  0.00  0.00    +0.000 C 
ATOM     19  N   UNL     1      -5.845  10.658  19.112  0.00  0.00    +0.000 N 
ATOM     20  H   UNL     1      -8.661  11.996  19.661  0.00  0.00    +0.000 HD
ATOM     21  H   UNL     1      -5.112   9.947  19.251  0.00  0.00    +0.000 HD
ENDBRANCH   1  18
BRANCH   8  22
ATOM     22  C   UNL     1      -1.585  13.827  21.321  0.00  0.00    +0.000 A 
ATOM     23  C   UNL     1      -2.182  13.143  22.384  0.00  0.00    +0.000 A 
ATOM     24  C   UNL     1      -3.004  13.791  23.310  0.00  0.00    +0.000 A 
ATOM     25  C   UNL     1      -3.314  15.155  23.212  0.00  0.00    +0.000 A 
ATOM     26  C   UNL     1      -2.767  15.833  22.114  0.00  0.00    +0.000 A 
ATOM     27  C   UNL     1      -1.932  15.186  21.177  0.00  0.00    +0.000 A 
ATOM     28 CL   UNL     1      -1.350  16.131  19.849  0.00  0.00    +0.000 Cl
BRANCH  25  29
ATOM     29  N   UNL     1      -4.107  15.786  24.140  0.00  0.00    +0.000 N 
ATOM     30  C   UNL     1      -5.566  15.925  23.991  0.00  0.00    +0.000 C 
ATOM     31  C   UNL     1      -5.976  17.403  24.059  0.00  0.00    +0.000 C 
ATOM     32  O   UNL     1      -5.481  18.034  25.253  0.00  0.00    +0.000 OA
ATOM     33  C   UNL     1      -4.045  17.956  25.301  0.00  0.00    +0.000 C 
ATOM     34  C   UNL     1      -3.555  16.494  25.306  0.00  0.00    +0.000 C 
ENDBRANCH  25  29
ENDBRANCH   8  22
BRANCH   5  35
ATOM     35  N   UNL     1       0.610   9.359  17.659  0.00  0.00    +0.000 N 
ATOM     36  H   UNL     1       0.586   9.261  16.630  0.00  0.00    +0.000 HD
BRANCH  35  37
ATOM     37  C   UNL     1       1.889   9.066  18.348  0.00  0.00    +0.000 C 
ATOM     38  C   UNL     1       2.175   7.793  19.105  0.00  0.00    +0.000 C 
ATOM     39  C   UNL     1       2.782   8.002  17.743  0.00  0.00    +0.000 C 
ENDBRANCH  35  37
ENDBRANCH   5  35
TORSDOF 5
ENDMDL
MODEL 3
REMARK VINA RESULT:      -7.3      5.070     10.412
REMARK  Name = 
REMARK  5 active torsions:
REMARK  status: ('A' for Active; 'I' for Inactive)
REMARK    1  A    between atoms: C_7  and  C_8
REMARK    2  A    between atoms: C_12  and  N_13
REMARK    3  A    between atoms: N_13  and  C_14
REMARK    4  A    between atoms: N_19  and  C_20
REMARK    5  A    between atoms: C_23  and  N_24
REMARK                            x       y       z     vdW  Elec       q    Type
REMARK                         _______ _______ _______ _____ _____    ______ ____
ROOT
ATOM      1  C   UNL     1       1.727  14.031  21.040  0.00  0.00    +0.000 A 
ATOM      2  C   UNL     1       1.273  15.034  21.906  0.00  0.00    +0.000 A 
ATOM      3  N   UNL     1       0.135  14.708  22.525  0.00  0.00    +0.000 NA
ATOM      4  N   UNL     1      -0.110  13.418  22.142  0.00  0.00    +0.000 N 
ATOM      5  C   UNL     1      -1.097  12.541  22.649  0.00  0.00    +0.000 A 
ATOM      6  C   UNL     1      -1.031  11.259  22.221  0.00  0.00    +0.000 A 
ATOM      7  C   UNL     1      -0.105  10.886  21.101  0.00  0.00    +0.000 A 
ATOM      8  N   UNL     1      -0.253   9.612  20.552  0.00  0.00    +0.000 N 
ATOM      9  N   UNL     1       0.766  11.743  20.626  0.00  0.00    +0.000 NA
ATOM     10  C   UNL     1       0.827  12.984  21.196  0.00  0.00    +0.000 A 
ATOM     11  H   UNL     1      -1.056   9.067  20.839  0.00  0.00    +0.000 HD
ENDROOT
BRANCH   1  18
ATOM     12  O   UNL     1       2.247  17.627  17.198  0.00  0.00    +0.000 OA
ATOM     13  C   UNL     1       2.744  16.681  17.781  0.00  0.00    +0.000 C 
ATOM     14  N   UNL     1       3.978  16.139  17.505  0.00  0.00    +0.000 N 
ATOM     15  C   UNL     1       4.245  15.080  18.321  0.00  0.00    +0.000 C 
ATOM     16  O   UNL     1       5.238  14.378  18.346  0.00  0.00    +0.000 OA
ATOM     17  C   UNL     1       3.048  14.970  19.196  0.00  0.00    +0.000 C 
ATOM     18  C   UNL     1       2.863  14.081  20.185  0.00  0.00    +0.000 C 
ATOM     19  N   UNL     1       2.212  15.970  18.814  0.00  0.00    +0.000 N 
ATOM     20  H   UNL     1       4.589  16.481  16.787  0.00  0.00    +0.000 HD
ATOM     21  H   UNL     1       1.265  16.119  19.190  0.00  0.00    +0.000 HD
ENDBRANCH   1  18
BRANCH   8  22
ATOM     22  C   UNL     1       0.792   8.845  19.987  0.00  0.00    +0.000 A 
ATOM     23  C   UNL     1       1.420   7.851  20.744  0.00  0.00    +0.000 A 
ATOM     24  C   UNL     1       2.400   7.016  20.199  0.00  0.00    +0.000 A 
ATOM     25  C   UNL     1       2.842   7.145  18.875  0.00  0.00    +0.000 A 
ATOM     26  C   UNL     1       2.259   8.179  18.129  0.00  0.00    +0.000 A 
ATOM     27  C   UNL     1       1.266   9.023  18.671  0.00  0.00    +0.000 A 
ATOM     28 CL   UNL     1       0.653  10.281  17.654  0.00  0.00    +0.000 Cl
BRANCH  25  29
ATOM     29  N   UNL     1       3.792   6.306  18.343  0.00  0.00    +0.000 N 
ATOM     30  C   UNL     1       4.319   5.131  19.057  0.00  0.00    +0.000 C 
ATOM     31  C   UNL     1       5.848   5.213  19.173  0.00  0.00    +0.000 C 
ATOM     32  O   UNL     1       6.465   5.400  17.887  0.00  0.00    +0.000 OA
ATOM     33  C   UNL     1       5.988   6.611  17.276  0.00  0.00    +0.000 C 
ATOM     34  C   UNL     1       4.462   6.577  17.061  0.00  0.00    +0.000 C 
ENDBRANCH  25  29
ENDBRANCH   8  22
BRANCH   5  35
ATOM     35  N   UNL     1      -1.980  13.006  23.620  0.00  0.00    +0.000 N 
ATOM     36  H   UNL     1      -1.660  13.908  24.011  0.00  0.00    +0.000 HD
BRANCH  35  37
ATOM     37  C   UNL     1      -3.440  12.753  23.576  0.00  0.00    +0.000 C 
ATOM     38  C   UNL     1      -4.307  12.559  24.796  0.00  0.00    +0.000 C 
ATOM     39  C   UNL     1      -4.356  13.864  24.046  0.00  0.00    +0.000 C 
ENDBRANCH  35  37
ENDBRANCH   5  35
TORSDOF 5
ENDMDL
MODEL 4
REMARK VINA RESULT:      -7.2      5.167     10.751
REMARK  Name = 
REMARK  5 active torsions:
REMARK  status: ('A' for Active; 'I' for Inactive)
REMARK    1  A    between atoms: C_7  and  C_8
REMARK    2  A    between atoms: C_12  and  N_13
REMARK    3  A    between atoms: N_13  and  C_14
REMARK    4  A    between atoms: N_19  and  C_20
REMARK    5  A    between atoms: C_23  and  N_24
REMARK                            x       y       z     vdW  Elec       q    Type
REMARK                         _______ _______ _______ _____ _____    ______ ____
ROOT
ATOM      1  C   UNL     1       1.894  13.308  20.493  0.00  0.00    +0.000 A 
ATOM      2  C   UNL     1       1.348  14.174  21.450  0.00  0.00    +0.000 A 
ATOM      3  N   UNL     1       0.313  13.641  22.102  0.00  0.00    +0.000 NA
ATOM      4  N   UNL     1       0.239  12.354  21.643  0.00  0.00    +0.000 N 
ATOM      5  C   UNL     1      -0.574  11.308  22.137  0.00  0.00    +0.000 A 
ATOM      6  C   UNL     1      -0.344  10.080  21.617  0.00  0.00    +0.000 A 
ATOM      7  C   UNL     1       0.558   9.922  20.428  0.00  0.00    +0.000 A 
ATOM      8  N   UNL     1       0.568   8.677  19.799  0.00  0.00    +0.000 N 
ATOM      9  N   UNL     1       1.261  10.930  19.970  0.00  0.00    +0.000 NA
ATOM     10  C   UNL     1       1.171  12.128  20.621  0.00  0.00    +0.000 A 
ATOM     11  H   UNL     1      -0.126   7.999  20.087  0.00  0.00    +0.000 HD
ENDROOT
BRANCH   1  18
ATOM     12  O   UNL     1       2.080  17.715  17.577  0.00  0.00    +0.000 OA
ATOM     13  C   UNL     1       2.628  16.670  17.880  0.00  0.00    +0.000 C 
ATOM     14  N   UNL     1       3.836  16.237  17.387  0.00  0.00    +0.000 N 
ATOM     15  C   UNL     1       4.175  15.023  17.908  0.00  0.00    +0.000 C 
ATOM     16  O   UNL     1       5.169  14.358  17.687  0.00  0.00    +0.000 OA
ATOM     17  C   UNL     1       3.054  14.683  18.824  0.00  0.00    +0.000 C 
ATOM     18  C   UNL     1       2.954  13.583  19.587  0.00  0.00    +0.000 C 
ATOM     19  N   UNL     1       2.186  15.725  18.756  0.00  0.00    +0.000 N 
ATOM     20  H   UNL     1       4.385  16.752  16.724  0.00  0.00    +0.000 HD
ATOM     21  H   UNL     1       1.272  15.759  19.230  0.00  0.00    +0.000 HD
ENDBRANCH   1  18
BRANCH   8  22
ATOM     22  C   UNL     1       1.679   8.114  19.129  0.00  0.00    +0.000 A 
ATOM     23  C   UNL     1       2.220   8.751  18.009  0.00  0.00    +0.000 A 
ATOM     24  C   UNL     1       3.366   8.272  17.368  0.00  0.00    +0.000 A 
ATOM     25  C   UNL     1       4.024   7.106  17.782  0.00  0.00    +0.000 A 
ATOM     26  C   UNL     1       3.452   6.429  18.869  0.00  0.00    +0.000 A 
ATOM     27  C   UNL     1       2.297   6.909  19.523  0.00  0.00    +0.000 A 
ATOM     28 CL   UNL     1       1.674   5.961  20.830  0.00  0.00    +0.000 Cl
BRANCH  25  29
ATOM     29  N   UNL     1       5.162   6.655  17.158  0.00  0.00    +0.000 N 
ATOM     30  C   UNL     1       5.192   6.227  15.749  0.00  0.00    +0.000 C 
ATOM     31  C   UNL     1       5.721   4.790  15.634  0.00  0.00    +0.000 C 
ATOM     32  O   UNL     1       6.996   4.643  16.282  0.00  0.00    +0.000 OA
ATOM     33  C   UNL     1       6.889   4.980  17.677  0.00  0.00    +0.000 C 
ATOM     34  C   UNL     1       6.428   6.438  17.876  0.00  0.00    +0.000 C 
ENDBRANCH  25  29
ENDBRANCH   8  22
BRANCH   5  35
ATOM     35  N   UNL     1      -1.455  11.572  23.181  0.00  0.00    +0.000 N 
ATOM     36  H   UNL     1      -0.943  11.811  24.047  0.00  0.00    +0.000 HD
BRANCH  35  37
ATOM     37  C   UNL     1      -2.791  12.181  22.981  0.00  0.00    +0.000 C 
ATOM     38  C   UNL     1      -3.805  12.388  24.078  0.00  0.00    +0.000 C 
ATOM     39  C   UNL     1      -3.023  13.563  23.555  0.00  0.00    +0.000 C 
ENDBRANCH  35  37
ENDBRANCH   5  35
TORSDOF 5
ENDMDL
MODEL 5
REMARK VINA RESULT:      -7.2      5.143     10.542
REMARK  Name = 
REMARK  5 active torsions:
REMARK  status: ('A' for Active; 'I' for Inactive)
REMARK    1  A    between atoms: C_7  and  C_8
REMARK    2  A    between atoms: C_12  and  N_13
REMARK    3  A    between atoms: N_13  and  C_14
REMARK    4  A    between atoms: N_19  and  C_20
REMARK    5  A    between atoms: C_23  and  N_24
REMARK                            x       y       z     vdW  Elec       q    Type
REMARK                         _______ _______ _______ _____ _____    ______ ____
ROOT
ATOM      1  C   UNL     1       1.839  13.895  20.903  0.00  0.00    +0.000 A 
ATOM      2  C   UNL     1       1.360  14.894  21.761  0.00  0.00    +0.000 A 
ATOM      3  N   UNL     1       0.224  14.551  22.373  0.00  0.00    +0.000 NA
ATOM      4  N   UNL     1       0.004  13.255  21.994  0.00  0.00    +0.000 N 
ATOM      5  C   UNL     1      -0.972  12.364  22.497  0.00  0.00    +0.000 A 
ATOM      6  C   UNL     1      -0.881  11.082  22.075  0.00  0.00    +0.000 A 
ATOM      7  C   UNL     1       0.060  10.720  20.964  0.00  0.00    +0.000 A 
ATOM      8  N   UNL     1      -0.062   9.442  20.419  0.00  0.00    +0.000 N 
ATOM      9  N   UNL     1       0.920  11.590  20.492  0.00  0.00    +0.000 NA
ATOM     10  C   UNL     1       0.956  12.834  21.057  0.00  0.00    +0.000 A 
ATOM     11  H   UNL     1      -0.858   8.883  20.702  0.00  0.00    +0.000 HD
ENDROOT
BRANCH   1  18
ATOM     12  O   UNL     1       2.395  17.579  17.149  0.00  0.00    +0.000 OA
ATOM     13  C   UNL     1       2.886  16.617  17.713  0.00  0.00    +0.000 C 
ATOM     14  N   UNL     1       4.119  16.077  17.432  0.00  0.00    +0.000 N 
ATOM     15  C   UNL     1       4.377  14.999  18.225  0.00  0.00    +0.000 C 
ATOM     16  O   UNL     1       5.368  14.292  18.239  0.00  0.00    +0.000 OA
ATOM     17  C   UNL     1       3.175  14.873  19.090  0.00  0.00    +0.000 C 
ATOM     18  C   UNL     1       2.979  13.962  20.056  0.00  0.00    +0.000 C 
ATOM     19  N   UNL     1       2.345  15.884  18.726  0.00  0.00    +0.000 N 
ATOM     20  H   UNL     1       4.736  16.434  16.727  0.00  0.00    +0.000 HD
ATOM     21  H   UNL     1       1.395  16.028  19.100  0.00  0.00    +0.000 HD
ENDBRANCH   1  18
BRANCH   8  22
ATOM     22  C   UNL     1       1.000   8.689  19.866  0.00  0.00    +0.000 A 
ATOM     23  C   UNL     1       1.538   7.610  20.573  0.00  0.00    +0.000 A 
ATOM     24  C   UNL     1       2.531   6.792  20.028  0.00  0.00    +0.000 A 
ATOM     25  C   UNL     1       3.079   7.022  18.758  0.00  0.00    +0.000 A 
ATOM     26  C   UNL     1       2.587   8.139  18.069  0.00  0.00    +0.000 A 
ATOM     27  C   UNL     1       1.580   8.967  18.611  0.00  0.00    +0.000 A 
ATOM     28 CL   UNL     1       1.086  10.333  17.670  0.00  0.00    +0.000 Cl
BRANCH  25  29
ATOM     29  N   UNL     1       4.041   6.199  18.224  0.00  0.00    +0.000 N 
ATOM     30  C   UNL     1       5.121   6.686  17.348  0.00  0.00    +0.000 C 
ATOM     31  C   UNL     1       5.108   5.934  16.010  0.00  0.00    +0.000 C 
ATOM     32  O   UNL     1       5.155   4.510  16.203  0.00  0.00    +0.000 OA
ATOM     33  C   UNL     1       4.027   4.074  16.982  0.00  0.00    +0.000 C 
ATOM     34  C   UNL     1       4.008   4.736  18.375  0.00  0.00    +0.000 C 
ENDBRANCH  25  29
ENDBRANCH   8  22
BRANCH   5  35
ATOM     35  N   UNL     1      -1.870  12.818  23.459  0.00  0.00    +0.000 N 
ATOM     36  H   UNL     1      -1.696  13.810  23.691  0.00  0.00    +0.000 HD
BRANCH  35  37
ATOM     37  C   UNL     1      -3.262  12.319  23.569  0.00  0.00    +0.000 C 
ATOM     38  C   UNL     1      -4.162  12.564  24.754  0.00  0.00    +0.000 C 
ATOM     39  C   UNL     1      -4.379  13.338  23.482  0.00  0.00    +0.000 C 
ENDBRANCH  35  37
ENDBRANCH   5  35
TORSDOF 5
ENDMDL
MODEL 6
REMARK VINA RESULT:      -7.1      6.260     11.152
REMARK  Name = 
REMARK  5 active torsions:
REMARK  status: ('A' for Active; 'I' for Inactive)
REMARK    1  A    between atoms: C_7  and  C_8
REMARK    2  A    between atoms: C_12  and  N_13
REMARK    3  A    between atoms: N_13  and  C_14
REMARK    4  A    between atoms: N_19  and  C_20
REMARK    5  A    between atoms: C_23  and  N_24
REMARK                            x       y       z     vdW  Elec       q    Type
REMARK                         _______ _______ _______ _____ _____    ______ ____
ROOT
ATOM      1  C   UNL     1       4.330  14.794  18.151  0.00  0.00    +0.000 A 
ATOM      2  C   UNL     1       4.372  16.178  18.367  0.00  0.00    +0.000 A 
ATOM      3  N   UNL     1       3.163  16.708  18.567  0.00  0.00    +0.000 NA
ATOM      4  N   UNL     1       2.314  15.636  18.592  0.00  0.00    +0.000 N 
ATOM      5  C   UNL     1       0.945  15.628  18.946  0.00  0.00    +0.000 A 
ATOM      6  C   UNL     1       0.364  14.411  19.049  0.00  0.00    +0.000 A 
ATOM      7  C   UNL     1       1.094  13.186  18.582  0.00  0.00    +0.000 A 
ATOM      8  N   UNL     1       0.359  12.003  18.497  0.00  0.00    +0.000 N 
ATOM      9  N   UNL     1       2.352  13.242  18.218  0.00  0.00    +0.000 NA
ATOM     10  C   UNL     1       2.993  14.446  18.298  0.00  0.00    +0.000 A 
ATOM     11  H   UNL     1      -0.644  12.062  18.619  0.00  0.00    +0.000 HD
ENDROOT
BRANCH   1  18
ATOM     12  O   UNL     1       9.334  16.498  18.001  0.00  0.00    +0.000 OA
ATOM     13  C   UNL     1       8.577  15.551  17.885  0.00  0.00    +0.000 C 
ATOM     14  N   UNL     1       8.958  14.259  17.607  0.00  0.00    +0.000 N 
ATOM     15  C   UNL     1       7.878  13.432  17.526  0.00  0.00    +0.000 C 
ATOM     16  O   UNL     1       7.857  12.238  17.296  0.00  0.00    +0.000 OA
ATOM     17  C   UNL     1       6.711  14.314  17.793  0.00  0.00    +0.000 C 
ATOM     18  C   UNL     1       5.423  13.938  17.845  0.00  0.00    +0.000 C 
ATOM     19  N   UNL     1       7.220  15.554  18.009  0.00  0.00    +0.000 N 
ATOM     20  H   UNL     1       9.911  13.976  17.474  0.00  0.00    +0.000 HD
ATOM     21  H   UNL     1       6.655  16.403  18.157  0.00  0.00    +0.000 HD
ENDBRANCH   1  18
BRANCH   8  22
ATOM     22  C   UNL     1       0.886  10.704  18.687  0.00  0.00    +0.000 A 
ATOM     23  C   UNL     1       1.553  10.058  17.642  0.00  0.00    +0.000 A 
ATOM     24  C   UNL     1       2.158   8.810  17.812  0.00  0.00    +0.000 A 
ATOM     25  C   UNL     1       2.105   8.111  19.026  0.00  0.00    +0.000 A 
ATOM     26  C   UNL     1       1.386   8.726  20.061  0.00  0.00    +0.000 A 
ATOM     27  C   UNL     1       0.775   9.988  19.897  0.00  0.00    +0.000 A 
ATOM     28 CL   UNL     1      -0.110  10.621  21.242  0.00  0.00    +0.000 Cl
BRANCH  25  29
ATOM     29  N   UNL     1       2.720   6.893  19.189  0.00  0.00    +0.000 N 
ATOM     30  C   UNL     1       3.792   6.407  18.303  0.00  0.00    +0.000 C 
ATOM     31  C   UNL     1       3.414   5.049  17.695  0.00  0.00    +0.000 C 
ATOM     32  O   UNL     1       3.064   4.094  18.712  0.00  0.00    +0.000 OA
ATOM     33  C   UNL     1       1.951   4.574  19.486  0.00  0.00    +0.000 C 
ATOM     34  C   UNL     1       2.278   5.907  20.188  0.00  0.00    +0.000 C 
ENDBRANCH  25  29
ENDBRANCH   8  22
BRANCH   5  35
ATOM     35  N   UNL     1       0.324  16.831  19.271  0.00  0.00    +0.000 N 
ATOM     36  H   UNL     1       0.976  17.626  19.165  0.00  0.00    +0.000 HD
BRANCH  35  37
ATOM     37  C   UNL     1      -1.118  17.088  19.041  0.00  0.00    +0.000 C 
ATOM     38  C   UNL     1      -1.886  18.233  19.653  0.00  0.00    +0.000 C 
ATOM     39  C   UNL     1      -1.488  18.293  18.202  0.00  0.00    +0.000 C 
ENDBRANCH  35  37
ENDBRANCH   5  35
TORSDOF 5
ENDMDL
MODEL 7
REMARK VINA RESULT:      -7.0      5.554     10.758
REMARK  Name = 
REMARK  5 active torsions:
REMARK  status: ('A' for Active; 'I' for Inactive)
REMARK    1  A    between atoms: C_7  and  C_8
REMARK    2  A    between atoms: C_12  and  N_13
REMARK    3  A    between atoms: N_13  and  C_14
REMARK    4  A    between atoms: N_19  and  C_20
REMARK    5  A    between atoms: C_23  and  N_24
REMARK                            x       y       z     vdW  Elec       q    Type
REMARK                         _______ _______ _______ _____ _____    ______ ____
ROOT
ATOM      1  C   UNL     1       2.706  14.733  18.658  0.00  0.00    +0.000 A 
ATOM      2  C   UNL     1       2.369  16.041  19.030  0.00  0.00    +0.000 A 
ATOM      3  N   UNL     1       1.076  16.177  19.332  0.00  0.00    +0.000 NA
ATOM      4  N   UNL     1       0.569  14.909  19.263  0.00  0.00    +0.000 N 
ATOM      5  C   UNL     1      -0.716  14.471  19.661  0.00  0.00    +0.000 A 
ATOM      6  C   UNL     1      -0.921  13.134  19.644  0.00  0.00    +0.000 A 
ATOM      7  C   UNL     1       0.093  12.225  19.013  0.00  0.00    +0.000 A 
ATOM      8  N   UNL     1      -0.281  10.895  18.818  0.00  0.00    +0.000 N 
ATOM      9  N   UNL     1       1.257  12.678  18.614  0.00  0.00    +0.000 NA
ATOM     10  C   UNL     1       1.535  14.002  18.810  0.00  0.00    +0.000 A 
ATOM     11  H   UNL     1      -1.249  10.650  18.982  0.00  0.00    +0.000 HD
ENDROOT
BRANCH   1  18
ATOM     12  O   UNL     1       7.065  17.725  18.803  0.00  0.00    +0.000 OA
ATOM     13  C   UNL     1       6.582  16.640  18.531  0.00  0.00    +0.000 C 
ATOM     14  N   UNL     1       7.282  15.561  18.043  0.00  0.00    +0.000 N 
ATOM     15  C   UNL     1       6.459  14.497  17.824  0.00  0.00    +0.000 C 
ATOM     16  O   UNL     1       6.747  13.394  17.400  0.00  0.00    +0.000 OA
ATOM     17  C   UNL     1       5.111  14.976  18.231  0.00  0.00    +0.000 C 
ATOM     18  C   UNL     1       3.974  14.264  18.216  0.00  0.00    +0.000 C 
ATOM     19  N   UNL     1       5.280  16.257  18.650  0.00  0.00    +0.000 N 
ATOM     20  H   UNL     1       8.270  15.570  17.868  0.00  0.00    +0.000 HD
ATOM     21  H   UNL     1       4.517  16.887  18.935  0.00  0.00    +0.000 HD
ENDBRANCH   1  18
BRANCH   8  22
ATOM     22  C   UNL     1       0.603   9.792  18.838  0.00  0.00    +0.000 A 
ATOM     23  C   UNL     1       1.213   9.359  17.657  0.00  0.00    +0.000 A 
ATOM     24  C   UNL     1       2.154   8.326  17.647  0.00  0.00    +0.000 A 
ATOM     25  C   UNL     1       2.518   7.633  18.810  0.00  0.00    +0.000 A 
ATOM     26  C   UNL     1       1.866   8.022  19.989  0.00  0.00    +0.000 A 
ATOM     27  C   UNL     1       0.918   9.067  20.007  0.00  0.00    +0.000 A 
ATOM     28 CL   UNL     1       0.161   9.425  21.522  0.00  0.00    +0.000 Cl
BRANCH  25  29
ATOM     29  N   UNL     1       3.460   6.632  18.792  0.00  0.00    +0.000 N 
ATOM     30  C   UNL     1       4.444   6.471  17.709  0.00  0.00    +0.000 C 
ATOM     31  C   UNL     1       4.344   5.067  17.095  0.00  0.00    +0.000 C 
ATOM     32  O   UNL     1       4.456   4.043  18.099  0.00  0.00    +0.000 OA
ATOM     33  C   UNL     1       3.413   4.188  19.079  0.00  0.00    +0.000 C 
ATOM     34  C   UNL     1       3.489   5.553  19.793  0.00  0.00    +0.000 C 
ENDBRANCH  25  29
ENDBRANCH   8  22
BRANCH   5  35
ATOM     35  N   UNL     1      -1.628  15.405  20.144  0.00  0.00    +0.000 N 
ATOM     36  H   UNL     1      -1.759  16.179  19.472  0.00  0.00    +0.000 HD
BRANCH  35  37
ATOM     37  C   UNL     1      -2.777  15.044  21.010  0.00  0.00    +0.000 C 
ATOM     38  C   UNL     1      -2.675  14.779  22.491  0.00  0.00    +0.000 C 
ATOM     39  C   UNL     1      -3.254  16.081  22.006  0.00  0.00    +0.000 C 
ENDBRANCH  35  37
ENDBRANCH   5  35
TORSDOF 5
ENDMDL
MODEL 8
REMARK VINA RESULT:      -7.0      5.875     10.943
REMARK  Name = 
REMARK  5 active torsions:
REMARK  status: ('A' for Active; 'I' for Inactive)
REMARK    1  A    between atoms: C_7  and  C_8
REMARK    2  A    between atoms: C_12  and  N_13
REMARK    3  A    between atoms: N_13  and  C_14
REMARK    4  A    between atoms: N_19  and  C_20
REMARK    5  A    between atoms: C_23  and  N_24
REMARK                            x       y       z     vdW  Elec       q    Type
REMARK                         _______ _______ _______ _____ _____    ______ ____
ROOT
ATOM      1  C   UNL     1       3.473  14.659  18.392  0.00  0.00    +0.000 A 
ATOM      2  C   UNL     1       3.326  16.016  18.709  0.00  0.00    +0.000 A 
ATOM      3  N   UNL     1       2.076  16.335  19.054  0.00  0.00    +0.000 NA
ATOM      4  N   UNL     1       1.406  15.142  19.071  0.00  0.00    +0.000 N 
ATOM      5  C   UNL     1       0.095  14.896  19.541  0.00  0.00    +0.000 A 
ATOM      6  C   UNL     1      -0.282  13.598  19.600  0.00  0.00    +0.000 A 
ATOM      7  C   UNL     1       0.575  12.536  18.978  0.00  0.00    +0.000 A 
ATOM      8  N   UNL     1       0.024  11.259  18.866  0.00  0.00    +0.000 N 
ATOM      9  N   UNL     1       1.769  12.813  18.510  0.00  0.00    +0.000 NA
ATOM     10  C   UNL     1       2.225  14.096  18.627  0.00  0.00    +0.000 A 
ATOM     11  H   UNL     1      -0.960  11.151  19.079  0.00  0.00    +0.000 HD
ENDROOT
BRANCH   1  18
ATOM     12  O   UNL     1       8.239  16.948  18.498  0.00  0.00    +0.000 OA
ATOM     13  C   UNL     1       7.593  15.953  18.223  0.00  0.00    +0.000 C 
ATOM     14  N   UNL     1       8.113  14.786  17.713  0.00  0.00    +0.000 N 
ATOM     15  C   UNL     1       7.133  13.863  17.497  0.00  0.00    +0.000 C 
ATOM     16  O   UNL     1       7.243  12.734  17.057  0.00  0.00    +0.000 OA
ATOM     17  C   UNL     1       5.881  14.537  17.929  0.00  0.00    +0.000 C 
ATOM     18  C   UNL     1       4.648  14.007  17.926  0.00  0.00    +0.000 C 
ATOM     19  N   UNL     1       6.249  15.772  18.358  0.00  0.00    +0.000 N 
ATOM     20  H   UNL     1       9.087  14.646  17.522  0.00  0.00    +0.000 HD
ATOM     21  H   UNL     1       5.595  16.508  18.662  0.00  0.00    +0.000 HD
ENDBRANCH   1  18
BRANCH   8  22
ATOM     22  C   UNL     1       0.757  10.051  18.908  0.00  0.00    +0.000 A 
ATOM     23  C   UNL     1       1.343   9.544  17.744  0.00  0.00    +0.000 A 
ATOM     24  C   UNL     1       2.143   8.399  17.758  0.00  0.00    +0.000 A 
ATOM     25  C   UNL     1       2.379   7.664  18.928  0.00  0.00    +0.000 A 
ATOM     26  C   UNL     1       1.745   8.132  20.088  0.00  0.00    +0.000 A 
ATOM     27  C   UNL     1       0.939   9.291  20.082  0.00  0.00    +0.000 A 
ATOM     28 CL   UNL     1       0.189   9.742  21.575  0.00  0.00    +0.000 Cl
BRANCH  25  29
ATOM     29  N   UNL     1       3.183   6.550  18.935  0.00  0.00    +0.000 N 
ATOM     30  C   UNL     1       4.215   6.295  17.915  0.00  0.00    +0.000 C 
ATOM     31  C   UNL     1       3.980   4.935  17.241  0.00  0.00    +0.000 C 
ATOM     32  O   UNL     1       3.888   3.875  18.209  0.00  0.00    +0.000 OA
ATOM     33  C   UNL     1       2.805   4.125  19.121  0.00  0.00    +0.000 C 
ATOM     34  C   UNL     1       3.003   5.446  19.891  0.00  0.00    +0.000 C 
ENDBRANCH  25  29
ENDBRANCH   8  22
BRANCH   5  35
ATOM     35  N   UNL     1      -0.666  15.963  20.011  0.00  0.00    +0.000 N 
ATOM     36  H   UNL     1      -1.493  16.122  19.411  0.00  0.00    +0.000 HD
BRANCH  35  37
ATOM     37  C   UNL     1      -0.781  16.306  21.448  0.00  0.00    +0.000 C 
ATOM     38  C   UNL     1       0.271  15.996  22.484  0.00  0.00    +0.000 C 
ATOM     39  C   UNL     1       0.116  17.406  21.979  0.00  0.00    +0.000 C 
ENDBRANCH  35  37
ENDBRANCH   5  35
TORSDOF 5
ENDMDL
MODEL 9
REMARK VINA RESULT:      -6.9      5.167     10.672
REMARK  Name = 
REMARK  5 active torsions:
REMARK  status: ('A' for Active; 'I' for Inactive)
REMARK    1  A    between atoms: C_7  and  C_8
REMARK    2  A    between atoms: C_12  and  N_13
REMARK    3  A    between atoms: N_13  and  C_14
REMARK    4  A    between atoms: N_19  and  C_20
REMARK    5  A    between atoms: C_23  and  N_24
REMARK                            x       y       z     vdW  Elec       q    Type
REMARK                         _______ _______ _______ _____ _____    ______ ____
ROOT
ATOM      1  C   UNL     1       1.747  13.358  20.701  0.00  0.00    +0.000 A 
ATOM      2  C   UNL     1       1.201  14.285  21.599  0.00  0.00    +0.000 A 
ATOM      3  N   UNL     1       0.158  13.799  22.276  0.00  0.00    +0.000 NA
ATOM      4  N   UNL     1       0.080  12.487  21.896  0.00  0.00    +0.000 N 
ATOM      5  C   UNL     1      -0.742  11.478  22.449  0.00  0.00    +0.000 A 
ATOM      6  C   UNL     1      -0.518  10.219  22.007  0.00  0.00    +0.000 A 
ATOM      7  C   UNL     1       0.390   9.983  20.835  0.00  0.00    +0.000 A 
ATOM      8  N   UNL     1       0.396   8.702  20.284  0.00  0.00    +0.000 N 
ATOM      9  N   UNL     1       1.102  10.957  20.321  0.00  0.00    +0.000 NA
ATOM     10  C   UNL     1       1.016  12.193  20.897  0.00  0.00    +0.000 A 
ATOM     11  H   UNL     1      -0.304   8.046  20.609  0.00  0.00    +0.000 HD
ENDROOT
BRANCH   1  18
ATOM     12  O   UNL     1       2.053  17.649  17.625  0.00  0.00    +0.000 OA
ATOM     13  C   UNL     1       2.572  16.601  17.967  0.00  0.00    +0.000 C 
ATOM     14  N   UNL     1       3.768  16.117  17.491  0.00  0.00    +0.000 N 
ATOM     15  C   UNL     1       4.073  14.915  18.055  0.00  0.00    +0.000 C 
ATOM     16  O   UNL     1       5.048  14.214  17.860  0.00  0.00    +0.000 OA
ATOM     17  C   UNL     1       2.944  14.639  18.983  0.00  0.00    +0.000 C 
ATOM     18  C   UNL     1       2.814  13.571  19.786  0.00  0.00    +0.000 C 
ATOM     19  N   UNL     1       2.104  15.701  18.876  0.00  0.00    +0.000 N 
ATOM     20  H   UNL     1       4.331  16.593  16.810  0.00  0.00    +0.000 HD
ATOM     21  H   UNL     1       1.192  15.778  19.348  0.00  0.00    +0.000 HD
ENDBRANCH   1  18
BRANCH   8  22
ATOM     22  C   UNL     1       1.507   8.092  19.657  0.00  0.00    +0.000 A 
ATOM     23  C   UNL     1       2.161   7.022  20.275  0.00  0.00    +0.000 A 
ATOM     24  C   UNL     1       3.210   6.340  19.653  0.00  0.00    +0.000 A 
ATOM     25  C   UNL     1       3.699   6.706  18.391  0.00  0.00    +0.000 A 
ATOM     26  C   UNL     1       3.087   7.817  17.792  0.00  0.00    +0.000 A 
ATOM     27  C   UNL     1       2.024   8.508  18.413  0.00  0.00    +0.000 A 
ATOM     28 CL   UNL     1       1.380   9.882  17.581  0.00  0.00    +0.000 Cl
BRANCH  25  29
ATOM     29  N   UNL     1       4.718   6.016  17.780  0.00  0.00    +0.000 N 
ATOM     30  C   UNL     1       6.117   6.073  18.238  0.00  0.00    +0.000 C 
ATOM     31  C   UNL     1       7.038   6.528  17.097  0.00  0.00    +0.000 C 
ATOM     32  O   UNL     1       6.874   5.709  15.926  0.00  0.00    +0.000 OA
ATOM     33  C   UNL     1       5.513   5.766  15.464  0.00  0.00    +0.000 C 
ATOM     34  C   UNL     1       4.527   5.256  16.534  0.00  0.00    +0.000 C 
ENDBRANCH  25  29
ENDBRANCH   8  22
BRANCH   5  35
ATOM     35  N   UNL     1      -1.628  11.811  23.470  0.00  0.00    +0.000 N 
ATOM     36  H   UNL     1      -1.121  12.140  24.308  0.00  0.00    +0.000 HD
BRANCH  35  37
ATOM     37  C   UNL     1      -2.981  12.363  23.222  0.00  0.00    +0.000 C 
ATOM     38  C   UNL     1      -4.060  12.473  24.270  0.00  0.00    +0.000 C 
ATOM     39  C   UNL     1      -3.312  13.706  23.839  0.00  0.00    +0.000 C 
ENDBRANCH  35  37
ENDBRANCH   5  35
TORSDOF 5
ENDMDL
