MODEL 1
REMARK VINA RESULT:      -7.2      0.000      0.000
REMARK  Name = 
REMARK  5 active torsions:
REMARK  status: ('A' for Active; 'I' for Inactive)
REMARK    1  A    between atoms: C_2  and  C_3
REMARK    2  A    between atoms: C_3  and  N_4
REMARK    3  A    between atoms: N_10  and  C_11
REMARK    4  A    between atoms: C_17  and  C_18
REMARK    5  A    between atoms: C_18  and  C_20
REMARK                            x       y       z     vdW  Elec       q    Type
REMARK                         _______ _______ _______ _____ _____    ______ ____
ROOT
ATOM      1  C   UNL     1       6.849   5.271  17.980  0.00  0.00    +0.000 A 
ATOM      2  C   UNL     1       7.667   5.552  19.081  0.00  0.00    +0.000 A 
ATOM      3  C   UNL     1       8.279   6.801  19.198  0.00  0.00    +0.000 A 
ATOM      4  C   UNL     1       8.069   7.767  18.219  0.00  0.00    +0.000 A 
ATOM      5 BR   UNL     1       8.868   9.472  18.386  0.00  0.00    +0.000 Br
ATOM      6  C   UNL     1       7.259   7.498  17.120  0.00  0.00    +0.000 A 
ATOM      7  C   UNL     1       6.610   6.257  17.007  0.00  0.00    +0.000 A 
ENDROOT
BRANCH   1  10
ATOM      8  O   UNL     1       4.534   2.595  18.113  0.00  0.00    +0.000 OA
ATOM      9  C   UNL     1       4.987   3.712  18.387  0.00  0.00    +0.000 C 
ATOM     10  N   UNL     1       6.246   4.010  17.921  0.00  0.00    +0.000 N 
ATOM     11  H   UNL     1       6.478   3.396  17.146  0.00  0.00    +0.000 HD
BRANCH   9  12
ATOM     12  C   UNL     1       4.190   4.756  19.196  0.00  0.00    +0.000 C 
BRANCH  12  13
ATOM     13  N   UNL     1       2.842   5.005  18.606  0.00  0.00    +0.000 NA
ATOM     14  C   UNL     1       2.524   6.455  18.614  0.00  0.00    +0.000 C 
ATOM     15  C   UNL     1       2.250   7.031  20.017  0.00  0.00    +0.000 C 
ATOM     16  O   UNL     1       1.220   6.306  20.701  0.00  0.00    +0.000 OA
ATOM     17  C   UNL     1       1.526   4.906  20.763  0.00  0.00    +0.000 C 
ATOM     18  C   UNL     1       1.747   4.333  19.354  0.00  0.00    +0.000 C 
ENDBRANCH  12  13
ENDBRANCH   9  12
ENDBRANCH   1  10
BRANCH   7  19
ATOM     19  C   UNL     1       5.702   6.028  15.843  0.00  0.00    +0.000 C 
ATOM     20  O   UNL     1       4.551   6.452  15.875  0.00  0.00    +0.000 OA
BRANCH  19  21
ATOM     21  C   UNL     1       6.148   5.195  14.684  0.00  0.00    +0.000 A 
ATOM     22  C   UNL     1       5.370   4.141  14.181  0.00  0.00    +0.000 A 
ATOM     23  C   UNL     1       5.745   3.494  13.002  0.00  0.00    +0.000 A 
ATOM     24  C   UNL     1       6.916   3.867  12.342  0.00  0.00    +0.000 A 
ATOM     25  C   UNL     1       7.729   4.867  12.876  0.00  0.00    +0.000 A 
ATOM     26  C   UNL     1       7.350   5.527  14.046  0.00  0.00    +0.000 A 
ENDBRANCH  19  21
ENDBRANCH   7  19
TORSDOF 5
ENDMDL
MODEL 2
REMARK VINA RESULT:      -7.2      1.142      1.631
REMARK  Name = 
REMARK  5 active torsions:
REMARK  status: ('A' for Active; 'I' for Inactive)
REMARK    1  A    between atoms: C_2  and  C_3
REMARK    2  A    between atoms: C_3  and  N_4
REMARK    3  A    between atoms: N_10  and  C_11
REMARK    4  A    between atoms: C_17  and  C_18
REMARK    5  A    between atoms: C_18  and  C_20
REMARK                            x       y       z     vdW  Elec       q    Type
REMARK                         _______ _______ _______ _____ _____    ______ ____
ROOT
ATOM      1  C   UNL     1       6.098   4.507  18.266  0.00  0.00    +0.000 A 
ATOM      2  C   UNL     1       6.766   5.121  19.333  0.00  0.00    +0.000 A 
ATOM      3  C   UNL     1       7.402   6.349  19.148  0.00  0.00    +0.000 A 
ATOM      4  C   UNL     1       7.366   6.964  17.901  0.00  0.00    +0.000 A 
ATOM      5 BR   UNL     1       8.198   8.643  17.650  0.00  0.00    +0.000 Br
ATOM      6  C   UNL     1       6.706   6.363  16.833  0.00  0.00    +0.000 A 
ATOM      7  C   UNL     1       6.033   5.143  17.014  0.00  0.00    +0.000 A 
ENDROOT
BRANCH   1  10
ATOM      8  O   UNL     1       3.773   2.009  19.209  0.00  0.00    +0.000 OA
ATOM      9  C   UNL     1       4.295   3.129  19.222  0.00  0.00    +0.000 C 
ATOM     10  N   UNL     1       5.462   3.286  18.510  0.00  0.00    +0.000 N 
ATOM     11  H   UNL     1       5.541   2.549  17.816  0.00  0.00    +0.000 HD
BRANCH   9  12
ATOM     12  C   UNL     1       3.677   4.325  19.975  0.00  0.00    +0.000 C 
BRANCH  12  13
ATOM     13  N   UNL     1       2.287   4.613  19.515  0.00  0.00    +0.000 NA
ATOM     14  C   UNL     1       2.300   5.278  18.188  0.00  0.00    +0.000 C 
ATOM     15  C   UNL     1       2.818   6.729  18.217  0.00  0.00    +0.000 C 
ATOM     16  O   UNL     1       2.096   7.536  19.155  0.00  0.00    +0.000 OA
ATOM     17  C   UNL     1       2.115   6.951  20.465  0.00  0.00    +0.000 C 
ATOM     18  C   UNL     1       1.549   5.522  20.431  0.00  0.00    +0.000 C 
ENDBRANCH  12  13
ENDBRANCH   9  12
ENDBRANCH   1  10
BRANCH   7  19
ATOM     19  C   UNL     1       5.287   4.561  15.859  0.00  0.00    +0.000 C 
ATOM     20  O   UNL     1       4.184   4.053  16.039  0.00  0.00    +0.000 OA
BRANCH  19  21
ATOM     21  C   UNL     1       5.916   4.493  14.504  0.00  0.00    +0.000 A 
ATOM     22  C   UNL     1       7.124   5.143  14.210  0.00  0.00    +0.000 A 
ATOM     23  C   UNL     1       7.759   4.924  12.986  0.00  0.00    +0.000 A 
ATOM     24  C   UNL     1       7.173   4.089  12.035  0.00  0.00    +0.000 A 
ATOM     25  C   UNL     1       5.938   3.496  12.294  0.00  0.00    +0.000 A 
ATOM     26  C   UNL     1       5.307   3.700  13.523  0.00  0.00    +0.000 A 
ENDBRANCH  19  21
ENDBRANCH   7  19
TORSDOF 5
ENDMDL
MODEL 3
REMARK VINA RESULT:      -7.1      2.478      3.343
REMARK  Name = 
REMARK  5 active torsions:
REMARK  status: ('A' for Active; 'I' for Inactive)
REMARK    1  A    between atoms: C_2  and  C_3
REMARK    2  A    between atoms: C_3  and  N_4
REMARK    3  A    between atoms: N_10  and  C_11
REMARK    4  A    between atoms: C_17  and  C_18
REMARK    5  A    between atoms: C_18  and  C_20
REMARK                            x       y       z     vdW  Elec       q    Type
REMARK                         _______ _______ _______ _____ _____    ______ ____
ROOT
ATOM      1  C   UNL     1       4.823   4.661  19.180  0.00  0.00    +0.000 A 
ATOM      2  C   UNL     1       3.687   5.176  19.818  0.00  0.00    +0.000 A 
ATOM      3  C   UNL     1       3.095   6.351  19.354  0.00  0.00    +0.000 A 
ATOM      4  C   UNL     1       3.634   7.007  18.252  0.00  0.00    +0.000 A 
ATOM      5 BR   UNL     1       2.820   8.582  17.597  0.00  0.00    +0.000 Br
ATOM      6  C   UNL     1       4.763   6.505  17.611  0.00  0.00    +0.000 A 
ATOM      7  C   UNL     1       5.349   5.306  18.047  0.00  0.00    +0.000 A 
ENDROOT
BRANCH   1  10
ATOM      8  O   UNL     1       5.258   1.358  20.379  0.00  0.00    +0.000 OA
ATOM      9  C   UNL     1       4.636   2.397  20.130  0.00  0.00    +0.000 C 
ATOM     10  N   UNL     1       5.365   3.471  19.675  0.00  0.00    +0.000 N 
ATOM     11  H   UNL     1       6.252   3.148  19.300  0.00  0.00    +0.000 HD
BRANCH   9  12
ATOM     12  C   UNL     1       3.106   2.508  20.291  0.00  0.00    +0.000 C 
BRANCH  12  13
ATOM     13  N   UNL     1       2.380   1.678  19.286  0.00  0.00    +0.000 NA
ATOM     14  C   UNL     1       2.904   1.928  17.920  0.00  0.00    +0.000 C 
ATOM     15  C   UNL     1       2.541   3.314  17.351  0.00  0.00    +0.000 C 
ATOM     16  O   UNL     1       1.129   3.550  17.377  0.00  0.00    +0.000 OA
ATOM     17  C   UNL     1       0.598   3.374  18.699  0.00  0.00    +0.000 C 
ATOM     18  C   UNL     1       0.923   1.971  19.235  0.00  0.00    +0.000 C 
ENDBRANCH  12  13
ENDBRANCH   9  12
ENDBRANCH   1  10
BRANCH   7  19
ATOM     19  C   UNL     1       6.524   4.769  17.296  0.00  0.00    +0.000 C 
ATOM     20  O   UNL     1       7.558   4.494  17.896  0.00  0.00    +0.000 OA
BRANCH  19  21
ATOM     21  C   UNL     1       6.488   4.665  15.805  0.00  0.00    +0.000 A 
ATOM     22  C   UNL     1       7.481   5.235  14.994  0.00  0.00    +0.000 A 
ATOM     23  C   UNL     1       7.498   4.978  13.621  0.00  0.00    +0.000 A 
ATOM     24  C   UNL     1       6.503   4.188  13.046  0.00  0.00    +0.000 A 
ATOM     25  C   UNL     1       5.474   3.677  13.837  0.00  0.00    +0.000 A 
ATOM     26  C   UNL     1       5.462   3.917  15.212  0.00  0.00    +0.000 A 
ENDBRANCH  19  21
ENDBRANCH   7  19
TORSDOF 5
ENDMDL
MODEL 4
REMARK VINA RESULT:      -7.0      1.085      1.533
REMARK  Name = 
REMARK  5 active torsions:
REMARK  status: ('A' for Active; 'I' for Inactive)
REMARK    1  A    between atoms: C_2  and  C_3
REMARK    2  A    between atoms: C_3  and  N_4
REMARK    3  A    between atoms: N_10  and  C_11
REMARK    4  A    between atoms: C_17  and  C_18
REMARK    5  A    between atoms: C_18  and  C_20
REMARK                            x       y       z     vdW  Elec       q    Type
REMARK                         _______ _______ _______ _____ _____    ______ ____
ROOT
ATOM      1  C   UNL     1       6.504   4.925  17.624  0.00  0.00    +0.000 A 
ATOM      2  C   UNL     1       7.209   5.053  18.829  0.00  0.00    +0.000 A 
ATOM      3  C   UNL     1       7.882   6.239  19.123  0.00  0.00    +0.000 A 
ATOM      4  C   UNL     1       7.847   7.296  18.220  0.00  0.00    +0.000 A 
ATOM      5 BR   UNL     1       8.730   8.917  18.625  0.00  0.00    +0.000 Br
ATOM      6  C   UNL     1       7.152   7.180  17.019  0.00  0.00    +0.000 A 
ATOM      7  C   UNL     1       6.442   6.004  16.725  0.00  0.00    +0.000 A 
ENDROOT
BRANCH   1  10
ATOM      8  O   UNL     1       4.017   2.438  17.216  0.00  0.00    +0.000 OA
ATOM      9  C   UNL     1       4.498   3.498  17.633  0.00  0.00    +0.000 C 
ATOM     10  N   UNL     1       5.832   3.722  17.387  0.00  0.00    +0.000 N 
ATOM     11  H   UNL     1       6.141   3.137  16.617  0.00  0.00    +0.000 HD
BRANCH   9  12
ATOM     12  C   UNL     1       3.657   4.554  18.381  0.00  0.00    +0.000 C 
BRANCH  12  13
ATOM     13  N   UNL     1       3.692   4.347  19.859  0.00  0.00    +0.000 NA
ATOM     14  C   UNL     1       3.433   2.925  20.196  0.00  0.00    +0.000 C 
ATOM     15  C   UNL     1       1.979   2.476  19.954  0.00  0.00    +0.000 C 
ATOM     16  O   UNL     1       1.040   3.314  20.638  0.00  0.00    +0.000 OA
ATOM     17  C   UNL     1       1.224   4.693  20.287  0.00  0.00    +0.000 C 
ATOM     18  C   UNL     1       2.664   5.142  20.580  0.00  0.00    +0.000 C 
ENDBRANCH  12  13
ENDBRANCH   9  12
ENDBRANCH   1  10
BRANCH   7  19
ATOM     19  C   UNL     1       5.659   5.940  15.454  0.00  0.00    +0.000 C 
ATOM     20  O   UNL     1       4.592   6.539  15.365  0.00  0.00    +0.000 OA
BRANCH  19  21
ATOM     21  C   UNL     1       6.111   5.067  14.327  0.00  0.00    +0.000 A 
ATOM     22  C   UNL     1       5.312   4.031  13.821  0.00  0.00    +0.000 A 
ATOM     23  C   UNL     1       5.700   3.346  12.667  0.00  0.00    +0.000 A 
ATOM     24  C   UNL     1       6.904   3.663  12.038  0.00  0.00    +0.000 A 
ATOM     25  C   UNL     1       7.735   4.645  12.578  0.00  0.00    +0.000 A 
ATOM     26  C   UNL     1       7.344   5.343  13.722  0.00  0.00    +0.000 A 
ENDBRANCH  19  21
ENDBRANCH   7  19
TORSDOF 5
ENDMDL
MODEL 5
REMARK VINA RESULT:      -7.0      1.015      1.089
REMARK  Name = 
REMARK  5 active torsions:
REMARK  status: ('A' for Active; 'I' for Inactive)
REMARK    1  A    between atoms: C_2  and  C_3
REMARK    2  A    between atoms: C_3  and  N_4
REMARK    3  A    between atoms: N_10  and  C_11
REMARK    4  A    between atoms: C_17  and  C_18
REMARK    5  A    between atoms: C_18  and  C_20
REMARK                            x       y       z     vdW  Elec       q    Type
REMARK                         _______ _______ _______ _____ _____    ______ ____
ROOT
ATOM      1  C   UNL     1       6.202   4.579  18.229  0.00  0.00    +0.000 A 
ATOM      2  C   UNL     1       6.887   5.178  19.294  0.00  0.00    +0.000 A 
ATOM      3  C   UNL     1       7.501   6.420  19.123  0.00  0.00    +0.000 A 
ATOM      4  C   UNL     1       7.425   7.063  17.892  0.00  0.00    +0.000 A 
ATOM      5 BR   UNL     1       8.226   8.759  17.660  0.00  0.00    +0.000 Br
ATOM      6  C   UNL     1       6.749   6.477  16.826  0.00  0.00    +0.000 A 
ATOM      7  C   UNL     1       6.099   5.243  16.994  0.00  0.00    +0.000 A 
ENDROOT
BRANCH   1  10
ATOM      8  O   UNL     1       3.908   2.026  19.096  0.00  0.00    +0.000 OA
ATOM      9  C   UNL     1       4.397   3.161  19.119  0.00  0.00    +0.000 C 
ATOM     10  N   UNL     1       5.591   3.343  18.460  0.00  0.00    +0.000 N 
ATOM     11  H   UNL     1       5.723   2.601  17.779  0.00  0.00    +0.000 HD
BRANCH   9  12
ATOM     12  C   UNL     1       3.711   4.347  19.828  0.00  0.00    +0.000 C 
BRANCH  12  13
ATOM     13  N   UNL     1       2.365   4.636  19.251  0.00  0.00    +0.000 NA
ATOM     14  C   UNL     1       2.431   5.784  18.312  0.00  0.00    +0.000 C 
ATOM     15  C   UNL     1       2.664   7.144  18.997  0.00  0.00    +0.000 C 
ATOM     16  O   UNL     1       1.688   7.406  20.012  0.00  0.00    +0.000 OA
ATOM     17  C   UNL     1       1.640   6.341  20.972  0.00  0.00    +0.000 C 
ATOM     18  C   UNL     1       1.358   4.997  20.282  0.00  0.00    +0.000 C 
ENDBRANCH  12  13
ENDBRANCH   9  12
ENDBRANCH   1  10
BRANCH   7  19
ATOM     19  C   UNL     1       5.334   4.676  15.844  0.00  0.00    +0.000 C 
ATOM     20  O   UNL     1       4.167   4.329  15.998  0.00  0.00    +0.000 OA
BRANCH  19  21
ATOM     21  C   UNL     1       6.008   4.425  14.533  0.00  0.00    +0.000 A 
ATOM     22  C   UNL     1       5.456   3.578  13.560  0.00  0.00    +0.000 A 
ATOM     23  C   UNL     1       6.034   3.498  12.291  0.00  0.00    +0.000 A 
ATOM     24  C   UNL     1       7.185   4.229  11.999  0.00  0.00    +0.000 A 
ATOM     25  C   UNL     1       7.777   5.019  12.985  0.00  0.00    +0.000 A 
ATOM     26  C   UNL     1       7.195   5.115  14.250  0.00  0.00    +0.000 A 
ENDBRANCH  19  21
ENDBRANCH   7  19
TORSDOF 5
ENDMDL
MODEL 6
REMARK VINA RESULT:      -6.9      3.050      7.138
REMARK  Name = 
REMARK  5 active torsions:
REMARK  status: ('A' for Active; 'I' for Inactive)
REMARK    1  A    between atoms: C_2  and  C_3
REMARK    2  A    between atoms: C_3  and  N_4
REMARK    3  A    between atoms: N_10  and  C_11
REMARK    4  A    between atoms: C_17  and  C_18
REMARK    5  A    between atoms: C_18  and  C_20
REMARK                            x       y       z     vdW  Elec       q    Type
REMARK                         _______ _______ _______ _____ _____    ______ ____
ROOT
ATOM      1  C   UNL     1       4.390   5.520  18.334  0.00  0.00    +0.000 A 
ATOM      2  C   UNL     1       4.682   4.160  18.500  0.00  0.00    +0.000 A 
ATOM      3  C   UNL     1       3.647   3.235  18.646  0.00  0.00    +0.000 A 
ATOM      4  C   UNL     1       2.326   3.667  18.622  0.00  0.00    +0.000 A 
ATOM      5 BR   UNL     1       0.918   2.417  18.788  0.00  0.00    +0.000 Br
ATOM      6  C   UNL     1       2.024   5.017  18.459  0.00  0.00    +0.000 A 
ATOM      7  C   UNL     1       3.054   5.954  18.277  0.00  0.00    +0.000 A 
ENDROOT
BRANCH   1  10
ATOM      8  O   UNL     1       6.905   7.610  16.976  0.00  0.00    +0.000 OA
ATOM      9  C   UNL     1       6.082   6.688  16.979  0.00  0.00    +0.000 C 
ATOM     10  N   UNL     1       5.464   6.402  18.174  0.00  0.00    +0.000 N 
ATOM     11  H   UNL     1       5.531   7.203  18.794  0.00  0.00    +0.000 HD
BRANCH   9  12
ATOM     12  C   UNL     1       5.728   5.887  15.709  0.00  0.00    +0.000 C 
BRANCH  12  13
ATOM     13  N   UNL     1       6.573   4.664  15.569  0.00  0.00    +0.000 NA
ATOM     14  C   UNL     1       7.741   4.930  14.693  0.00  0.00    +0.000 C 
ATOM     15  C   UNL     1       7.383   5.111  13.205  0.00  0.00    +0.000 C 
ATOM     16  O   UNL     1       6.640   3.998  12.695  0.00  0.00    +0.000 OA
ATOM     17  C   UNL     1       5.469   3.751  13.485  0.00  0.00    +0.000 C 
ATOM     18  C   UNL     1       5.843   3.522  14.958  0.00  0.00    +0.000 C 
ENDBRANCH  12  13
ENDBRANCH   9  12
ENDBRANCH   1  10
BRANCH   7  19
ATOM     19  C   UNL     1       2.687   7.383  18.046  0.00  0.00    +0.000 C 
ATOM     20  O   UNL     1       3.113   7.970  17.056  0.00  0.00    +0.000 OA
BRANCH  19  21
ATOM     21  C   UNL     1       1.894   8.138  19.065  0.00  0.00    +0.000 A 
ATOM     22  C   UNL     1       1.831   7.736  20.407  0.00  0.00    +0.000 A 
ATOM     23  C   UNL     1       1.215   8.555  21.356  0.00  0.00    +0.000 A 
ATOM     24  C   UNL     1       0.624   9.756  20.964  0.00  0.00    +0.000 A 
ATOM     25  C   UNL     1       0.622  10.126  19.619  0.00  0.00    +0.000 A 
ATOM     26  C   UNL     1       1.251   9.318  18.670  0.00  0.00    +0.000 A 
ENDBRANCH  19  21
ENDBRANCH   7  19
TORSDOF 5
ENDMDL
MODEL 7
REMARK VINA RESULT:      -6.9      2.928      6.659
REMARK  Name = 
REMARK  5 active torsions:
REMARK  status: ('A' for Active; 'I' for Inactive)
REMARK    1  A    between atoms: C_2  and  C_3
REMARK    2  A    between atoms: C_3  and  N_4
REMARK    3  A    between atoms: N_10  and  C_11
REMARK    4  A    between atoms: C_17  and  C_18
REMARK    5  A    between atoms: C_18  and  C_20
REMARK                            x       y       z     vdW  Elec       q    Type
REMARK                         _______ _______ _______ _____ _____    ______ ____
ROOT
ATOM      1  C   UNL     1       4.770   4.984  19.096  0.00  0.00    +0.000 A 
ATOM      2  C   UNL     1       4.865   3.614  19.369  0.00  0.00    +0.000 A 
ATOM      3  C   UNL     1       3.746   2.792  19.228  0.00  0.00    +0.000 A 
ATOM      4  C   UNL     1       2.537   3.338  18.811  0.00  0.00    +0.000 A 
ATOM      5 BR   UNL     1       1.024   2.227  18.588  0.00  0.00    +0.000 Br
ATOM      6  C   UNL     1       2.430   4.699  18.539  0.00  0.00    +0.000 A 
ATOM      7  C   UNL     1       3.556   5.531  18.644  0.00  0.00    +0.000 A 
ENDROOT
BRANCH   1  10
ATOM      8  O   UNL     1       7.822   6.680  18.510  0.00  0.00    +0.000 OA
ATOM      9  C   UNL     1       6.949   5.826  18.319  0.00  0.00    +0.000 C 
ATOM     10  N   UNL     1       5.926   5.759  19.235  0.00  0.00    +0.000 N 
ATOM     11  H   UNL     1       5.865   6.635  19.745  0.00  0.00    +0.000 HD
BRANCH   9  12
ATOM     12  C   UNL     1       6.969   4.876  17.104  0.00  0.00    +0.000 C 
BRANCH  12  13
ATOM     13  N   UNL     1       6.955   5.625  15.813  0.00  0.00    +0.000 NA
ATOM     14  C   UNL     1       5.574   6.043  15.462  0.00  0.00    +0.000 C 
ATOM     15  C   UNL     1       4.653   4.880  15.043  0.00  0.00    +0.000 C 
ATOM     16  O   UNL     1       5.213   4.115  13.969  0.00  0.00    +0.000 OA
ATOM     17  C   UNL     1       6.528   3.644  14.299  0.00  0.00    +0.000 C 
ATOM     18  C   UNL     1       7.450   4.817  14.668  0.00  0.00    +0.000 C 
ENDBRANCH  12  13
ENDBRANCH   9  12
ENDBRANCH   1  10
BRANCH   7  19
ATOM     19  C   UNL     1       3.415   6.974  18.285  0.00  0.00    +0.000 C 
ATOM     20  O   UNL     1       4.233   7.500  17.536  0.00  0.00    +0.000 OA
BRANCH  19  21
ATOM     21  C   UNL     1       2.348   7.812  18.914  0.00  0.00    +0.000 A 
ATOM     22  C   UNL     1       1.936   7.621  20.242  0.00  0.00    +0.000 A 
ATOM     23  C   UNL     1       1.055   8.525  20.840  0.00  0.00    +0.000 A 
ATOM     24  C   UNL     1       0.552   9.599  20.106  0.00  0.00    +0.000 A 
ATOM     25  C   UNL     1       0.904   9.754  18.766  0.00  0.00    +0.000 A 
ATOM     26  C   UNL     1       1.796   8.862  18.168  0.00  0.00    +0.000 A 
ENDBRANCH  19  21
ENDBRANCH   7  19
TORSDOF 5
ENDMDL
MODEL 8
REMARK VINA RESULT:      -6.8      0.867      1.295
REMARK  Name = 
REMARK  5 active torsions:
REMARK  status: ('A' for Active; 'I' for Inactive)
REMARK    1  A    between atoms: C_2  and  C_3
REMARK    2  A    between atoms: C_3  and  N_4
REMARK    3  A    between atoms: N_10  and  C_11
REMARK    4  A    between atoms: C_17  and  C_18
REMARK    5  A    between atoms: C_18  and  C_20
REMARK                            x       y       z     vdW  Elec       q    Type
REMARK                         _______ _______ _______ _____ _____    ______ ____
ROOT
ATOM      1  C   UNL     1       6.465   4.748  18.250  0.00  0.00    +0.000 A 
ATOM      2  C   UNL     1       7.204   5.352  19.276  0.00  0.00    +0.000 A 
ATOM      3  C   UNL     1       7.756   6.620  19.088  0.00  0.00    +0.000 A 
ATOM      4  C   UNL     1       7.564   7.285  17.881  0.00  0.00    +0.000 A 
ATOM      5 BR   UNL     1       8.281   9.016  17.631  0.00  0.00    +0.000 Br
ATOM      6  C   UNL     1       6.833   6.694  16.855  0.00  0.00    +0.000 A 
ATOM      7  C   UNL     1       6.244   5.433  17.042  0.00  0.00    +0.000 A 
ENDROOT
BRANCH   1  10
ATOM      8  O   UNL     1       4.304   2.088  19.139  0.00  0.00    +0.000 OA
ATOM      9  C   UNL     1       4.730   3.249  19.145  0.00  0.00    +0.000 C 
ATOM     10  N   UNL     1       5.919   3.485  18.497  0.00  0.00    +0.000 N 
ATOM     11  H   UNL     1       6.100   2.739  17.832  0.00  0.00    +0.000 HD
BRANCH   9  12
ATOM     12  C   UNL     1       3.971   4.408  19.825  0.00  0.00    +0.000 C 
BRANCH  12  13
ATOM     13  N   UNL     1       2.900   4.961  18.944  0.00  0.00    +0.000 NA
ATOM     14  C   UNL     1       2.498   6.318  19.394  0.00  0.00    +0.000 C 
ATOM     15  C   UNL     1       1.713   6.334  20.720  0.00  0.00    +0.000 C 
ATOM     16  O   UNL     1       0.563   5.481  20.670  0.00  0.00    +0.000 OA
ATOM     17  C   UNL     1       0.924   4.144  20.296  0.00  0.00    +0.000 C 
ATOM     18  C   UNL     1       1.663   4.137  18.948  0.00  0.00    +0.000 C 
ENDBRANCH  12  13
ENDBRANCH   9  12
ENDBRANCH   1  10
BRANCH   7  19
ATOM     19  C   UNL     1       5.417   4.859  15.939  0.00  0.00    +0.000 C 
ATOM     20  O   UNL     1       4.282   4.455  16.173  0.00  0.00    +0.000 OA
BRANCH  19  21
ATOM     21  C   UNL     1       5.997   4.672  14.573  0.00  0.00    +0.000 A 
ATOM     22  C   UNL     1       7.204   5.274  14.187  0.00  0.00    +0.000 A 
ATOM     23  C   UNL     1       7.791   4.946  12.963  0.00  0.00    +0.000 A 
ATOM     24  C   UNL     1       7.159   4.049  12.103  0.00  0.00    +0.000 A 
ATOM     25  C   UNL     1       5.924   3.502  12.451  0.00  0.00    +0.000 A 
ATOM     26  C   UNL     1       5.341   3.815  13.680  0.00  0.00    +0.000 A 
ENDBRANCH  19  21
ENDBRANCH   7  19
TORSDOF 5
ENDMDL
MODEL 9
REMARK VINA RESULT:      -6.8      1.079      1.242
REMARK  Name = 
REMARK  5 active torsions:
REMARK  status: ('A' for Active; 'I' for Inactive)
REMARK    1  A    between atoms: C_2  and  C_3
REMARK    2  A    between atoms: C_3  and  N_4
REMARK    3  A    between atoms: N_10  and  C_11
REMARK    4  A    between atoms: C_17  and  C_18
REMARK    5  A    between atoms: C_18  and  C_20
REMARK                            x       y       z     vdW  Elec       q    Type
REMARK                         _______ _______ _______ _____ _____    ______ ____
ROOT
ATOM      1  C   UNL     1       6.558   4.937  17.583  0.00  0.00    +0.000 A 
ATOM      2  C   UNL     1       7.271   5.048  18.784  0.00  0.00    +0.000 A 
ATOM      3  C   UNL     1       7.930   6.238  19.100  0.00  0.00    +0.000 A 
ATOM      4  C   UNL     1       7.871   7.314  18.220  0.00  0.00    +0.000 A 
ATOM      5 BR   UNL     1       8.734   8.938  18.655  0.00  0.00    +0.000 Br
ATOM      6  C   UNL     1       7.167   7.214  17.024  0.00  0.00    +0.000 A 
ATOM      7  C   UNL     1       6.472   6.035  16.709  0.00  0.00    +0.000 A 
ENDROOT
BRANCH   1  10
ATOM      8  O   UNL     1       4.133   2.374  17.303  0.00  0.00    +0.000 OA
ATOM      9  C   UNL     1       4.635   3.410  17.753  0.00  0.00    +0.000 C 
ATOM     10  N   UNL     1       5.902   3.730  17.325  0.00  0.00    +0.000 N 
ATOM     11  H   UNL     1       6.102   3.245  16.455  0.00  0.00    +0.000 HD
BRANCH   9  12
ATOM     12  C   UNL     1       3.889   4.336  18.736  0.00  0.00    +0.000 C 
BRANCH  12  13
ATOM     13  N   UNL     1       2.483   3.888  18.962  0.00  0.00    +0.000 NA
ATOM     14  C   UNL     1       1.749   4.867  19.803  0.00  0.00    +0.000 C 
ATOM     15  C   UNL     1       2.202   4.896  21.276  0.00  0.00    +0.000 C 
ATOM     16  O   UNL     1       2.141   3.599  21.880  0.00  0.00    +0.000 OA
ATOM     17  C   UNL     1       2.892   2.638  21.123  0.00  0.00    +0.000 C 
ATOM     18  C   UNL     1       2.397   2.583  19.669  0.00  0.00    +0.000 C 
ENDBRANCH  12  13
ENDBRANCH   9  12
ENDBRANCH   1  10
BRANCH   7  19
ATOM     19  C   UNL     1       5.680   5.988  15.444  0.00  0.00    +0.000 C 
ATOM     20  O   UNL     1       4.637   6.629  15.353  0.00  0.00    +0.000 OA
BRANCH  19  21
ATOM     21  C   UNL     1       6.088   5.084  14.325  0.00  0.00    +0.000 A 
ATOM     22  C   UNL     1       5.251   4.064  13.848  0.00  0.00    +0.000 A 
ATOM     23  C   UNL     1       5.601   3.350  12.700  0.00  0.00    +0.000 A 
ATOM     24  C   UNL     1       6.804   3.621  12.048  0.00  0.00    +0.000 A 
ATOM     25  C   UNL     1       7.672   4.586  12.558  0.00  0.00    +0.000 A 
ATOM     26  C   UNL     1       7.319   5.314  13.696  0.00  0.00    +0.000 A 
ENDBRANCH  19  21
ENDBRANCH   7  19
TORSDOF 5
ENDMDL
