MODEL 1
REMARK VINA RESULT:      -6.9      0.000      0.000
REMARK  Name = 
REMARK  4 active torsions:
REMARK  status: ('A' for Active; 'I' for Inactive)
REMARK    1  A    between atoms: C_1  and  S_2
REMARK    2  A    between atoms: S_2  and  C_3
REMARK    3  A    between atoms: C_8  and  N_9
REMARK    4  A    between atoms: N_12  and  C_13
REMARK                            x       y       z     vdW  Elec       q    Type
REMARK                         _______ _______ _______ _____ _____    ______ ____
ROOT
ATOM      1  N   UNL     1       5.121   4.583  18.419  0.00  0.00    +0.000 N 
ATOM      2  C   UNL     1       5.307   4.825  17.074  0.00  0.00    +0.000 C 
ATOM      3  O   UNL     1       4.509   5.418  16.352  0.00  0.00    +0.000 OA
ATOM      4  N   UNL     1       6.479   4.267  16.584  0.00  0.00    +0.000 N 
ATOM      5  H   UNL     1       5.826   4.065  18.924  0.00  0.00    +0.000 HD
ATOM      6  H   UNL     1       6.779   3.431  17.063  0.00  0.00    +0.000 HD
ENDROOT
BRANCH   4   7
ATOM      7  C   UNL     1       6.780   4.354  15.203  0.00  0.00    +0.000 A 
ATOM      8  C   UNL     1       7.697   5.298  14.711  0.00  0.00    +0.000 A 
ATOM      9  C   UNL     1       7.896   5.443  13.337  0.00  0.00    +0.000 A 
ATOM     10  C   UNL     1       7.174   4.648  12.457  0.00  0.00    +0.000 A 
ATOM     11  F   UNL     1       7.345   4.827  11.138  0.00  0.00    +0.000 F 
ATOM     12  C   UNL     1       6.281   3.692  12.937  0.00  0.00    +0.000 A 
ATOM     13 CL   UNL     1       5.347   2.741  11.846  0.00  0.00    +0.000 Cl
ATOM     14  C   UNL     1       6.103   3.520  14.314  0.00  0.00    +0.000 A 
ENDBRANCH   4   7
BRANCH   1  20
ATOM     15  C   UNL     1       3.300   3.957  19.922  0.00  0.00    +0.000 A 
ATOM     16  C   UNL     1       2.153   4.293  20.663  0.00  0.00    +0.000 A 
ATOM     17  C   UNL     1       1.662   5.597  20.655  0.00  0.00    +0.000 A 
ATOM     18  C   UNL     1       2.319   6.575  19.923  0.00  0.00    +0.000 A 
ATOM     19  C   UNL     1       3.471   6.252  19.201  0.00  0.00    +0.000 A 
ATOM     20  C   UNL     1       3.973   4.949  19.175  0.00  0.00    +0.000 A 
BRANCH  15  22
ATOM     21  C   UNL     1       3.082   1.757  18.320  0.00  0.00    +0.000 C 
ATOM     22  S   UNL     1       3.828   2.240  19.902  0.00  0.00    +0.000 S 
ENDBRANCH  15  22
ENDBRANCH   1  20
TORSDOF 3
ENDMDL
MODEL 2
REMARK VINA RESULT:      -6.9      1.303      2.188
REMARK  Name = 
REMARK  4 active torsions:
REMARK  status: ('A' for Active; 'I' for Inactive)
REMARK    1  A    between atoms: C_1  and  S_2
REMARK    2  A    between atoms: S_2  and  C_3
REMARK    3  A    between atoms: C_8  and  N_9
REMARK    4  A    between atoms: N_12  and  C_13
REMARK                            x       y       z     vdW  Elec       q    Type
REMARK                         _______ _______ _______ _____ _____    ______ ____
ROOT
ATOM      1  N   UNL     1       4.705   3.579  18.302  0.00  0.00    +0.000 N 
ATOM      2  C   UNL     1       4.900   3.904  16.976  0.00  0.00    +0.000 C 
ATOM      3  O   UNL     1       4.000   4.149  16.175  0.00  0.00    +0.000 OA
ATOM      4  N   UNL     1       6.236   3.864  16.603  0.00  0.00    +0.000 N 
ATOM      5  H   UNL     1       5.509   3.370  18.876  0.00  0.00    +0.000 HD
ATOM      6  H   UNL     1       6.797   3.204  17.119  0.00  0.00    +0.000 HD
ENDROOT
BRANCH   4   7
ATOM      7  C   UNL     1       6.600   4.094  15.254  0.00  0.00    +0.000 A 
ATOM      8  C   UNL     1       7.514   5.101  14.902  0.00  0.00    +0.000 A 
ATOM      9  C   UNL     1       7.774   5.385  13.560  0.00  0.00    +0.000 A 
ATOM     10  C   UNL     1       7.117   4.665  12.572  0.00  0.00    +0.000 A 
ATOM     11  F   UNL     1       7.346   4.977  11.288  0.00  0.00    +0.000 F 
ATOM     12  C   UNL     1       6.227   3.647  12.912  0.00  0.00    +0.000 A 
ATOM     13 CL   UNL     1       5.372   2.788  11.688  0.00  0.00    +0.000 Cl
ATOM     14  C   UNL     1       5.989   3.337  14.255  0.00  0.00    +0.000 A 
ENDBRANCH   4   7
BRANCH   1  20
ATOM     15  C   UNL     1       2.823   4.595  19.483  0.00  0.00    +0.000 A 
ATOM     16  C   UNL     1       1.584   4.485  20.136  0.00  0.00    +0.000 A 
ATOM     17  C   UNL     1       0.964   3.244  20.275  0.00  0.00    +0.000 A 
ATOM     18  C   UNL     1       1.568   2.112  19.748  0.00  0.00    +0.000 A 
ATOM     19  C   UNL     1       2.790   2.218  19.080  0.00  0.00    +0.000 A 
ATOM     20  C   UNL     1       3.443   3.445  18.944  0.00  0.00    +0.000 A 
BRANCH  15  22
ATOM     21  C   UNL     1       2.552   6.965  18.154  0.00  0.00    +0.000 C 
ATOM     22  S   UNL     1       3.611   6.209  19.418  0.00  0.00    +0.000 S 
ENDBRANCH  15  22
ENDBRANCH   1  20
TORSDOF 3
ENDMDL
MODEL 3
REMARK VINA RESULT:      -6.7      1.745      2.705
REMARK  Name = 
REMARK  4 active torsions:
REMARK  status: ('A' for Active; 'I' for Inactive)
REMARK    1  A    between atoms: C_1  and  S_2
REMARK    2  A    between atoms: S_2  and  C_3
REMARK    3  A    between atoms: C_8  and  N_9
REMARK    4  A    between atoms: N_12  and  C_13
REMARK                            x       y       z     vdW  Elec       q    Type
REMARK                         _______ _______ _______ _____ _____    ______ ____
ROOT
ATOM      1  N   UNL     1       4.609   3.215  17.983  0.00  0.00    +0.000 N 
ATOM      2  C   UNL     1       4.745   3.720  16.706  0.00  0.00    +0.000 C 
ATOM      3  O   UNL     1       3.855   4.293  16.081  0.00  0.00    +0.000 OA
ATOM      4  N   UNL     1       5.990   3.458  16.153  0.00  0.00    +0.000 N 
ATOM      5  H   UNL     1       5.393   2.739  18.405  0.00  0.00    +0.000 HD
ATOM      6  H   UNL     1       6.427   2.611  16.484  0.00  0.00    +0.000 HD
ENDROOT
BRANCH   4   7
ATOM      7  C   UNL     1       6.264   3.838  14.818  0.00  0.00    +0.000 A 
ATOM      8  C   UNL     1       5.593   3.247  13.734  0.00  0.00    +0.000 A 
ATOM      9  C   UNL     1       5.956   3.556  12.422  0.00  0.00    +0.000 A 
ATOM     10  C   UNL     1       6.993   4.450  12.194  0.00  0.00    +0.000 A 
ATOM     11  F   UNL     1       7.358   4.706  10.929  0.00  0.00    +0.000 F 
ATOM     12  C   UNL     1       7.648   5.061  13.263  0.00  0.00    +0.000 A 
ATOM     13 CL   UNL     1       8.968   6.131  12.984  0.00  0.00    +0.000 Cl
ATOM     14  C   UNL     1       7.265   4.780  14.579  0.00  0.00    +0.000 A 
ENDBRANCH   4   7
BRANCH   1  20
ATOM     15  C   UNL     1       3.061   4.449  19.414  0.00  0.00    +0.000 A 
ATOM     16  C   UNL     1       1.899   4.500  20.204  0.00  0.00    +0.000 A 
ATOM     17  C   UNL     1       1.104   3.366  20.368  0.00  0.00    +0.000 A 
ATOM     18  C   UNL     1       1.453   2.184  19.731  0.00  0.00    +0.000 A 
ATOM     19  C   UNL     1       2.595   2.133  18.928  0.00  0.00    +0.000 A 
ATOM     20  C   UNL     1       3.421   3.247  18.763  0.00  0.00    +0.000 A 
BRANCH  15  22
ATOM     21  C   UNL     1       3.015   6.919  18.252  0.00  0.00    +0.000 C 
ATOM     22  S   UNL     1       4.090   5.918  19.318  0.00  0.00    +0.000 S 
ENDBRANCH  15  22
ENDBRANCH   1  20
TORSDOF 3
ENDMDL
MODEL 4
REMARK VINA RESULT:      -6.7      6.337      9.291
REMARK  Name = 
REMARK  4 active torsions:
REMARK  status: ('A' for Active; 'I' for Inactive)
REMARK    1  A    between atoms: C_1  and  S_2
REMARK    2  A    between atoms: S_2  and  C_3
REMARK    3  A    between atoms: C_8  and  N_9
REMARK    4  A    between atoms: N_12  and  C_13
REMARK                            x       y       z     vdW  Elec       q    Type
REMARK                         _______ _______ _______ _____ _____    ______ ____
ROOT
ATOM      1  N   UNL     1       2.130   6.409  20.859  0.00  0.00    +0.000 N 
ATOM      2  C   UNL     1       1.162   7.353  21.134  0.00  0.00    +0.000 C 
ATOM      3  O   UNL     1      -0.022   7.255  20.821  0.00  0.00    +0.000 OA
ATOM      4  N   UNL     1       1.674   8.483  21.755  0.00  0.00    +0.000 N 
ATOM      5  H   UNL     1       3.083   6.592  21.137  0.00  0.00    +0.000 HD
ATOM      6  H   UNL     1       2.631   8.695  21.518  0.00  0.00    +0.000 HD
ENDROOT
BRANCH   4   7
ATOM      7  C   UNL     1       0.826   9.582  22.034  0.00  0.00    +0.000 A 
ATOM      8  C   UNL     1      -0.094   9.548  23.095  0.00  0.00    +0.000 A 
ATOM      9  C   UNL     1      -0.997  10.596  23.284  0.00  0.00    +0.000 A 
ATOM     10  C   UNL     1      -0.983  11.673  22.408  0.00  0.00    +0.000 A 
ATOM     11  F   UNL     1      -1.883  12.653  22.577  0.00  0.00    +0.000 F 
ATOM     12  C   UNL     1      -0.056  11.727  21.367  0.00  0.00    +0.000 A 
ATOM     13 CL   UNL     1      -0.071  13.037  20.250  0.00  0.00    +0.000 Cl
ATOM     14  C   UNL     1       0.873  10.696  21.195  0.00  0.00    +0.000 A 
ENDBRANCH   4   7
BRANCH   1  20
ATOM     15  C   UNL     1       2.382   5.093  18.816  0.00  0.00    +0.000 A 
ATOM     16  C   UNL     1       2.174   3.908  18.089  0.00  0.00    +0.000 A 
ATOM     17  C   UNL     1       1.499   2.832  18.666  0.00  0.00    +0.000 A 
ATOM     18  C   UNL     1       1.045   2.927  19.973  0.00  0.00    +0.000 A 
ATOM     19  C   UNL     1       1.267   4.094  20.707  0.00  0.00    +0.000 A 
ATOM     20  C   UNL     1       1.922   5.195  20.148  0.00  0.00    +0.000 A 
BRANCH  15  22
ATOM     21  C   UNL     1       4.497   5.548  17.151  0.00  0.00    +0.000 C 
ATOM     22  S   UNL     1       3.177   6.473  17.985  0.00  0.00    +0.000 S 
ENDBRANCH  15  22
ENDBRANCH   1  20
TORSDOF 3
ENDMDL
MODEL 5
REMARK VINA RESULT:      -6.6      5.746      8.578
REMARK  Name = 
REMARK  4 active torsions:
REMARK  status: ('A' for Active; 'I' for Inactive)
REMARK    1  A    between atoms: C_1  and  S_2
REMARK    2  A    between atoms: S_2  and  C_3
REMARK    3  A    between atoms: C_8  and  N_9
REMARK    4  A    between atoms: N_12  and  C_13
REMARK                            x       y       z     vdW  Elec       q    Type
REMARK                         _______ _______ _______ _____ _____    ______ ____
ROOT
ATOM      1  N   UNL     1       2.586   6.171  18.733  0.00  0.00    +0.000 N 
ATOM      2  C   UNL     1       1.958   6.801  19.787  0.00  0.00    +0.000 C 
ATOM      3  O   UNL     1       1.471   6.227  20.758  0.00  0.00    +0.000 OA
ATOM      4  N   UNL     1       1.865   8.175  19.614  0.00  0.00    +0.000 N 
ATOM      5  H   UNL     1       2.934   6.729  17.968  0.00  0.00    +0.000 HD
ATOM      6  H   UNL     1       1.812   8.474  18.652  0.00  0.00    +0.000 HD
ENDROOT
BRANCH   4   7
ATOM      7  C   UNL     1       1.175   8.962  20.567  0.00  0.00    +0.000 A 
ATOM      8  C   UNL     1       1.295   8.717  21.945  0.00  0.00    +0.000 A 
ATOM      9  C   UNL     1       0.521   9.431  22.862  0.00  0.00    +0.000 A 
ATOM     10  C   UNL     1      -0.374  10.386  22.400  0.00  0.00    +0.000 A 
ATOM     11  F   UNL     1      -1.140  11.035  23.289  0.00  0.00    +0.000 F 
ATOM     12  C   UNL     1      -0.480  10.654  21.035  0.00  0.00    +0.000 A 
ATOM     13 CL   UNL     1      -1.627  11.802  20.457  0.00  0.00    +0.000 Cl
ATOM     14  C   UNL     1       0.317   9.965  20.116  0.00  0.00    +0.000 A 
ENDBRANCH   4   7
BRANCH   1  20
ATOM     15  C   UNL     1       4.021   4.194  18.791  0.00  0.00    +0.000 A 
ATOM     16  C   UNL     1       4.205   2.809  18.636  0.00  0.00    +0.000 A 
ATOM     17  C   UNL     1       3.140   1.991  18.262  0.00  0.00    +0.000 A 
ATOM     18  C   UNL     1       1.885   2.546  18.060  0.00  0.00    +0.000 A 
ATOM     19  C   UNL     1       1.691   3.919  18.233  0.00  0.00    +0.000 A 
ATOM     20  C   UNL     1       2.745   4.765  18.586  0.00  0.00    +0.000 A 
BRANCH  15  22
ATOM     21  C   UNL     1       6.523   4.683  17.815  0.00  0.00    +0.000 C 
ATOM     22  S   UNL     1       5.454   5.204  19.185  0.00  0.00    +0.000 S 
ENDBRANCH  15  22
ENDBRANCH   1  20
TORSDOF 3
ENDMDL
MODEL 6
REMARK VINA RESULT:      -6.6      6.260      7.454
REMARK  Name = 
REMARK  4 active torsions:
REMARK  status: ('A' for Active; 'I' for Inactive)
REMARK    1  A    between atoms: C_1  and  S_2
REMARK    2  A    between atoms: S_2  and  C_3
REMARK    3  A    between atoms: C_8  and  N_9
REMARK    4  A    between atoms: N_12  and  C_13
REMARK                            x       y       z     vdW  Elec       q    Type
REMARK                         _______ _______ _______ _____ _____    ______ ____
ROOT
ATOM      1  N   UNL     1       7.757   6.486  18.024  0.00  0.00    +0.000 N 
ATOM      2  C   UNL     1       7.860   7.861  17.988  0.00  0.00    +0.000 C 
ATOM      3  O   UNL     1       7.292   8.585  17.173  0.00  0.00    +0.000 OA
ATOM      4  N   UNL     1       8.737   8.360  18.940  0.00  0.00    +0.000 N 
ATOM      5  H   UNL     1       8.282   5.976  18.720  0.00  0.00    +0.000 HD
ATOM      6  H   UNL     1       9.489   7.736  19.186  0.00  0.00    +0.000 HD
ENDROOT
BRANCH   4   7
ATOM      7  C   UNL     1       9.018   9.747  18.983  0.00  0.00    +0.000 A 
ATOM      8  C   UNL     1       9.287  10.478  17.814  0.00  0.00    +0.000 A 
ATOM      9  C   UNL     1       9.671  11.818  17.888  0.00  0.00    +0.000 A 
ATOM     10  C   UNL     1       9.790  12.424  19.131  0.00  0.00    +0.000 A 
ATOM     11  F   UNL     1      10.200  13.701  19.189  0.00  0.00    +0.000 F 
ATOM     12  C   UNL     1       9.501  11.714  20.295  0.00  0.00    +0.000 A 
ATOM     13 CL   UNL     1       9.698  12.450  21.840  0.00  0.00    +0.000 Cl
ATOM     14  C   UNL     1       9.083  10.381  20.224  0.00  0.00    +0.000 A 
ENDBRANCH   4   7
BRANCH   1  20
ATOM     15  C   UNL     1       5.812   5.082  17.559  0.00  0.00    +0.000 A 
ATOM     16  C   UNL     1       5.066   4.276  16.682  0.00  0.00    +0.000 A 
ATOM     17  C   UNL     1       5.505   4.052  15.378  0.00  0.00    +0.000 A 
ATOM     18  C   UNL     1       6.680   4.644  14.938  0.00  0.00    +0.000 A 
ATOM     19  C   UNL     1       7.415   5.463  15.797  0.00  0.00    +0.000 A 
ATOM     20  C   UNL     1       7.010   5.688  17.115  0.00  0.00    +0.000 A 
BRANCH  15  22
ATOM     21  C   UNL     1       4.397   3.657  19.407  0.00  0.00    +0.000 C 
ATOM     22  S   UNL     1       5.239   5.256  19.252  0.00  0.00    +0.000 S 
ENDBRANCH  15  22
ENDBRANCH   1  20
TORSDOF 3
ENDMDL
MODEL 7
REMARK VINA RESULT:      -6.4      5.797      8.086
REMARK  Name = 
REMARK  4 active torsions:
REMARK  status: ('A' for Active; 'I' for Inactive)
REMARK    1  A    between atoms: C_1  and  S_2
REMARK    2  A    between atoms: S_2  and  C_3
REMARK    3  A    between atoms: C_8  and  N_9
REMARK    4  A    between atoms: N_12  and  C_13
REMARK                            x       y       z     vdW  Elec       q    Type
REMARK                         _______ _______ _______ _____ _____    ______ ____
ROOT
ATOM      1  N   UNL     1       2.671   7.061  18.675  0.00  0.00    +0.000 N 
ATOM      2  C   UNL     1       2.123   8.242  18.220  0.00  0.00    +0.000 C 
ATOM      3  O   UNL     1       2.243   8.674  17.076  0.00  0.00    +0.000 OA
ATOM      4  N   UNL     1       1.463   8.948  19.216  0.00  0.00    +0.000 N 
ATOM      5  H   UNL     1       2.537   6.801  19.642  0.00  0.00    +0.000 HD
ATOM      6  H   UNL     1       1.830   8.807  20.144  0.00  0.00    +0.000 HD
ENDROOT
BRANCH   4   7
ATOM      7  C   UNL     1       0.914  10.222  18.933  0.00  0.00    +0.000 A 
ATOM      8  C   UNL     1       1.711  11.379  18.925  0.00  0.00    +0.000 A 
ATOM      9  C   UNL     1       1.132  12.637  18.754  0.00  0.00    +0.000 A 
ATOM     10  C   UNL     1      -0.244  12.738  18.596  0.00  0.00    +0.000 A 
ATOM     11  F   UNL     1      -0.791  13.957  18.474  0.00  0.00    +0.000 F 
ATOM     12  C   UNL     1      -1.039  11.593  18.577  0.00  0.00    +0.000 A 
ATOM     13 CL   UNL     1      -2.751  11.720  18.433  0.00  0.00    +0.000 Cl
ATOM     14  C   UNL     1      -0.459  10.328  18.714  0.00  0.00    +0.000 A 
ENDBRANCH   4   7
BRANCH   1  20
ATOM     15  C   UNL     1       3.112   4.813  17.825  0.00  0.00    +0.000 A 
ATOM     16  C   UNL     1       3.905   3.916  17.089  0.00  0.00    +0.000 A 
ATOM     17  C   UNL     1       5.066   4.354  16.453  0.00  0.00    +0.000 A 
ATOM     18  C   UNL     1       5.431   5.690  16.535  0.00  0.00    +0.000 A 
ATOM     19  C   UNL     1       4.637   6.590  17.248  0.00  0.00    +0.000 A 
ATOM     20  C   UNL     1       3.479   6.175  17.911  0.00  0.00    +0.000 A 
BRANCH  15  22
ATOM     21  C   UNL     1       2.336   2.521  19.090  0.00  0.00    +0.000 C 
ATOM     22  S   UNL     1       1.679   4.166  18.695  0.00  0.00    +0.000 S 
ENDBRANCH  15  22
ENDBRANCH   1  20
TORSDOF 3
ENDMDL
MODEL 8
REMARK VINA RESULT:      -6.4      5.839      8.210
REMARK  Name = 
REMARK  4 active torsions:
REMARK  status: ('A' for Active; 'I' for Inactive)
REMARK    1  A    between atoms: C_1  and  S_2
REMARK    2  A    between atoms: S_2  and  C_3
REMARK    3  A    between atoms: C_8  and  N_9
REMARK    4  A    between atoms: N_12  and  C_13
REMARK                            x       y       z     vdW  Elec       q    Type
REMARK                         _______ _______ _______ _____ _____    ______ ____
ROOT
ATOM      1  N   UNL     1       2.595   7.248  18.729  0.00  0.00    +0.000 N 
ATOM      2  C   UNL     1       2.031   8.440  18.324  0.00  0.00    +0.000 C 
ATOM      3  O   UNL     1       2.132   8.915  17.195  0.00  0.00    +0.000 OA
ATOM      4  N   UNL     1       1.376   9.102  19.352  0.00  0.00    +0.000 N 
ATOM      5  H   UNL     1       2.475   6.952  19.686  0.00  0.00    +0.000 HD
ATOM      6  H   UNL     1       1.755   8.930  20.271  0.00  0.00    +0.000 HD
ENDROOT
BRANCH   4   7
ATOM      7  C   UNL     1       0.811  10.380  19.123  0.00  0.00    +0.000 A 
ATOM      8  C   UNL     1      -0.550  10.534  18.807  0.00  0.00    +0.000 A 
ATOM      9  C   UNL     1      -1.062  11.790  18.476  0.00  0.00    +0.000 A 
ATOM     10  C   UNL     1      -0.213  12.888  18.455  0.00  0.00    +0.000 A 
ATOM     11  F   UNL     1      -0.711  14.080  18.094  0.00  0.00    +0.000 F 
ATOM     12  C   UNL     1       1.133  12.748  18.791  0.00  0.00    +0.000 A 
ATOM     13 CL   UNL     1       2.198  14.100  18.715  0.00  0.00    +0.000 Cl
ATOM     14  C   UNL     1       1.643  11.499  19.156  0.00  0.00    +0.000 A 
ENDBRANCH   4   7
BRANCH   1  20
ATOM     15  C   UNL     1       3.118   5.016  17.884  0.00  0.00    +0.000 A 
ATOM     16  C   UNL     1       3.913   4.156  17.107  0.00  0.00    +0.000 A 
ATOM     17  C   UNL     1       4.997   4.653  16.385  0.00  0.00    +0.000 A 
ATOM     18  C   UNL     1       5.282   6.010  16.420  0.00  0.00    +0.000 A 
ATOM     19  C   UNL     1       4.483   6.873  17.173  0.00  0.00    +0.000 A 
ATOM     20  C   UNL     1       3.403   6.399  17.923  0.00  0.00    +0.000 A 
BRANCH  15  22
ATOM     21  C   UNL     1       1.877   2.607  18.213  0.00  0.00    +0.000 C 
ATOM     22  S   UNL     1       1.793   4.299  18.863  0.00  0.00    +0.000 S 
ENDBRANCH  15  22
ENDBRANCH   1  20
TORSDOF 3
ENDMDL
MODEL 9
REMARK VINA RESULT:      -6.4      5.179      7.980
REMARK  Name = 
REMARK  4 active torsions:
REMARK  status: ('A' for Active; 'I' for Inactive)
REMARK    1  A    between atoms: C_1  and  S_2
REMARK    2  A    between atoms: S_2  and  C_3
REMARK    3  A    between atoms: C_8  and  N_9
REMARK    4  A    between atoms: N_12  and  C_13
REMARK                            x       y       z     vdW  Elec       q    Type
REMARK                         _______ _______ _______ _____ _____    ______ ____
ROOT
ATOM      1  N   UNL     1       3.967   5.676  19.053  0.00  0.00    +0.000 N 
ATOM      2  C   UNL     1       3.126   6.768  18.992  0.00  0.00    +0.000 C 
ATOM      3  O   UNL     1       3.034   7.528  18.031  0.00  0.00    +0.000 OA
ATOM      4  N   UNL     1       2.423   6.972  20.170  0.00  0.00    +0.000 N 
ATOM      5  H   UNL     1       3.989   5.124  19.897  0.00  0.00    +0.000 HD
ATOM      6  H   UNL     1       2.900   6.662  21.003  0.00  0.00    +0.000 HD
ENDROOT
BRANCH   4   7
ATOM      7  C   UNL     1       1.576   8.099  20.301  0.00  0.00    +0.000 A 
ATOM      8  C   UNL     1       1.424   9.028  19.258  0.00  0.00    +0.000 A 
ATOM      9  C   UNL     1       0.673  10.189  19.447  0.00  0.00    +0.000 A 
ATOM     10  C   UNL     1       0.078  10.422  20.679  0.00  0.00    +0.000 A 
ATOM     11  F   UNL     1      -0.606  11.562  20.859  0.00  0.00    +0.000 F 
ATOM     12  C   UNL     1       0.203   9.494  21.712  0.00  0.00    +0.000 A 
ATOM     13 CL   UNL     1      -0.491   9.806  23.258  0.00  0.00    +0.000 Cl
ATOM     14  C   UNL     1       0.926   8.313  21.517  0.00  0.00    +0.000 A 
ENDBRANCH   4   7
BRANCH   1  20
ATOM     15  C   UNL     1       4.495   4.254  17.137  0.00  0.00    +0.000 A 
ATOM     16  C   UNL     1       5.384   3.830  16.135  0.00  0.00    +0.000 A 
ATOM     17  C   UNL     1       6.653   4.397  16.028  0.00  0.00    +0.000 A 
ATOM     18  C   UNL     1       7.034   5.400  16.908  0.00  0.00    +0.000 A 
ATOM     19  C   UNL     1       6.148   5.840  17.894  0.00  0.00    +0.000 A 
ATOM     20  C   UNL     1       4.877   5.275  18.036  0.00  0.00    +0.000 A 
BRANCH  15  22
ATOM     21  C   UNL     1       3.482   1.915  18.114  0.00  0.00    +0.000 C 
ATOM     22  S   UNL     1       2.910   3.420  17.278  0.00  0.00    +0.000 S 
ENDBRANCH  15  22
ENDBRANCH   1  20
TORSDOF 3
ENDMDL
