MODEL 1
REMARK VINA RESULT:      -7.7      0.000      0.000
REMARK  Name = 
REMARK  3 active torsions:
REMARK  status: ('A' for Active; 'I' for Inactive)
REMARK    1  A    between atoms: S_2  and  N_4
REMARK    2  A    between atoms: S_2  and  C_10
REMARK    3  A    between atoms: C_12  and  C_13
REMARK                            x       y       z     vdW  Elec       q    Type
REMARK                         _______ _______ _______ _____ _____    ______ ____
ROOT
ATOM      1  C   UNL     1       3.389   4.435  19.626  0.00  0.00    +0.000 A 
ATOM      2  C   UNL     1       3.249   5.798  19.422  0.00  0.00    +0.000 A 
ATOM      3  C   UNL     1       2.146   6.344  20.145  0.00  0.00    +0.000 A 
ATOM      4  C   UNL     1       1.483   5.379  20.871  0.00  0.00    +0.000 A 
ATOM      5  S   UNL     1       2.193   3.829  20.684  0.00  0.00    +0.000 S 
ENDROOT
BRANCH   3   6
ATOM      6  C   UNL     1       1.783   7.803  20.218  0.00  0.00    +0.000 A 
ATOM      7  N   UNL     1       1.772   8.568  19.148  0.00  0.00    +0.000 NA
ATOM      8  C   UNL     1       0.919   9.635  19.376  0.00  0.00    +0.000 A 
ATOM      9  C   UNL     1       0.413  10.503  18.391  0.00  0.00    +0.000 A 
ATOM     10  C   UNL     1      -0.699  11.291  18.703  0.00  0.00    +0.000 A 
ATOM     11  C   UNL     1      -1.159  11.386  20.013  0.00  0.00    +0.000 A 
ATOM     12  C   UNL     1      -0.519  10.700  21.050  0.00  0.00    +0.000 A 
ATOM     13  C   UNL     1       0.455   9.760  20.688  0.00  0.00    +0.000 A 
ATOM     14  S   UNL     1       1.213   8.558  21.654  0.00  0.00    +0.000 S 
ENDBRANCH   3   6
BRANCH   1  16
ATOM     15  O   UNL     1       3.874   2.685  17.817  0.00  0.00    +0.000 OA
ATOM     16  S   UNL     1       4.542   3.272  18.958  0.00  0.00    +0.000 S 
ATOM     17  O   UNL     1       4.924   2.427  20.076  0.00  0.00    +0.000 OA
BRANCH  16  18
ATOM     18  N   UNL     1       5.953   4.021  18.431  0.00  0.00    +0.000 N 
ATOM     19  C   UNL     1       5.802   4.588  17.148  0.00  0.00    +0.000 A 
ATOM     20  N   UNL     1       5.148   5.708  16.966  0.00  0.00    +0.000 NA
ATOM     21  C   UNL     1       5.270   6.088  15.638  0.00  0.00    +0.000 A 
ATOM     22  C   UNL     1       5.972   5.218  14.829  0.00  0.00    +0.000 A 
ATOM     23  S   UNL     1       6.582   3.925  15.778  0.00  0.00    +0.000 S 
ATOM     24  H   UNL     1       6.684   3.305  18.423  0.00  0.00    +0.000 HD
ENDBRANCH  16  18
ENDBRANCH   1  16
TORSDOF 3
ENDMDL
MODEL 2
REMARK VINA RESULT:      -7.6      2.282      3.464
REMARK  Name = 
REMARK  3 active torsions:
REMARK  status: ('A' for Active; 'I' for Inactive)
REMARK    1  A    between atoms: S_2  and  N_4
REMARK    2  A    between atoms: S_2  and  C_10
REMARK    3  A    between atoms: C_12  and  C_13
REMARK                            x       y       z     vdW  Elec       q    Type
REMARK                         _______ _______ _______ _____ _____    ______ ____
ROOT
ATOM      1  C   UNL     1       4.712   5.859  18.540  0.00  0.00    +0.000 A 
ATOM      2  C   UNL     1       3.747   6.394  19.378  0.00  0.00    +0.000 A 
ATOM      3  C   UNL     1       2.945   7.377  18.722  0.00  0.00    +0.000 A 
ATOM      4  C   UNL     1       3.329   7.558  17.411  0.00  0.00    +0.000 A 
ATOM      5  S   UNL     1       4.642   6.543  16.978  0.00  0.00    +0.000 S 
ENDROOT
BRANCH   3   6
ATOM      6  C   UNL     1       1.752   8.074  19.319  0.00  0.00    +0.000 A 
ATOM      7  N   UNL     1       1.251   7.716  20.481  0.00  0.00    +0.000 NA
ATOM      8  C   UNL     1       0.575   8.796  21.023  0.00  0.00    +0.000 A 
ATOM      9  C   UNL     1       0.158   8.913  22.362  0.00  0.00    +0.000 A 
ATOM     10  C   UNL     1      -0.180  10.179  22.848  0.00  0.00    +0.000 A 
ATOM     11  C   UNL     1      -0.318  11.260  21.982  0.00  0.00    +0.000 A 
ATOM     12  C   UNL     1      -0.127  11.107  20.606  0.00  0.00    +0.000 A 
ATOM     13  C   UNL     1       0.411   9.889  20.169  0.00  0.00    +0.000 A 
ATOM     14  S   UNL     1       1.037   9.473  18.622  0.00  0.00    +0.000 S 
ENDBRANCH   3   6
BRANCH   1  16
ATOM     15  O   UNL     1       6.808   5.227  19.874  0.00  0.00    +0.000 OA
ATOM     16  S   UNL     1       5.974   4.655  18.840  0.00  0.00    +0.000 S 
ATOM     17  O   UNL     1       6.544   4.367  17.536  0.00  0.00    +0.000 OA
BRANCH  16  18
ATOM     18  N   UNL     1       5.335   3.205  19.405  0.00  0.00    +0.000 N 
ATOM     19  C   UNL     1       4.012   3.002  18.958  0.00  0.00    +0.000 A 
ATOM     20  N   UNL     1       3.752   2.629  17.730  0.00  0.00    +0.000 NA
ATOM     21  C   UNL     1       2.393   2.386  17.612  0.00  0.00    +0.000 A 
ATOM     22  C   UNL     1       1.641   2.629  18.744  0.00  0.00    +0.000 A 
ATOM     23  S   UNL     1       2.681   3.091  20.028  0.00  0.00    +0.000 S 
ATOM     24  H   UNL     1       5.366   3.245  20.427  0.00  0.00    +0.000 HD
ENDBRANCH  16  18
ENDBRANCH   1  16
TORSDOF 3
ENDMDL
MODEL 3
REMARK VINA RESULT:      -7.6      1.372      1.598
REMARK  Name = 
REMARK  3 active torsions:
REMARK  status: ('A' for Active; 'I' for Inactive)
REMARK    1  A    between atoms: S_2  and  N_4
REMARK    2  A    between atoms: S_2  and  C_10
REMARK    3  A    between atoms: C_12  and  C_13
REMARK                            x       y       z     vdW  Elec       q    Type
REMARK                         _______ _______ _______ _____ _____    ______ ____
ROOT
ATOM      1  C   UNL     1       2.804   4.151  18.901  0.00  0.00    +0.000 A 
ATOM      2  C   UNL     1       2.481   5.482  18.695  0.00  0.00    +0.000 A 
ATOM      3  C   UNL     1       2.136   6.151  19.908  0.00  0.00    +0.000 A 
ATOM      4  C   UNL     1       2.204   5.305  20.994  0.00  0.00    +0.000 A 
ATOM      5  S   UNL     1       2.689   3.722  20.549  0.00  0.00    +0.000 S 
ENDROOT
BRANCH   3   6
ATOM      6  C   UNL     1       1.833   7.619  20.044  0.00  0.00    +0.000 A 
ATOM      7  N   UNL     1       1.884   8.435  19.013  0.00  0.00    +0.000 NA
ATOM      8  C   UNL     1       1.071   9.525  19.271  0.00  0.00    +0.000 A 
ATOM      9  C   UNL     1       0.629  10.461  18.318  0.00  0.00    +0.000 A 
ATOM     10  C   UNL     1      -0.457  11.281  18.640  0.00  0.00    +0.000 A 
ATOM     11  C   UNL     1      -0.947  11.333  19.942  0.00  0.00    +0.000 A 
ATOM     12  C   UNL     1      -0.366  10.571  20.959  0.00  0.00    +0.000 A 
ATOM     13  C   UNL     1       0.577   9.607  20.576  0.00  0.00    +0.000 A 
ATOM     14  S   UNL     1       1.258   8.328  21.500  0.00  0.00    +0.000 S 
ENDBRANCH   3   6
BRANCH   1  16
ATOM     15  O   UNL     1       2.294   2.958  16.690  0.00  0.00    +0.000 OA
ATOM     16  S   UNL     1       3.260   2.876  17.763  0.00  0.00    +0.000 S 
ATOM     17  O   UNL     1       3.345   1.665  18.560  0.00  0.00    +0.000 OA
BRANCH  16  18
ATOM     18  N   UNL     1       4.796   3.127  17.125  0.00  0.00    +0.000 N 
ATOM     19  C   UNL     1       5.425   4.257  17.689  0.00  0.00    +0.000 A 
ATOM     20  N   UNL     1       5.938   4.227  18.893  0.00  0.00    +0.000 NA
ATOM     21  C   UNL     1       6.594   5.424  19.132  0.00  0.00    +0.000 A 
ATOM     22  C   UNL     1       6.520   6.359  18.120  0.00  0.00    +0.000 A 
ATOM     23  S   UNL     1       5.678   5.686  16.784  0.00  0.00    +0.000 S 
ATOM     24  H   UNL     1       4.682   3.246  16.115  0.00  0.00    +0.000 HD
ENDBRANCH  16  18
ENDBRANCH   1  16
TORSDOF 3
ENDMDL
MODEL 4
REMARK VINA RESULT:      -7.6      4.550      8.236
REMARK  Name = 
REMARK  3 active torsions:
REMARK  status: ('A' for Active; 'I' for Inactive)
REMARK    1  A    between atoms: S_2  and  N_4
REMARK    2  A    between atoms: S_2  and  C_10
REMARK    3  A    between atoms: C_12  and  C_13
REMARK                            x       y       z     vdW  Elec       q    Type
REMARK                         _______ _______ _______ _____ _____    ______ ____
ROOT
ATOM      1  C   UNL     1       0.191  11.280  19.600  0.00  0.00    +0.000 A 
ATOM      2  C   UNL     1       0.956  10.213  19.157  0.00  0.00    +0.000 A 
ATOM      3  C   UNL     1       1.051   9.172  20.129  0.00  0.00    +0.000 A 
ATOM      4  C   UNL     1       0.359   9.483  21.279  0.00  0.00    +0.000 A 
ATOM      5  S   UNL     1      -0.403  11.016  21.179  0.00  0.00    +0.000 S 
ENDROOT
BRANCH   3   6
ATOM      6  C   UNL     1       1.722   7.841  19.924  0.00  0.00    +0.000 A 
ATOM      7  N   UNL     1       1.604   6.864  20.797  0.00  0.00    +0.000 NA
ATOM      8  C   UNL     1       1.824   5.661  20.148  0.00  0.00    +0.000 A 
ATOM      9  C   UNL     1       1.505   4.387  20.653  0.00  0.00    +0.000 A 
ATOM     10  C   UNL     1       1.447   3.310  19.764  0.00  0.00    +0.000 A 
ATOM     11  C   UNL     1       1.908   3.443  18.456  0.00  0.00    +0.000 A 
ATOM     12  C   UNL     1       2.443   4.651  18.002  0.00  0.00    +0.000 A 
ATOM     13  C   UNL     1       2.300   5.767  18.839  0.00  0.00    +0.000 A 
ATOM     14  S   UNL     1       2.569   7.427  18.486  0.00  0.00    +0.000 S 
ENDBRANCH   3   6
BRANCH   1  16
ATOM     15  O   UNL     1       1.054  13.396  18.439  0.00  0.00    +0.000 OA
ATOM     16  S   UNL     1      -0.214  12.820  18.830  0.00  0.00    +0.000 S 
ATOM     17  O   UNL     1      -1.052  13.518  19.789  0.00  0.00    +0.000 OA
BRANCH  16  18
ATOM     18  N   UNL     1      -1.155  12.603  17.453  0.00  0.00    +0.000 N 
ATOM     19  C   UNL     1      -2.142  11.611  17.639  0.00  0.00    +0.000 A 
ATOM     20  N   UNL     1      -3.226  11.844  18.335  0.00  0.00    +0.000 NA
ATOM     21  C   UNL     1      -4.064  10.743  18.241  0.00  0.00    +0.000 A 
ATOM     22  C   UNL     1      -3.572   9.677  17.517  0.00  0.00    +0.000 A 
ATOM     23  S   UNL     1      -2.048  10.097  16.851  0.00  0.00    +0.000 S 
ATOM     24  H   UNL     1      -0.519  12.340  16.697  0.00  0.00    +0.000 HD
ENDBRANCH  16  18
ENDBRANCH   1  16
TORSDOF 3
ENDMDL
MODEL 5
REMARK VINA RESULT:      -7.3      2.533      3.286
REMARK  Name = 
REMARK  3 active torsions:
REMARK  status: ('A' for Active; 'I' for Inactive)
REMARK    1  A    between atoms: S_2  and  N_4
REMARK    2  A    between atoms: S_2  and  C_10
REMARK    3  A    between atoms: C_12  and  C_13
REMARK                            x       y       z     vdW  Elec       q    Type
REMARK                         _______ _______ _______ _____ _____    ______ ____
ROOT
ATOM      1  C   UNL     1       4.482   6.708  17.683  0.00  0.00    +0.000 A 
ATOM      2  C   UNL     1       3.441   7.596  17.902  0.00  0.00    +0.000 A 
ATOM      3  C   UNL     1       2.625   7.213  19.010  0.00  0.00    +0.000 A 
ATOM      4  C   UNL     1       3.070   6.045  19.591  0.00  0.00    +0.000 A 
ATOM      5  S   UNL     1       4.465   5.426  18.810  0.00  0.00    +0.000 S 
ENDROOT
BRANCH   3   6
ATOM      6  C   UNL     1       1.478   8.009  19.570  0.00  0.00    +0.000 A 
ATOM      7  N   UNL     1       0.885   7.671  20.695  0.00  0.00    +0.000 NA
ATOM      8  C   UNL     1       0.293   8.798  21.239  0.00  0.00    +0.000 A 
ATOM      9  C   UNL     1      -0.180   8.919  22.558  0.00  0.00    +0.000 A 
ATOM     10  C   UNL     1      -0.415  10.199  23.070  0.00  0.00    +0.000 A 
ATOM     11  C   UNL     1      -0.400  11.312  22.234  0.00  0.00    +0.000 A 
ATOM     12  C   UNL     1      -0.154  11.179  20.865  0.00  0.00    +0.000 A 
ATOM     13  C   UNL     1       0.283   9.926  20.414  0.00  0.00    +0.000 A 
ATOM     14  S   UNL     1       0.943   9.493  18.887  0.00  0.00    +0.000 S 
ENDBRANCH   3   6
BRANCH   1  16
ATOM     15  O   UNL     1       6.813   7.503  16.973  0.00  0.00    +0.000 OA
ATOM     16  S   UNL     1       5.746   6.682  16.446  0.00  0.00    +0.000 S 
ATOM     17  O   UNL     1       5.083   7.072  15.213  0.00  0.00    +0.000 OA
BRANCH  16  18
ATOM     18  N   UNL     1       6.338   5.129  16.189  0.00  0.00    +0.000 N 
ATOM     19  C   UNL     1       6.645   4.898  14.831  0.00  0.00    +0.000 A 
ATOM     20  N   UNL     1       7.725   5.393  14.279  0.00  0.00    +0.000 NA
ATOM     21  C   UNL     1       7.832   4.903  12.986  0.00  0.00    +0.000 A 
ATOM     22  C   UNL     1       6.801   4.086  12.569  0.00  0.00    +0.000 A 
ATOM     23  S   UNL     1       5.705   3.846  13.866  0.00  0.00    +0.000 S 
ATOM     24  H   UNL     1       5.615   4.479  16.509  0.00  0.00    +0.000 HD
ENDBRANCH  16  18
ENDBRANCH   1  16
TORSDOF 3
ENDMDL
MODEL 6
REMARK VINA RESULT:      -7.2      2.349      2.954
REMARK  Name = 
REMARK  3 active torsions:
REMARK  status: ('A' for Active; 'I' for Inactive)
REMARK    1  A    between atoms: S_2  and  N_4
REMARK    2  A    between atoms: S_2  and  C_10
REMARK    3  A    between atoms: C_12  and  C_13
REMARK                            x       y       z     vdW  Elec       q    Type
REMARK                         _______ _______ _______ _____ _____    ______ ____
ROOT
ATOM      1  C   UNL     1       5.736   5.824  18.392  0.00  0.00    +0.000 A 
ATOM      2  C   UNL     1       4.841   6.881  18.361  0.00  0.00    +0.000 A 
ATOM      3  C   UNL     1       3.550   6.512  18.846  0.00  0.00    +0.000 A 
ATOM      4  C   UNL     1       3.506   5.188  19.224  0.00  0.00    +0.000 A 
ATOM      5  S   UNL     1       5.014   4.403  19.002  0.00  0.00    +0.000 S 
ENDROOT
BRANCH   3   6
ATOM      6  C   UNL     1       2.386   7.447  19.036  0.00  0.00    +0.000 A 
ATOM      7  N   UNL     1       1.729   7.512  20.174  0.00  0.00    +0.000 NA
ATOM      8  C   UNL     1       1.124   8.755  20.265  0.00  0.00    +0.000 A 
ATOM      9  C   UNL     1       0.585   9.319  21.435  0.00  0.00    +0.000 A 
ATOM     10  C   UNL     1       0.340  10.695  21.462  0.00  0.00    +0.000 A 
ATOM     11  C   UNL     1       0.413  11.453  20.297  0.00  0.00    +0.000 A 
ATOM     12  C   UNL     1       0.730  10.859  19.073  0.00  0.00    +0.000 A 
ATOM     13  C   UNL     1       1.173   9.530  19.103  0.00  0.00    +0.000 A 
ATOM     14  S   UNL     1       1.907   8.602  17.856  0.00  0.00    +0.000 S 
ENDBRANCH   3   6
BRANCH   1  16
ATOM     15  O   UNL     1       8.191   5.638  19.108  0.00  0.00    +0.000 OA
ATOM     16  S   UNL     1       7.427   5.718  17.882  0.00  0.00    +0.000 S 
ATOM     17  O   UNL     1       7.628   6.842  16.985  0.00  0.00    +0.000 OA
BRANCH  16  18
ATOM     18  N   UNL     1       7.721   4.333  16.973  0.00  0.00    +0.000 N 
ATOM     19  C   UNL     1       7.129   4.406  15.694  0.00  0.00    +0.000 A 
ATOM     20  N   UNL     1       7.649   5.135  14.738  0.00  0.00    +0.000 NA
ATOM     21  C   UNL     1       6.937   4.917  13.569  0.00  0.00    +0.000 A 
ATOM     22  C   UNL     1       5.857   4.064  13.677  0.00  0.00    +0.000 A 
ATOM     23  S   UNL     1       5.783   3.439  15.274  0.00  0.00    +0.000 S 
ATOM     24  H   UNL     1       7.339   3.545  17.501  0.00  0.00    +0.000 HD
ENDBRANCH  16  18
ENDBRANCH   1  16
TORSDOF 3
ENDMDL
MODEL 7
REMARK VINA RESULT:      -7.2      1.194      1.401
REMARK  Name = 
REMARK  3 active torsions:
REMARK  status: ('A' for Active; 'I' for Inactive)
REMARK    1  A    between atoms: S_2  and  N_4
REMARK    2  A    between atoms: S_2  and  C_10
REMARK    3  A    between atoms: C_12  and  C_13
REMARK                            x       y       z     vdW  Elec       q    Type
REMARK                         _______ _______ _______ _____ _____    ______ ____
ROOT
ATOM      1  C   UNL     1       3.130   4.258  19.501  0.00  0.00    +0.000 A 
ATOM      2  C   UNL     1       3.100   5.632  19.326  0.00  0.00    +0.000 A 
ATOM      3  C   UNL     1       2.016   6.244  20.025  0.00  0.00    +0.000 A 
ATOM      4  C   UNL     1       1.256   5.315  20.703  0.00  0.00    +0.000 A 
ATOM      5  S   UNL     1       1.856   3.721  20.502  0.00  0.00    +0.000 S 
ENDROOT
BRANCH   3   6
ATOM      6  C   UNL     1       1.760   7.724  20.122  0.00  0.00    +0.000 A 
ATOM      7  N   UNL     1       1.812   8.506  19.065  0.00  0.00    +0.000 NA
ATOM      8  C   UNL     1       1.038   9.628  19.307  0.00  0.00    +0.000 A 
ATOM      9  C   UNL     1       0.602  10.548  18.335  0.00  0.00    +0.000 A 
ATOM     10  C   UNL     1      -0.450  11.410  18.655  0.00  0.00    +0.000 A 
ATOM     11  C   UNL     1      -0.909  11.517  19.966  0.00  0.00    +0.000 A 
ATOM     12  C   UNL     1      -0.328  10.768  20.993  0.00  0.00    +0.000 A 
ATOM     13  C   UNL     1       0.577   9.765  20.619  0.00  0.00    +0.000 A 
ATOM     14  S   UNL     1       1.240   8.495  21.567  0.00  0.00    +0.000 S 
ENDBRANCH   3   6
BRANCH   1  16
ATOM     15  O   UNL     1       3.366   1.904  18.516  0.00  0.00    +0.000 OA
ATOM     16  S   UNL     1       4.217   3.026  18.844  0.00  0.00    +0.000 S 
ATOM     17  O   UNL     1       5.261   2.866  19.842  0.00  0.00    +0.000 OA
BRANCH  16  18
ATOM     18  N   UNL     1       4.983   3.550  17.442  0.00  0.00    +0.000 N 
ATOM     19  C   UNL     1       5.864   4.624  17.691  0.00  0.00    +0.000 A 
ATOM     20  N   UNL     1       7.033   4.436  18.251  0.00  0.00    +0.000 NA
ATOM     21  C   UNL     1       7.727   5.636  18.255  0.00  0.00    +0.000 A 
ATOM     22  C   UNL     1       7.047   6.722  17.743  0.00  0.00    +0.000 A 
ATOM     23  S   UNL     1       5.520   6.209  17.151  0.00  0.00    +0.000 S 
ATOM     24  H   UNL     1       4.247   3.834  16.790  0.00  0.00    +0.000 HD
ENDBRANCH  16  18
ENDBRANCH   1  16
TORSDOF 3
ENDMDL
MODEL 8
REMARK VINA RESULT:      -7.2      0.976      1.004
REMARK  Name = 
REMARK  3 active torsions:
REMARK  status: ('A' for Active; 'I' for Inactive)
REMARK    1  A    between atoms: S_2  and  N_4
REMARK    2  A    between atoms: S_2  and  C_10
REMARK    3  A    between atoms: C_12  and  C_13
REMARK                            x       y       z     vdW  Elec       q    Type
REMARK                         _______ _______ _______ _____ _____    ______ ____
ROOT
ATOM      1  C   UNL     1       2.650   4.237  18.986  0.00  0.00    +0.000 A 
ATOM      2  C   UNL     1       2.379   5.581  18.785  0.00  0.00    +0.000 A 
ATOM      3  C   UNL     1       1.981   6.240  19.987  0.00  0.00    +0.000 A 
ATOM      4  C   UNL     1       1.958   5.375  21.060  0.00  0.00    +0.000 A 
ATOM      5  S   UNL     1       2.422   3.784  20.616  0.00  0.00    +0.000 S 
ENDROOT
BRANCH   3   6
ATOM      6  C   UNL     1       1.714   7.714  20.131  0.00  0.00    +0.000 A 
ATOM      7  N   UNL     1       1.803   8.536  19.108  0.00  0.00    +0.000 NA
ATOM      8  C   UNL     1       1.014   9.645  19.363  0.00  0.00    +0.000 A 
ATOM      9  C   UNL     1       0.613  10.600  18.411  0.00  0.00    +0.000 A 
ATOM     10  C   UNL     1      -0.456  11.446  18.721  0.00  0.00    +0.000 A 
ATOM     11  C   UNL     1      -0.968  11.499  20.015  0.00  0.00    +0.000 A 
ATOM     12  C   UNL     1      -0.424  10.713  21.035  0.00  0.00    +0.000 A 
ATOM     13  C   UNL     1       0.500   9.729  20.659  0.00  0.00    +0.000 A 
ATOM     14  S   UNL     1       1.132   8.425  21.584  0.00  0.00    +0.000 S 
ENDBRANCH   3   6
BRANCH   1  16
ATOM     15  O   UNL     1       2.468   3.285  16.614  0.00  0.00    +0.000 OA
ATOM     16  S   UNL     1       3.138   2.967  17.855  0.00  0.00    +0.000 S 
ATOM     17  O   UNL     1       2.838   1.717  18.532  0.00  0.00    +0.000 OA
BRANCH  16  18
ATOM     18  N   UNL     1       4.798   2.970  17.587  0.00  0.00    +0.000 N 
ATOM     19  C   UNL     1       5.195   4.026  16.739  0.00  0.00    +0.000 A 
ATOM     20  N   UNL     1       5.269   5.261  17.169  0.00  0.00    +0.000 NA
ATOM     21  C   UNL     1       5.801   6.054  16.166  0.00  0.00    +0.000 A 
ATOM     22  C   UNL     1       6.072   5.412  14.975  0.00  0.00    +0.000 A 
ATOM     23  S   UNL     1       5.736   3.737  15.143  0.00  0.00    +0.000 S 
ATOM     24  H   UNL     1       5.033   2.066  17.169  0.00  0.00    +0.000 HD
ENDBRANCH  16  18
ENDBRANCH   1  16
TORSDOF 3
ENDMDL
MODEL 9
REMARK VINA RESULT:      -7.2      5.735      7.640
REMARK  Name = 
REMARK  3 active torsions:
REMARK  status: ('A' for Active; 'I' for Inactive)
REMARK    1  A    between atoms: S_2  and  N_4
REMARK    2  A    between atoms: S_2  and  C_10
REMARK    3  A    between atoms: C_12  and  C_13
REMARK                            x       y       z     vdW  Elec       q    Type
REMARK                         _______ _______ _______ _____ _____    ______ ____
ROOT
ATOM      1  C   UNL     1       6.765   6.816  17.349  0.00  0.00    +0.000 A 
ATOM      2  C   UNL     1       7.044   8.173  17.376  0.00  0.00    +0.000 A 
ATOM      3  C   UNL     1       8.052   8.500  18.332  0.00  0.00    +0.000 A 
ATOM      4  C   UNL     1       8.501   7.383  19.002  0.00  0.00    +0.000 A 
ATOM      5  S   UNL     1       7.717   5.954  18.473  0.00  0.00    +0.000 S 
ENDROOT
BRANCH   3   6
ATOM      6  C   UNL     1       8.653   9.864  18.539  0.00  0.00    +0.000 A 
ATOM      7  N   UNL     1       9.523  10.099  19.498  0.00  0.00    +0.000 NA
ATOM      8  C   UNL     1      10.289  11.196  19.141  0.00  0.00    +0.000 A 
ATOM      9  C   UNL     1      11.499  11.581  19.746  0.00  0.00    +0.000 A 
ATOM     10  C   UNL     1      12.333  12.473  19.065  0.00  0.00    +0.000 A 
ATOM     11  C   UNL     1      11.885  13.138  17.927  0.00  0.00    +0.000 A 
ATOM     12  C   UNL     1      10.591  12.933  17.439  0.00  0.00    +0.000 A 
ATOM     13  C   UNL     1       9.852  11.889  18.009  0.00  0.00    +0.000 A 
ATOM     14  S   UNL     1       8.379  11.183  17.471  0.00  0.00    +0.000 S 
ENDBRANCH   3   6
BRANCH   1  16
ATOM     15  O   UNL     1       6.177   4.570  16.262  0.00  0.00    +0.000 OA
ATOM     16  S   UNL     1       5.597   5.888  16.397  0.00  0.00    +0.000 S 
ATOM     17  O   UNL     1       5.349   6.688  15.210  0.00  0.00    +0.000 OA
BRANCH  16  18
ATOM     18  N   UNL     1       4.118   5.747  17.186  0.00  0.00    +0.000 N 
ATOM     19  C   UNL     1       3.996   4.516  17.864  0.00  0.00    +0.000 A 
ATOM     20  N   UNL     1       4.613   4.292  18.997  0.00  0.00    +0.000 NA
ATOM     21  C   UNL     1       4.212   3.061  19.491  0.00  0.00    +0.000 A 
ATOM     22  C   UNL     1       3.337   2.352  18.693  0.00  0.00    +0.000 A 
ATOM     23  S   UNL     1       2.926   3.297  17.321  0.00  0.00    +0.000 S 
ATOM     24  H   UNL     1       3.391   5.837  16.471  0.00  0.00    +0.000 HD
ENDBRANCH  16  18
ENDBRANCH   1  16
TORSDOF 3
ENDMDL
