MODEL 1
REMARK VINA RESULT:      -8.3      0.000      0.000
REMARK  Name = 
REMARK  11 active torsions:
REMARK  status: ('A' for Active; 'I' for Inactive)
REMARK    1  A    between atoms: C_1  and  O_2
REMARK    2  A    between atoms: O_2  and  C_3
REMARK    3  A    between atoms: C_3  and  C_4
REMARK    4  A    between atoms: C_4  and  N_5
REMARK    5  A    between atoms: C_6  and  S_7
REMARK    6  A    between atoms: S_7  and  C_8
REMARK    7  A    between atoms: C_8  and  C_9
REMARK    8  A    between atoms: N_11  and  C_12
REMARK    9  A    between atoms: C_12  and  C_13
REMARK   10  A    between atoms: C_13  and  C_14
REMARK   11  A    between atoms: C_30  and  O_31
REMARK                            x       y       z     vdW  Elec       q    Type
REMARK                         _______ _______ _______ _____ _____    ______ ____
ROOT
ATOM      1  N   UNL     1       3.876   5.303  18.627  0.00  0.00    +0.000 N 
ATOM      2  C   UNL     1       4.133   6.259  17.610  0.00  0.00    +0.000 A 
ATOM      3  N   UNL     1       3.592   7.455  17.532  0.00  0.00    +0.000 NA
ATOM      4  C   UNL     1       2.708   7.796  18.527  0.00  0.00    +0.000 A 
ATOM      5  C   UNL     1       1.984   8.902  18.715  0.00  0.00    +0.000 A 
ATOM      6  C   UNL     1       1.779  10.151  18.059  0.00  0.00    +0.000 A 
ATOM      7  C   UNL     1       0.919  11.031  18.601  0.00  0.00    +0.000 A 
ATOM      8  C   UNL     1       0.188  10.737  19.826  0.00  0.00    +0.000 A 
ATOM      9  C   UNL     1       0.334   9.588  20.505  0.00  0.00    +0.000 A 
ATOM     10  C   UNL     1       1.279   8.580  19.985  0.00  0.00    +0.000 A 
ATOM     11  N   UNL     1       1.556   7.430  20.524  0.00  0.00    +0.000 NA
ATOM     12  C   UNL     1       2.451   6.900  19.629  0.00  0.00    +0.000 A 
ATOM     13  C   UNL     1       3.047   5.710  19.677  0.00  0.00    +0.000 A 
ENDROOT
BRANCH  13  14
ATOM     14  O   UNL     1       2.831   4.883  20.760  0.00  0.00    +0.000 OA
ATOM     15  H   UNL     1       1.863   4.726  20.761  0.00  0.00    +0.000 HD
ENDBRANCH  13  14
BRANCH   1  16
ATOM     16  C   UNL     1       4.436   3.936  18.663  0.00  0.00    +0.000 C 
BRANCH  16  17
ATOM     17  C   UNL     1       3.499   2.889  18.029  0.00  0.00    +0.000 C 
BRANCH  17  19
ATOM     18  C   UNL     1       1.340   2.377  18.837  0.00  0.00    +0.000 C 
ATOM     19  O   UNL     1       2.740   2.236  19.054  0.00  0.00    +0.000 OA
ENDBRANCH  17  19
ENDBRANCH  16  17
ENDBRANCH   1  16
BRANCH   2  20
ATOM     20  S   UNL     1       5.251   5.840  16.285  0.00  0.00    +0.000 S 
BRANCH  20  21
ATOM     21  C   UNL     1       6.654   5.117  17.198  0.00  0.00    +0.000 C 
BRANCH  21  22
ATOM     22  C   UNL     1       7.305   6.097  18.173  0.00  0.00    +0.000 C 
ATOM     23  O   UNL     1       7.366   5.848  19.384  0.00  0.00    +0.000 OA
ATOM     24  N   UNL     1       7.713   7.312  17.662  0.00  0.00    +0.000 N 
ATOM     25  H   UNL     1       7.810   7.379  16.652  0.00  0.00    +0.000 HD
BRANCH  24  26
ATOM     26  C   UNL     1       8.360   8.304  18.505  0.00  0.00    +0.000 C 
BRANCH  26  27
ATOM     27  C   UNL     1       8.449   9.703  17.878  0.00  0.00    +0.000 C 
BRANCH  27  28
ATOM     28  C   UNL     1       9.420  10.629  18.573  0.00  0.00    +0.000 A 
ATOM     29  C   UNL     1      10.409  11.300  17.840  0.00  0.00    +0.000 A 
ATOM     30  C   UNL     1      11.325  12.135  18.482  0.00  0.00    +0.000 A 
ATOM     31  C   UNL     1      11.257  12.318  19.861  0.00  0.00    +0.000 A 
ATOM     32  C   UNL     1      10.259  11.683  20.597  0.00  0.00    +0.000 A 
ATOM     33  C   UNL     1       9.341  10.849  19.955  0.00  0.00    +0.000 A 
ENDBRANCH  27  28
ENDBRANCH  26  27
ENDBRANCH  24  26
ENDBRANCH  21  22
ENDBRANCH  20  21
ENDBRANCH   2  20
TORSDOF 10
ENDMDL
MODEL 2
REMARK VINA RESULT:      -8.2      0.952      1.148
REMARK  Name = 
REMARK  11 active torsions:
REMARK  status: ('A' for Active; 'I' for Inactive)
REMARK    1  A    between atoms: C_1  and  O_2
REMARK    2  A    between atoms: O_2  and  C_3
REMARK    3  A    between atoms: C_3  and  C_4
REMARK    4  A    between atoms: C_4  and  N_5
REMARK    5  A    between atoms: C_6  and  S_7
REMARK    6  A    between atoms: S_7  and  C_8
REMARK    7  A    between atoms: C_8  and  C_9
REMARK    8  A    between atoms: N_11  and  C_12
REMARK    9  A    between atoms: C_12  and  C_13
REMARK   10  A    between atoms: C_13  and  C_14
REMARK   11  A    between atoms: C_30  and  O_31
REMARK                            x       y       z     vdW  Elec       q    Type
REMARK                         _______ _______ _______ _____ _____    ______ ____
ROOT
ATOM      1  N   UNL     1       3.656   4.882  19.086  0.00  0.00    +0.000 N 
ATOM      2  C   UNL     1       3.969   5.715  17.980  0.00  0.00    +0.000 A 
ATOM      3  N   UNL     1       3.496   6.924  17.776  0.00  0.00    +0.000 NA
ATOM      4  C   UNL     1       2.630   7.412  18.725  0.00  0.00    +0.000 A 
ATOM      5  C   UNL     1       1.967   8.570  18.794  0.00  0.00    +0.000 A 
ATOM      6  C   UNL     1       1.834   9.756  18.013  0.00  0.00    +0.000 A 
ATOM      7  C   UNL     1       1.022  10.732  18.456  0.00  0.00    +0.000 A 
ATOM      8  C   UNL     1       0.273  10.604  19.699  0.00  0.00    +0.000 A 
ATOM      9  C   UNL     1       0.353   9.524  20.492  0.00  0.00    +0.000 A 
ATOM     10  C   UNL     1       1.242   8.418  20.084  0.00  0.00    +0.000 A 
ATOM     11  N   UNL     1       1.454   7.315  20.739  0.00  0.00    +0.000 NA
ATOM     12  C   UNL     1       2.320   6.649  19.910  0.00  0.00    +0.000 A 
ATOM     13  C   UNL     1       2.849   5.439  20.083  0.00  0.00    +0.000 A 
ENDROOT
BRANCH  13  14
ATOM     14  O   UNL     1       2.584   4.739  21.241  0.00  0.00    +0.000 OA
ATOM     15  H   UNL     1       1.761   5.142  21.590  0.00  0.00    +0.000 HD
ENDBRANCH  13  14
BRANCH   1  16
ATOM     16  C   UNL     1       4.140   3.497  19.265  0.00  0.00    +0.000 C 
BRANCH  16  17
ATOM     17  C   UNL     1       3.202   2.451  18.630  0.00  0.00    +0.000 C 
BRANCH  17  19
ATOM     18  C   UNL     1       0.853   2.506  18.868  0.00  0.00    +0.000 C 
ATOM     19  O   UNL     1       2.091   2.205  19.503  0.00  0.00    +0.000 OA
ENDBRANCH  17  19
ENDBRANCH  16  17
ENDBRANCH   1  16
BRANCH   2  20
ATOM     20  S   UNL     1       5.066   5.102  16.712  0.00  0.00    +0.000 S 
BRANCH  20  21
ATOM     21  C   UNL     1       5.988   6.609  16.261  0.00  0.00    +0.000 C 
BRANCH  21  22
ATOM     22  C   UNL     1       7.043   6.999  17.295  0.00  0.00    +0.000 C 
ATOM     23  O   UNL     1       7.390   6.210  18.183  0.00  0.00    +0.000 OA
ATOM     24  N   UNL     1       7.501   8.300  17.263  0.00  0.00    +0.000 N 
ATOM     25  H   UNL     1       7.328   8.830  16.413  0.00  0.00    +0.000 HD
BRANCH  24  26
ATOM     26  C   UNL     1       8.519   8.763  18.192  0.00  0.00    +0.000 C 
BRANCH  26  27
ATOM     27  C   UNL     1       8.301  10.194  18.706  0.00  0.00    +0.000 C 
BRANCH  27  28
ATOM     28  C   UNL     1       9.386  11.165  18.303  0.00  0.00    +0.000 A 
ATOM     29  C   UNL     1       9.055  12.396  17.718  0.00  0.00    +0.000 A 
ATOM     30  C   UNL     1      10.055  13.284  17.320  0.00  0.00    +0.000 A 
ATOM     31  C   UNL     1      11.396  12.959  17.511  0.00  0.00    +0.000 A 
ATOM     32  C   UNL     1      11.738  11.754  18.119  0.00  0.00    +0.000 A 
ATOM     33  C   UNL     1      10.738  10.865  18.521  0.00  0.00    +0.000 A 
ENDBRANCH  27  28
ENDBRANCH  26  27
ENDBRANCH  24  26
ENDBRANCH  21  22
ENDBRANCH  20  21
ENDBRANCH   2  20
TORSDOF 10
ENDMDL
MODEL 3
REMARK VINA RESULT:      -8.1      1.025      1.341
REMARK  Name = 
REMARK  11 active torsions:
REMARK  status: ('A' for Active; 'I' for Inactive)
REMARK    1  A    between atoms: C_1  and  O_2
REMARK    2  A    between atoms: O_2  and  C_3
REMARK    3  A    between atoms: C_3  and  C_4
REMARK    4  A    between atoms: C_4  and  N_5
REMARK    5  A    between atoms: C_6  and  S_7
REMARK    6  A    between atoms: S_7  and  C_8
REMARK    7  A    between atoms: C_8  and  C_9
REMARK    8  A    between atoms: N_11  and  C_12
REMARK    9  A    between atoms: C_12  and  C_13
REMARK   10  A    between atoms: C_13  and  C_14
REMARK   11  A    between atoms: C_30  and  O_31
REMARK                            x       y       z     vdW  Elec       q    Type
REMARK                         _______ _______ _______ _____ _____    ______ ____
ROOT
ATOM      1  N   UNL     1       3.710   4.773  19.248  0.00  0.00    +0.000 N 
ATOM      2  C   UNL     1       4.065   5.566  18.126  0.00  0.00    +0.000 A 
ATOM      3  N   UNL     1       3.605   6.770  17.865  0.00  0.00    +0.000 NA
ATOM      4  C   UNL     1       2.709   7.293  18.765  0.00  0.00    +0.000 A 
ATOM      5  C   UNL     1       2.049   8.455  18.771  0.00  0.00    +0.000 A 
ATOM      6  C   UNL     1       1.949   9.614  17.947  0.00  0.00    +0.000 A 
ATOM      7  C   UNL     1       1.127  10.608  18.327  0.00  0.00    +0.000 A 
ATOM      8  C   UNL     1       0.334  10.525  19.546  0.00  0.00    +0.000 A 
ATOM      9  C   UNL     1       0.381   9.472  20.378  0.00  0.00    +0.000 A 
ATOM     10  C   UNL     1       1.279   8.350  20.040  0.00  0.00    +0.000 A 
ATOM     11  N   UNL     1       1.462   7.269  20.739  0.00  0.00    +0.000 NA
ATOM     12  C   UNL     1       2.354   6.572  19.964  0.00  0.00    +0.000 A 
ATOM     13  C   UNL     1       2.871   5.367  20.197  0.00  0.00    +0.000 A 
ENDROOT
BRANCH  13  14
ATOM     14  O   UNL     1       2.563   4.708  21.369  0.00  0.00    +0.000 OA
ATOM     15  H   UNL     1       3.433   4.510  21.776  0.00  0.00    +0.000 HD
ENDBRANCH  13  14
BRANCH   1  16
ATOM     16  C   UNL     1       4.181   3.394  19.491  0.00  0.00    +0.000 C 
BRANCH  16  17
ATOM     17  C   UNL     1       3.156   2.328  19.054  0.00  0.00    +0.000 C 
BRANCH  17  19
ATOM     18  C   UNL     1       0.807   2.257  18.823  0.00  0.00    +0.000 C 
ATOM     19  O   UNL     1       1.998   2.969  18.503  0.00  0.00    +0.000 OA
ENDBRANCH  17  19
ENDBRANCH  16  17
ENDBRANCH   1  16
BRANCH   2  20
ATOM     20  S   UNL     1       5.203   4.907  16.920  0.00  0.00    +0.000 S 
BRANCH  20  21
ATOM     21  C   UNL     1       6.809   5.459  17.585  0.00  0.00    +0.000 C 
BRANCH  21  22
ATOM     22  C   UNL     1       7.048   6.957  17.410  0.00  0.00    +0.000 C 
ATOM     23  O   UNL     1       6.454   7.601  16.536  0.00  0.00    +0.000 OA
ATOM     24  N   UNL     1       8.035   7.529  18.185  0.00  0.00    +0.000 N 
ATOM     25  H   UNL     1       8.346   7.004  18.999  0.00  0.00    +0.000 HD
BRANCH  24  26
ATOM     26  C   UNL     1       8.326   8.951  18.106  0.00  0.00    +0.000 C 
BRANCH  26  27
ATOM     27  C   UNL     1       9.088   9.508  19.317  0.00  0.00    +0.000 C 
BRANCH  27  28
ATOM     28  C   UNL     1       9.675  10.883  19.098  0.00  0.00    +0.000 A 
ATOM     29  C   UNL     1       9.858  11.757  20.179  0.00  0.00    +0.000 A 
ATOM     30  C   UNL     1      10.374  13.038  19.976  0.00  0.00    +0.000 A 
ATOM     31  C   UNL     1      10.722  13.457  18.694  0.00  0.00    +0.000 A 
ATOM     32  C   UNL     1      10.574  12.588  17.616  0.00  0.00    +0.000 A 
ATOM     33  C   UNL     1      10.061  11.305  17.817  0.00  0.00    +0.000 A 
ENDBRANCH  27  28
ENDBRANCH  26  27
ENDBRANCH  24  26
ENDBRANCH  21  22
ENDBRANCH  20  21
ENDBRANCH   2  20
TORSDOF 10
ENDMDL
MODEL 4
REMARK VINA RESULT:      -7.7      1.018      1.435
REMARK  Name = 
REMARK  11 active torsions:
REMARK  status: ('A' for Active; 'I' for Inactive)
REMARK    1  A    between atoms: C_1  and  O_2
REMARK    2  A    between atoms: O_2  and  C_3
REMARK    3  A    between atoms: C_3  and  C_4
REMARK    4  A    between atoms: C_4  and  N_5
REMARK    5  A    between atoms: C_6  and  S_7
REMARK    6  A    between atoms: S_7  and  C_8
REMARK    7  A    between atoms: C_8  and  C_9
REMARK    8  A    between atoms: N_11  and  C_12
REMARK    9  A    between atoms: C_12  and  C_13
REMARK   10  A    between atoms: C_13  and  C_14
REMARK   11  A    between atoms: C_30  and  O_31
REMARK                            x       y       z     vdW  Elec       q    Type
REMARK                         _______ _______ _______ _____ _____    ______ ____
ROOT
ATOM      1  N   UNL     1       3.209   4.957  19.064  0.00  0.00    +0.000 N 
ATOM      2  C   UNL     1       3.611   5.738  17.950  0.00  0.00    +0.000 A 
ATOM      3  N   UNL     1       3.294   6.998  17.746  0.00  0.00    +0.000 NA
ATOM      4  C   UNL     1       2.510   7.596  18.702  0.00  0.00    +0.000 A 
ATOM      5  C   UNL     1       2.002   8.830  18.773  0.00  0.00    +0.000 A 
ATOM      6  C   UNL     1       2.012  10.020  17.987  0.00  0.00    +0.000 A 
ATOM      7  C   UNL     1       1.338  11.094  18.435  0.00  0.00    +0.000 A 
ATOM      8  C   UNL     1       0.594  11.068  19.687  0.00  0.00    +0.000 A 
ATOM      9  C   UNL     1       0.545   9.989  20.485  0.00  0.00    +0.000 A 
ATOM     10  C   UNL     1       1.280   8.777  20.073  0.00  0.00    +0.000 A 
ATOM     11  N   UNL     1       1.357   7.659  20.731  0.00  0.00    +0.000 NA
ATOM     12  C   UNL     1       2.120   6.884  19.894  0.00  0.00    +0.000 A 
ATOM     13  C   UNL     1       2.492   5.617  20.068  0.00  0.00    +0.000 A 
ENDROOT
BRANCH  13  14
ATOM     14  O   UNL     1       2.154   4.961  21.234  0.00  0.00    +0.000 OA
ATOM     15  H   UNL     1       1.395   5.468  21.591  0.00  0.00    +0.000 HD
ENDBRANCH  13  14
BRANCH   1  16
ATOM     16  C   UNL     1       3.513   3.522  19.245  0.00  0.00    +0.000 C 
BRANCH  16  17
ATOM     17  C   UNL     1       4.904   3.281  19.865  0.00  0.00    +0.000 C 
BRANCH  17  19
ATOM     18  C   UNL     1       4.353   1.058  19.287  0.00  0.00    +0.000 C 
ATOM     19  O   UNL     1       5.047   1.895  20.206  0.00  0.00    +0.000 OA
ENDBRANCH  17  19
ENDBRANCH  16  17
ENDBRANCH   1  16
BRANCH   2  20
ATOM     20  S   UNL     1       4.604   4.986  16.673  0.00  0.00    +0.000 S 
BRANCH  20  21
ATOM     21  C   UNL     1       5.632   6.389  16.127  0.00  0.00    +0.000 C 
BRANCH  21  22
ATOM     22  C   UNL     1       6.626   6.855  17.189  0.00  0.00    +0.000 C 
ATOM     23  O   UNL     1       6.804   6.203  18.226  0.00  0.00    +0.000 OA
ATOM     24  N   UNL     1       7.222   8.083  16.994  0.00  0.00    +0.000 N 
ATOM     25  H   UNL     1       7.184   8.472  16.055  0.00  0.00    +0.000 HD
BRANCH  24  26
ATOM     26  C   UNL     1       8.197   8.605  17.938  0.00  0.00    +0.000 C 
BRANCH  26  27
ATOM     27  C   UNL     1       8.099  10.120  18.173  0.00  0.00    +0.000 C 
BRANCH  27  28
ATOM     28  C   UNL     1       9.374  10.747  18.688  0.00  0.00    +0.000 A 
ATOM     29  C   UNL     1       9.556  10.960  20.062  0.00  0.00    +0.000 A 
ATOM     30  C   UNL     1      10.720  11.564  20.538  0.00  0.00    +0.000 A 
ATOM     31  C   UNL     1      11.721  11.953  19.650  0.00  0.00    +0.000 A 
ATOM     32  C   UNL     1      11.567  11.719  18.286  0.00  0.00    +0.000 A 
ATOM     33  C   UNL     1      10.404  11.112  17.808  0.00  0.00    +0.000 A 
ENDBRANCH  27  28
ENDBRANCH  26  27
ENDBRANCH  24  26
ENDBRANCH  21  22
ENDBRANCH  20  21
ENDBRANCH   2  20
TORSDOF 10
ENDMDL
MODEL 5
REMARK VINA RESULT:      -7.4      4.434      9.436
REMARK  Name = 
REMARK  11 active torsions:
REMARK  status: ('A' for Active; 'I' for Inactive)
REMARK    1  A    between atoms: C_1  and  O_2
REMARK    2  A    between atoms: O_2  and  C_3
REMARK    3  A    between atoms: C_3  and  C_4
REMARK    4  A    between atoms: C_4  and  N_5
REMARK    5  A    between atoms: C_6  and  S_7
REMARK    6  A    between atoms: S_7  and  C_8
REMARK    7  A    between atoms: C_8  and  C_9
REMARK    8  A    between atoms: N_11  and  C_12
REMARK    9  A    between atoms: C_12  and  C_13
REMARK   10  A    between atoms: C_13  and  C_14
REMARK   11  A    between atoms: C_30  and  O_31
REMARK                            x       y       z     vdW  Elec       q    Type
REMARK                         _______ _______ _______ _____ _____    ______ ____
ROOT
ATOM      1  N   UNL     1       1.685   7.839  19.903  0.00  0.00    +0.000 N 
ATOM      2  C   UNL     1       2.017   8.606  18.757  0.00  0.00    +0.000 A 
ATOM      3  N   UNL     1       2.828   8.229  17.793  0.00  0.00    +0.000 NA
ATOM      4  C   UNL     1       3.391   6.982  17.918  0.00  0.00    +0.000 A 
ATOM      5  C   UNL     1       4.261   6.331  17.141  0.00  0.00    +0.000 A 
ATOM      6  C   UNL     1       4.968   6.565  15.924  0.00  0.00    +0.000 A 
ATOM      7  C   UNL     1       5.790   5.608  15.461  0.00  0.00    +0.000 A 
ATOM      8  C   UNL     1       5.983   4.351  16.171  0.00  0.00    +0.000 A 
ATOM      9  C   UNL     1       5.347   4.053  17.315  0.00  0.00    +0.000 A 
ATOM     10  C   UNL     1       4.409   5.046  17.876  0.00  0.00    +0.000 A 
ATOM     11  N   UNL     1       3.699   4.914  18.956  0.00  0.00    +0.000 NA
ATOM     12  C   UNL     1       3.046   6.119  19.022  0.00  0.00    +0.000 A 
ATOM     13  C   UNL     1       2.196   6.538  19.958  0.00  0.00    +0.000 A 
ENDROOT
BRANCH  13  14
ATOM     14  O   UNL     1       1.837   5.687  20.982  0.00  0.00    +0.000 OA
ATOM     15  H   UNL     1       1.379   4.943  20.536  0.00  0.00    +0.000 HD
ENDBRANCH  13  14
BRANCH   1  16
ATOM     16  C   UNL     1       0.828   8.304  21.014  0.00  0.00    +0.000 C 
BRANCH  16  17
ATOM     17  C   UNL     1       1.592   9.174  22.033  0.00  0.00    +0.000 C 
BRANCH  17  19
ATOM     18  C   UNL     1      -0.335   9.662  23.308  0.00  0.00    +0.000 C 
ATOM     19  O   UNL     1       0.728  10.204  22.532  0.00  0.00    +0.000 OA
ENDBRANCH  17  19
ENDBRANCH  16  17
ENDBRANCH   1  16
BRANCH   2  20
ATOM     20  S   UNL     1       1.329  10.243  18.577  0.00  0.00    +0.000 S 
BRANCH  20  21
ATOM     21  C   UNL     1      -0.417   9.871  18.204  0.00  0.00    +0.000 C 
BRANCH  21  22
ATOM     22  C   UNL     1      -1.385  10.910  18.768  0.00  0.00    +0.000 C 
ATOM     23  O   UNL     1      -2.377  11.274  18.124  0.00  0.00    +0.000 OA
ATOM     24  N   UNL     1      -1.042  11.502  19.965  0.00  0.00    +0.000 N 
ATOM     25  H   UNL     1      -0.334  11.034  20.526  0.00  0.00    +0.000 HD
BRANCH  24  26
ATOM     26  C   UNL     1      -1.907  12.487  20.593  0.00  0.00    +0.000 C 
BRANCH  26  27
ATOM     27  C   UNL     1      -1.995  12.367  22.122  0.00  0.00    +0.000 C 
BRANCH  27  28
ATOM     28  C   UNL     1      -3.391  12.535  22.674  0.00  0.00    +0.000 A 
ATOM     29  C   UNL     1      -4.462  12.832  21.819  0.00  0.00    +0.000 A 
ATOM     30  C   UNL     1      -5.748  13.015  22.328  0.00  0.00    +0.000 A 
ATOM     31  C   UNL     1      -5.982  12.892  23.696  0.00  0.00    +0.000 A 
ATOM     32  C   UNL     1      -4.934  12.567  24.553  0.00  0.00    +0.000 A 
ATOM     33  C   UNL     1      -3.647  12.381  24.044  0.00  0.00    +0.000 A 
ENDBRANCH  27  28
ENDBRANCH  26  27
ENDBRANCH  24  26
ENDBRANCH  21  22
ENDBRANCH  20  21
ENDBRANCH   2  20
TORSDOF 10
ENDMDL
MODEL 6
REMARK VINA RESULT:      -7.4      1.151      1.489
REMARK  Name = 
REMARK  11 active torsions:
REMARK  status: ('A' for Active; 'I' for Inactive)
REMARK    1  A    between atoms: C_1  and  O_2
REMARK    2  A    between atoms: O_2  and  C_3
REMARK    3  A    between atoms: C_3  and  C_4
REMARK    4  A    between atoms: C_4  and  N_5
REMARK    5  A    between atoms: C_6  and  S_7
REMARK    6  A    between atoms: S_7  and  C_8
REMARK    7  A    between atoms: C_8  and  C_9
REMARK    8  A    between atoms: N_11  and  C_12
REMARK    9  A    between atoms: C_12  and  C_13
REMARK   10  A    between atoms: C_13  and  C_14
REMARK   11  A    between atoms: C_30  and  O_31
REMARK                            x       y       z     vdW  Elec       q    Type
REMARK                         _______ _______ _______ _____ _____    ______ ____
ROOT
ATOM      1  N   UNL     1       3.099   5.941  19.024  0.00  0.00    +0.000 N 
ATOM      2  C   UNL     1       3.406   6.902  18.027  0.00  0.00    +0.000 A 
ATOM      3  N   UNL     1       2.935   8.128  17.977  0.00  0.00    +0.000 NA
ATOM      4  C   UNL     1       2.077   8.498  18.985  0.00  0.00    +0.000 A 
ATOM      5  C   UNL     1       1.418   9.640  19.201  0.00  0.00    +0.000 A 
ATOM      6  C   UNL     1       1.283  10.913  18.573  0.00  0.00    +0.000 A 
ATOM      7  C   UNL     1       0.477  11.829  19.139  0.00  0.00    +0.000 A 
ATOM      8  C   UNL     1      -0.263  11.551  20.362  0.00  0.00    +0.000 A 
ATOM      9  C   UNL     1      -0.181  10.381  21.015  0.00  0.00    +0.000 A 
ATOM     10  C   UNL     1       0.702   9.332  20.468  0.00  0.00    +0.000 A 
ATOM     11  N   UNL     1       0.915   8.157  20.981  0.00  0.00    +0.000 NA
ATOM     12  C   UNL     1       1.774   7.595  20.069  0.00  0.00    +0.000 A 
ATOM     13  C   UNL     1       2.300   6.372  20.088  0.00  0.00    +0.000 A 
ENDROOT
BRANCH  13  14
ATOM     14  O   UNL     1       2.042   5.536  21.154  0.00  0.00    +0.000 OA
ATOM     15  H   UNL     1       1.858   6.141  21.904  0.00  0.00    +0.000 HD
ENDBRANCH  13  14
BRANCH   1  16
ATOM     16  C   UNL     1       3.580   4.543  19.028  0.00  0.00    +0.000 C 
BRANCH  16  17
ATOM     17  C   UNL     1       2.646   3.589  18.257  0.00  0.00    +0.000 C 
BRANCH  17  19
ATOM     18  C   UNL     1       1.800   2.301  20.046  0.00  0.00    +0.000 C 
ATOM     19  O   UNL     1       1.498   3.282  19.060  0.00  0.00    +0.000 OA
ENDBRANCH  17  19
ENDBRANCH  16  17
ENDBRANCH   1  16
BRANCH   2  20
ATOM     20  S   UNL     1       4.491   6.448  16.685  0.00  0.00    +0.000 S 
BRANCH  20  21
ATOM     21  C   UNL     1       6.044   6.090  17.571  0.00  0.00    +0.000 C 
BRANCH  21  22
ATOM     22  C   UNL     1       7.156   7.092  17.264  0.00  0.00    +0.000 C 
ATOM     23  O   UNL     1       7.981   6.877  16.367  0.00  0.00    +0.000 OA
ATOM     24  N   UNL     1       7.265   8.183  18.102  0.00  0.00    +0.000 N 
ATOM     25  H   UNL     1       6.461   8.400  18.686  0.00  0.00    +0.000 HD
BRANCH  24  26
ATOM     26  C   UNL     1       8.277   9.203  17.882  0.00  0.00    +0.000 C 
BRANCH  26  27
ATOM     27  C   UNL     1       9.094   9.562  19.132  0.00  0.00    +0.000 C 
BRANCH  27  28
ATOM     28  C   UNL     1       9.838  10.873  19.026  0.00  0.00    +0.000 A 
ATOM     29  C   UNL     1      10.243  11.554  20.183  0.00  0.00    +0.000 A 
ATOM     30  C   UNL     1      10.907  12.779  20.090  0.00  0.00    +0.000 A 
ATOM     31  C   UNL     1      11.184  13.331  18.841  0.00  0.00    +0.000 A 
ATOM     32  C   UNL     1      10.815  12.650  17.684  0.00  0.00    +0.000 A 
ATOM     33  C   UNL     1      10.153  11.423  17.775  0.00  0.00    +0.000 A 
ENDBRANCH  27  28
ENDBRANCH  26  27
ENDBRANCH  24  26
ENDBRANCH  21  22
ENDBRANCH  20  21
ENDBRANCH   2  20
TORSDOF 10
ENDMDL
MODEL 7
REMARK VINA RESULT:      -7.3      4.387      7.841
REMARK  Name = 
REMARK  11 active torsions:
REMARK  status: ('A' for Active; 'I' for Inactive)
REMARK    1  A    between atoms: C_1  and  O_2
REMARK    2  A    between atoms: O_2  and  C_3
REMARK    3  A    between atoms: C_3  and  C_4
REMARK    4  A    between atoms: C_4  and  N_5
REMARK    5  A    between atoms: C_6  and  S_7
REMARK    6  A    between atoms: S_7  and  C_8
REMARK    7  A    between atoms: C_8  and  C_9
REMARK    8  A    between atoms: N_11  and  C_12
REMARK    9  A    between atoms: C_12  and  C_13
REMARK   10  A    between atoms: C_13  and  C_14
REMARK   11  A    between atoms: C_30  and  O_31
REMARK                            x       y       z     vdW  Elec       q    Type
REMARK                         _______ _______ _______ _____ _____    ______ ____
ROOT
ATOM      1  N   UNL     1       1.643   7.877  20.059  0.00  0.00    +0.000 N 
ATOM      2  C   UNL     1       1.857   8.619  18.868  0.00  0.00    +0.000 A 
ATOM      3  N   UNL     1       2.656   8.271  17.885  0.00  0.00    +0.000 NA
ATOM      4  C   UNL     1       3.334   7.085  18.034  0.00  0.00    +0.000 A 
ATOM      5  C   UNL     1       4.225   6.479  17.244  0.00  0.00    +0.000 A 
ATOM      6  C   UNL     1       4.855   6.720  15.988  0.00  0.00    +0.000 A 
ATOM      7  C   UNL     1       5.740   5.818  15.527  0.00  0.00    +0.000 A 
ATOM      8  C   UNL     1       6.075   4.616  16.278  0.00  0.00    +0.000 A 
ATOM      9  C   UNL     1       5.517   4.315  17.461  0.00  0.00    +0.000 A 
ATOM     10  C   UNL     1       4.518   5.246  18.023  0.00  0.00    +0.000 A 
ATOM     11  N   UNL     1       3.869   5.100  19.140  0.00  0.00    +0.000 NA
ATOM     12  C   UNL     1       3.114   6.246  19.187  0.00  0.00    +0.000 A 
ATOM     13  C   UNL     1       2.271   6.630  20.143  0.00  0.00    +0.000 A 
ENDROOT
BRANCH  13  14
ATOM     14  O   UNL     1       2.032   5.797  21.216  0.00  0.00    +0.000 OA
ATOM     15  H   UNL     1       1.909   4.910  20.817  0.00  0.00    +0.000 HD
ENDBRANCH  13  14
BRANCH   1  16
ATOM     16  C   UNL     1       0.796   8.315  21.188  0.00  0.00    +0.000 C 
BRANCH  16  17
ATOM     17  C   UNL     1       1.545   9.232  22.175  0.00  0.00    +0.000 C 
BRANCH  17  19
ATOM     18  C   UNL     1      -0.577  10.020  22.852  0.00  0.00    +0.000 C 
ATOM     19  O   UNL     1       0.744  10.386  22.465  0.00  0.00    +0.000 OA
ENDBRANCH  17  19
ENDBRANCH  16  17
ENDBRANCH   1  16
BRANCH   2  20
ATOM     20  S   UNL     1       1.018  10.179  18.653  0.00  0.00    +0.000 S 
BRANCH  20  21
ATOM     21  C   UNL     1       2.342  11.218  17.952  0.00  0.00    +0.000 C 
BRANCH  21  22
ATOM     22  C   UNL     1       2.311  12.657  18.465  0.00  0.00    +0.000 C 
ATOM     23  O   UNL     1       3.207  13.459  18.171  0.00  0.00    +0.000 OA
ATOM     24  N   UNL     1       1.311  12.984  19.356  0.00  0.00    +0.000 N 
ATOM     25  H   UNL     1       0.513  12.354  19.407  0.00  0.00    +0.000 HD
BRANCH  24  26
ATOM     26  C   UNL     1       1.185  14.331  19.886  0.00  0.00    +0.000 C 
BRANCH  26  27
ATOM     27  C   UNL     1      -0.039  15.102  19.367  0.00  0.00    +0.000 C 
BRANCH  27  28
ATOM     28  C   UNL     1       0.304  16.301  18.514  0.00  0.00    +0.000 A 
ATOM     29  C   UNL     1      -0.706  17.156  18.053  0.00  0.00    +0.000 A 
ATOM     30  C   UNL     1      -0.397  18.249  17.241  0.00  0.00    +0.000 A 
ATOM     31  C   UNL     1       0.927  18.506  16.890  0.00  0.00    +0.000 A 
ATOM     32  C   UNL     1       1.944  17.683  17.367  0.00  0.00    +0.000 A 
ATOM     33  C   UNL     1       1.636  16.590  18.181  0.00  0.00    +0.000 A 
ENDBRANCH  27  28
ENDBRANCH  26  27
ENDBRANCH  24  26
ENDBRANCH  21  22
ENDBRANCH  20  21
ENDBRANCH   2  20
TORSDOF 10
ENDMDL
MODEL 8
REMARK VINA RESULT:      -7.2      4.382      7.833
REMARK  Name = 
REMARK  11 active torsions:
REMARK  status: ('A' for Active; 'I' for Inactive)
REMARK    1  A    between atoms: C_1  and  O_2
REMARK    2  A    between atoms: O_2  and  C_3
REMARK    3  A    between atoms: C_3  and  C_4
REMARK    4  A    between atoms: C_4  and  N_5
REMARK    5  A    between atoms: C_6  and  S_7
REMARK    6  A    between atoms: S_7  and  C_8
REMARK    7  A    between atoms: C_8  and  C_9
REMARK    8  A    between atoms: N_11  and  C_12
REMARK    9  A    between atoms: C_12  and  C_13
REMARK   10  A    between atoms: C_13  and  C_14
REMARK   11  A    between atoms: C_30  and  O_31
REMARK                            x       y       z     vdW  Elec       q    Type
REMARK                         _______ _______ _______ _____ _____    ______ ____
ROOT
ATOM      1  N   UNL     1       1.575   8.057  20.048  0.00  0.00    +0.000 N 
ATOM      2  C   UNL     1       1.739   8.726  18.807  0.00  0.00    +0.000 A 
ATOM      3  N   UNL     1       2.532   8.343  17.831  0.00  0.00    +0.000 NA
ATOM      4  C   UNL     1       3.253   7.192  18.042  0.00  0.00    +0.000 A 
ATOM      5  C   UNL     1       4.149   6.566  17.274  0.00  0.00    +0.000 A 
ATOM      6  C   UNL     1       4.747   6.746  15.992  0.00  0.00    +0.000 A 
ATOM      7  C   UNL     1       5.653   5.846  15.570  0.00  0.00    +0.000 A 
ATOM      8  C   UNL     1       6.044   4.708  16.390  0.00  0.00    +0.000 A 
ATOM      9  C   UNL     1       5.520   4.466  17.602  0.00  0.00    +0.000 A 
ATOM     10  C   UNL     1       4.501   5.397  18.124  0.00  0.00    +0.000 A 
ATOM     11  N   UNL     1       3.878   5.303  19.262  0.00  0.00    +0.000 NA
ATOM     12  C   UNL     1       3.085   6.423  19.251  0.00  0.00    +0.000 A 
ATOM     13  C   UNL     1       2.247   6.840  20.198  0.00  0.00    +0.000 A 
ENDROOT
BRANCH  13  14
ATOM     14  O   UNL     1       2.059   6.071  21.328  0.00  0.00    +0.000 OA
ATOM     15  H   UNL     1       2.725   6.404  21.966  0.00  0.00    +0.000 HD
ENDBRANCH  13  14
BRANCH   1  16
ATOM     16  C   UNL     1       0.735   8.539  21.164  0.00  0.00    +0.000 C 
BRANCH  16  17
ATOM     17  C   UNL     1       1.555   9.219  22.278  0.00  0.00    +0.000 C 
BRANCH  17  19
ATOM     18  C   UNL     1      -0.688   9.699  22.840  0.00  0.00    +0.000 C 
ATOM     19  O   UNL     1       0.670   9.766  23.264  0.00  0.00    +0.000 OA
ENDBRANCH  17  19
ENDBRANCH  16  17
ENDBRANCH   1  16
BRANCH   2  20
ATOM     20  S   UNL     1       0.842  10.240  18.510  0.00  0.00    +0.000 S 
BRANCH  20  21
ATOM     21  C   UNL     1       1.941  11.478  19.276  0.00  0.00    +0.000 C 
BRANCH  21  22
ATOM     22  C   UNL     1       1.867  12.846  18.600  0.00  0.00    +0.000 C 
ATOM     23  O   UNL     1       0.811  13.255  18.100  0.00  0.00    +0.000 OA
ATOM     24  N   UNL     1       3.048  13.547  18.472  0.00  0.00    +0.000 N 
ATOM     25  H   UNL     1       3.825  13.254  19.059  0.00  0.00    +0.000 HD
BRANCH  24  26
ATOM     26  C   UNL     1       3.078  14.866  17.861  0.00  0.00    +0.000 C 
BRANCH  26  27
ATOM     27  C   UNL     1       2.573  15.994  18.772  0.00  0.00    +0.000 C 
BRANCH  27  28
ATOM     28  C   UNL     1       1.495  16.852  18.150  0.00  0.00    +0.000 A 
ATOM     29  C   UNL     1       1.809  17.753  17.123  0.00  0.00    +0.000 A 
ATOM     30  C   UNL     1       0.822  18.566  16.565  0.00  0.00    +0.000 A 
ATOM     31  C   UNL     1      -0.493  18.482  17.019  0.00  0.00    +0.000 A 
ATOM     32  C   UNL     1      -0.825  17.569  18.017  0.00  0.00    +0.000 A 
ATOM     33  C   UNL     1       0.162  16.753  18.575  0.00  0.00    +0.000 A 
ENDBRANCH  27  28
ENDBRANCH  26  27
ENDBRANCH  24  26
ENDBRANCH  21  22
ENDBRANCH  20  21
ENDBRANCH   2  20
TORSDOF 10
ENDMDL
MODEL 9
REMARK VINA RESULT:      -7.1      3.468      4.855
REMARK  Name = 
REMARK  11 active torsions:
REMARK  status: ('A' for Active; 'I' for Inactive)
REMARK    1  A    between atoms: C_1  and  O_2
REMARK    2  A    between atoms: O_2  and  C_3
REMARK    3  A    between atoms: C_3  and  C_4
REMARK    4  A    between atoms: C_4  and  N_5
REMARK    5  A    between atoms: C_6  and  S_7
REMARK    6  A    between atoms: S_7  and  C_8
REMARK    7  A    between atoms: C_8  and  C_9
REMARK    8  A    between atoms: N_11  and  C_12
REMARK    9  A    between atoms: C_12  and  C_13
REMARK   10  A    between atoms: C_13  and  C_14
REMARK   11  A    between atoms: C_30  and  O_31
REMARK                            x       y       z     vdW  Elec       q    Type
REMARK                         _______ _______ _______ _____ _____    ______ ____
ROOT
ATOM      1  N   UNL     1       6.519   4.715  17.065  0.00  0.00    +0.000 N 
ATOM      2  C   UNL     1       6.472   5.388  18.314  0.00  0.00    +0.000 A 
ATOM      3  N   UNL     1       5.484   5.325  19.179  0.00  0.00    +0.000 NA
ATOM      4  C   UNL     1       4.415   4.533  18.834  0.00  0.00    +0.000 A 
ATOM      5  C   UNL     1       3.266   4.286  19.469  0.00  0.00    +0.000 A 
ATOM      6  C   UNL     1       2.632   4.669  20.687  0.00  0.00    +0.000 A 
ATOM      7  C   UNL     1       1.413   4.174  20.963  0.00  0.00    +0.000 A 
ATOM      8  C   UNL     1       0.724   3.273  20.048  0.00  0.00    +0.000 A 
ATOM      9  C   UNL     1       1.259   2.860  18.889  0.00  0.00    +0.000 A 
ATOM     10  C   UNL     1       2.606   3.342  18.527  0.00  0.00    +0.000 A 
ATOM     11  N   UNL     1       3.278   3.028  17.459  0.00  0.00    +0.000 NA
ATOM     12  C   UNL     1       4.425   3.766  17.612  0.00  0.00    +0.000 A 
ATOM     13  C   UNL     1       5.464   3.842  16.782  0.00  0.00    +0.000 A 
ENDROOT
BRANCH  13  14
ATOM     14  O   UNL     1       5.483   3.067  15.641  0.00  0.00    +0.000 OA
ATOM     15  H   UNL     1       4.603   3.208  15.232  0.00  0.00    +0.000 HD
ENDBRANCH  13  14
BRANCH   1  16
ATOM     16  C   UNL     1       7.604   4.852  16.072  0.00  0.00    +0.000 C 
BRANCH  16  17
ATOM     17  C   UNL     1       7.183   5.675  14.838  0.00  0.00    +0.000 C 
BRANCH  17  19
ATOM     18  C   UNL     1       7.468   4.697  12.707  0.00  0.00    +0.000 C 
ATOM     19  O   UNL     1       8.093   5.427  13.758  0.00  0.00    +0.000 OA
ENDBRANCH  17  19
ENDBRANCH  16  17
ENDBRANCH   1  16
BRANCH   2  20
ATOM     20  S   UNL     1       7.828   6.450  18.782  0.00  0.00    +0.000 S 
BRANCH  20  21
ATOM     21  C   UNL     1       7.717   7.768  17.527  0.00  0.00    +0.000 C 
BRANCH  21  22
ATOM     22  C   UNL     1       8.087   9.147  18.070  0.00  0.00    +0.000 C 
ATOM     23  O   UNL     1       7.611  10.177  17.576  0.00  0.00    +0.000 OA
ATOM     24  N   UNL     1       9.056   9.195  19.050  0.00  0.00    +0.000 N 
ATOM     25  H   UNL     1       9.264   8.327  19.538  0.00  0.00    +0.000 HD
BRANCH  24  26
ATOM     26  C   UNL     1       9.464  10.457  19.645  0.00  0.00    +0.000 C 
BRANCH  26  27
ATOM     27  C   UNL     1      10.723  11.073  19.018  0.00  0.00    +0.000 C 
BRANCH  27  28
ATOM     28  C   UNL     1      10.718  12.584  18.981  0.00  0.00    +0.000 A 
ATOM     29  C   UNL     1      11.174  13.322  20.083  0.00  0.00    +0.000 A 
ATOM     30  C   UNL     1      11.145  14.717  20.064  0.00  0.00    +0.000 A 
ATOM     31  C   UNL     1      10.671  15.392  18.941  0.00  0.00    +0.000 A 
ATOM     32  C   UNL     1      10.245  14.672  17.828  0.00  0.00    +0.000 A 
ATOM     33  C   UNL     1      10.275  13.276  17.844  0.00  0.00    +0.000 A 
ENDBRANCH  27  28
ENDBRANCH  26  27
ENDBRANCH  24  26
ENDBRANCH  21  22
ENDBRANCH  20  21
ENDBRANCH   2  20
TORSDOF 10
ENDMDL
