MODEL 1
REMARK VINA RESULT:      -7.1      0.000      0.000
REMARK  Name = 
REMARK  14 active torsions:
REMARK  status: ('A' for Active; 'I' for Inactive)
REMARK    1  A    between atoms: C_1  and  C_2
REMARK    2  A    between atoms: C_2  and  C_3
REMARK    3  A    between atoms: C_3  and  C_4
REMARK    4  A    between atoms: C_3  and  C_5
REMARK    5  A    between atoms: C_3  and  C_6
REMARK    6  A    between atoms: C_9  and  O_10
REMARK    7  A    between atoms: O_10  and  C_11
REMARK    8  A    between atoms: C_11  and  C_12
REMARK    9  A    between atoms: C_12  and  C_13
REMARK   10  A    between atoms: C_13  and  C_14
REMARK   11  A    between atoms: C_14  and  C_15
REMARK   12  A    between atoms: C_15  and  C_16
REMARK   13  A    between atoms: C_16  and  N_17
REMARK   14  A    between atoms: C_21  and  C_22
REMARK                            x       y       z     vdW  Elec       q    Type
REMARK                         _______ _______ _______ _____ _____    ______ ____
ROOT
ATOM      1  C   UNL     1       1.766   2.732  20.747  0.00  0.00    +0.000 C 
ENDROOT
BRANCH   1   2
ATOM      2  O   UNL     1       2.409   2.096  19.630  0.00  0.00    +0.000 OA
BRANCH   2   6
ATOM      3  C   UNL     1       5.137   4.432  17.372  0.00  0.00    +0.000 A 
ATOM      4  C   UNL     1       5.320   4.155  18.733  0.00  0.00    +0.000 A 
ATOM      5  C   UNL     1       4.395   3.372  19.456  0.00  0.00    +0.000 A 
ATOM      6  C   UNL     1       3.232   2.878  18.859  0.00  0.00    +0.000 A 
ATOM      7  C   UNL     1       3.038   3.141  17.508  0.00  0.00    +0.000 A 
ATOM      8  C   UNL     1       3.966   3.906  16.789  0.00  0.00    +0.000 A 
BRANCH   3   9
ATOM      9  C   UNL     1       6.124   5.261  16.511  0.00  0.00    +0.000 C 
ATOM     10  C   UNL     1       5.614   5.222  15.045  0.00  0.00    +0.000 C 
ATOM     11  C   UNL     1       7.529   4.615  16.543  0.00  0.00    +0.000 C 
BRANCH   9  13
ATOM     12  C   UNL     1       7.522   7.258  17.556  0.00  0.00    +0.000 C 
ATOM     13  C   UNL     1       6.259   6.783  16.847  0.00  0.00    +0.000 C 
ENDBRANCH   9  13
ENDBRANCH   3   9
ENDBRANCH   2   6
ENDBRANCH   1   2
BRANCH   1  14
ATOM     14  C   UNL     1       0.922   3.929  20.273  0.00  0.00    +0.000 C 
BRANCH  14  15
ATOM     15  C   UNL     1       1.536   5.266  20.725  0.00  0.00    +0.000 C 
BRANCH  15  16
ATOM     16  C   UNL     1       2.114   6.082  19.559  0.00  0.00    +0.000 C 
BRANCH  16  17
ATOM     17  C   UNL     1       2.049   7.600  19.819  0.00  0.00    +0.000 C 
BRANCH  17  18
ATOM     18  C   UNL     1       1.494   7.951  21.218  0.00  0.00    +0.000 C 
BRANCH  18  19
ATOM     19  N   UNL     1       0.285   8.748  21.147  0.00  0.00    +0.000 NA
ATOM     20  C   UNL     1      -0.573   8.772  22.325  0.00  0.00    +0.000 C 
ATOM     21  C   UNL     1      -0.560  10.073  23.129  0.00  0.00    +0.000 C 
ATOM     22  C   UNL     1      -0.686  11.295  22.230  0.00  0.00    +0.000 C 
ATOM     23  C   UNL     1       0.431  11.273  21.189  0.00  0.00    +0.000 C 
ATOM     24  C   UNL     1       0.339  12.490  20.267  0.00  0.00    +0.000 C 
ATOM     25  C   UNL     1       0.357   9.973  20.366  0.00  0.00    +0.000 C 
ENDBRANCH  18  19
ENDBRANCH  17  18
ENDBRANCH  16  17
ENDBRANCH  15  16
ENDBRANCH  14  15
ENDBRANCH   1  14
TORSDOF 10
ENDMDL
MODEL 2
REMARK VINA RESULT:      -6.9      5.673      8.926
REMARK  Name = 
REMARK  14 active torsions:
REMARK  status: ('A' for Active; 'I' for Inactive)
REMARK    1  A    between atoms: C_1  and  C_2
REMARK    2  A    between atoms: C_2  and  C_3
REMARK    3  A    between atoms: C_3  and  C_4
REMARK    4  A    between atoms: C_3  and  C_5
REMARK    5  A    between atoms: C_3  and  C_6
REMARK    6  A    between atoms: C_9  and  O_10
REMARK    7  A    between atoms: O_10  and  C_11
REMARK    8  A    between atoms: C_11  and  C_12
REMARK    9  A    between atoms: C_12  and  C_13
REMARK   10  A    between atoms: C_13  and  C_14
REMARK   11  A    between atoms: C_14  and  C_15
REMARK   12  A    between atoms: C_15  and  C_16
REMARK   13  A    between atoms: C_16  and  N_17
REMARK   14  A    between atoms: C_21  and  C_22
REMARK                            x       y       z     vdW  Elec       q    Type
REMARK                         _______ _______ _______ _____ _____    ______ ____
ROOT
ATOM      1  C   UNL     1       8.038   7.818  18.022  0.00  0.00    +0.000 C 
ENDROOT
BRANCH   1   2
ATOM      2  O   UNL     1       7.067   7.361  17.067  0.00  0.00    +0.000 OA
BRANCH   2   6
ATOM      3  C   UNL     1       4.035   4.640  18.252  0.00  0.00    +0.000 A 
ATOM      4  C   UNL     1       3.775   5.773  17.469  0.00  0.00    +0.000 A 
ATOM      5  C   UNL     1       4.807   6.658  17.089  0.00  0.00    +0.000 A 
ATOM      6  C   UNL     1       6.124   6.470  17.516  0.00  0.00    +0.000 A 
ATOM      7  C   UNL     1       6.398   5.349  18.290  0.00  0.00    +0.000 A 
ATOM      8  C   UNL     1       5.374   4.464  18.653  0.00  0.00    +0.000 A 
BRANCH   3   9
ATOM      9  C   UNL     1       2.957   3.613  18.683  0.00  0.00    +0.000 C 
ATOM     10  C   UNL     1       3.621   2.628  19.683  0.00  0.00    +0.000 C 
ATOM     11  C   UNL     1       2.479   2.798  17.458  0.00  0.00    +0.000 C 
BRANCH   9  13
ATOM     12  C   UNL     1       1.920   4.853  20.787  0.00  0.00    +0.000 C 
ATOM     13  C   UNL     1       1.706   4.168  19.442  0.00  0.00    +0.000 C 
ENDBRANCH   9  13
ENDBRANCH   3   9
ENDBRANCH   2   6
ENDBRANCH   1   2
BRANCH   1  14
ATOM     14  C   UNL     1       8.263   9.333  17.879  0.00  0.00    +0.000 C 
BRANCH  14  15
ATOM     15  C   UNL     1       9.069   9.898  19.063  0.00  0.00    +0.000 C 
BRANCH  15  16
ATOM     16  C   UNL     1       9.461  11.370  18.870  0.00  0.00    +0.000 C 
BRANCH  16  17
ATOM     17  C   UNL     1      10.469  11.561  17.720  0.00  0.00    +0.000 C 
BRANCH  17  18
ATOM     18  C   UNL     1      11.926  11.721  18.213  0.00  0.00    +0.000 C 
BRANCH  18  19
ATOM     19  N   UNL     1      12.333  13.111  18.284  0.00  0.00    +0.000 NA
ATOM     20  C   UNL     1      12.167  13.920  17.082  0.00  0.00    +0.000 C 
ATOM     21  C   UNL     1      11.032  14.944  17.125  0.00  0.00    +0.000 C 
ATOM     22  C   UNL     1      11.033  15.736  18.425  0.00  0.00    +0.000 C 
ATOM     23  C   UNL     1      10.953  14.768  19.604  0.00  0.00    +0.000 C 
ATOM     24  C   UNL     1      10.949  15.528  20.932  0.00  0.00    +0.000 C 
ATOM     25  C   UNL     1      12.138  13.784  19.557  0.00  0.00    +0.000 C 
ENDBRANCH  18  19
ENDBRANCH  17  18
ENDBRANCH  16  17
ENDBRANCH  15  16
ENDBRANCH  14  15
ENDBRANCH   1  14
TORSDOF 10
ENDMDL
MODEL 3
REMARK VINA RESULT:      -6.8      5.500      8.696
REMARK  Name = 
REMARK  14 active torsions:
REMARK  status: ('A' for Active; 'I' for Inactive)
REMARK    1  A    between atoms: C_1  and  C_2
REMARK    2  A    between atoms: C_2  and  C_3
REMARK    3  A    between atoms: C_3  and  C_4
REMARK    4  A    between atoms: C_3  and  C_5
REMARK    5  A    between atoms: C_3  and  C_6
REMARK    6  A    between atoms: C_9  and  O_10
REMARK    7  A    between atoms: O_10  and  C_11
REMARK    8  A    between atoms: C_11  and  C_12
REMARK    9  A    between atoms: C_12  and  C_13
REMARK   10  A    between atoms: C_13  and  C_14
REMARK   11  A    between atoms: C_14  and  C_15
REMARK   12  A    between atoms: C_15  and  C_16
REMARK   13  A    between atoms: C_16  and  N_17
REMARK   14  A    between atoms: C_21  and  C_22
REMARK                            x       y       z     vdW  Elec       q    Type
REMARK                         _______ _______ _______ _____ _____    ______ ____
ROOT
ATOM      1  C   UNL     1       8.358   8.544  18.139  0.00  0.00    +0.000 C 
ENDROOT
BRANCH   1   2
ATOM      2  O   UNL     1       7.713   7.702  17.170  0.00  0.00    +0.000 OA
BRANCH   2   6
ATOM      3  C   UNL     1       4.515   5.181  18.361  0.00  0.00    +0.000 A 
ATOM      4  C   UNL     1       4.379   6.166  17.373  0.00  0.00    +0.000 A 
ATOM      5  C   UNL     1       5.463   6.987  16.997  0.00  0.00    +0.000 A 
ATOM      6  C   UNL     1       6.707   6.887  17.626  0.00  0.00    +0.000 A 
ATOM      7  C   UNL     1       6.859   5.912  18.605  0.00  0.00    +0.000 A 
ATOM      8  C   UNL     1       5.785   5.088  18.965  0.00  0.00    +0.000 A 
BRANCH   3   9
ATOM      9  C   UNL     1       3.376   4.227  18.804  0.00  0.00    +0.000 C 
ATOM     10  C   UNL     1       2.420   4.045  17.594  0.00  0.00    +0.000 C 
ATOM     11  C   UNL     1       2.568   4.865  19.958  0.00  0.00    +0.000 C 
BRANCH   9  13
ATOM     12  C   UNL     1       3.519   1.642  18.225  0.00  0.00    +0.000 C 
ATOM     13  C   UNL     1       3.783   2.773  19.213  0.00  0.00    +0.000 C 
ENDBRANCH   9  13
ENDBRANCH   3   9
ENDBRANCH   2   6
ENDBRANCH   1   2
BRANCH   1  14
ATOM     14  C   UNL     1       8.291  10.018  17.700  0.00  0.00    +0.000 C 
BRANCH  14  15
ATOM     15  C   UNL     1       9.383  10.860  18.385  0.00  0.00    +0.000 C 
BRANCH  15  16
ATOM     16  C   UNL     1       9.491  10.586  19.892  0.00  0.00    +0.000 C 
BRANCH  16  17
ATOM     17  C   UNL     1      10.348  11.640  20.619  0.00  0.00    +0.000 C 
BRANCH  17  18
ATOM     18  C   UNL     1      11.708  11.894  19.929  0.00  0.00    +0.000 C 
BRANCH  18  19
ATOM     19  N   UNL     1      11.822  13.247  19.418  0.00  0.00    +0.000 NA
ATOM     20  C   UNL     1      12.323  13.410  18.059  0.00  0.00    +0.000 C 
ATOM     21  C   UNL     1      11.283  13.815  17.013  0.00  0.00    +0.000 C 
ATOM     22  C   UNL     1      10.403  14.956  17.503  0.00  0.00    +0.000 C 
ATOM     23  C   UNL     1       9.740  14.552  18.819  0.00  0.00    +0.000 C 
ATOM     24  C   UNL     1       8.843  15.675  19.343  0.00  0.00    +0.000 C 
ATOM     25  C   UNL     1      10.817  14.199  19.863  0.00  0.00    +0.000 C 
ENDBRANCH  18  19
ENDBRANCH  17  18
ENDBRANCH  16  17
ENDBRANCH  15  16
ENDBRANCH  14  15
ENDBRANCH   1  14
TORSDOF 10
ENDMDL
MODEL 4
REMARK VINA RESULT:      -6.8      1.159      1.942
REMARK  Name = 
REMARK  14 active torsions:
REMARK  status: ('A' for Active; 'I' for Inactive)
REMARK    1  A    between atoms: C_1  and  C_2
REMARK    2  A    between atoms: C_2  and  C_3
REMARK    3  A    between atoms: C_3  and  C_4
REMARK    4  A    between atoms: C_3  and  C_5
REMARK    5  A    between atoms: C_3  and  C_6
REMARK    6  A    between atoms: C_9  and  O_10
REMARK    7  A    between atoms: O_10  and  C_11
REMARK    8  A    between atoms: C_11  and  C_12
REMARK    9  A    between atoms: C_12  and  C_13
REMARK   10  A    between atoms: C_13  and  C_14
REMARK   11  A    between atoms: C_14  and  C_15
REMARK   12  A    between atoms: C_15  and  C_16
REMARK   13  A    between atoms: C_16  and  N_17
REMARK   14  A    between atoms: C_21  and  C_22
REMARK                            x       y       z     vdW  Elec       q    Type
REMARK                         _______ _______ _______ _____ _____    ______ ____
ROOT
ATOM      1  C   UNL     1       1.930   2.138  20.643  0.00  0.00    +0.000 C 
ENDROOT
BRANCH   1   2
ATOM      2  O   UNL     1       2.668   1.736  19.478  0.00  0.00    +0.000 OA
BRANCH   2   6
ATOM      3  C   UNL     1       5.146   4.657  17.653  0.00  0.00    +0.000 A 
ATOM      4  C   UNL     1       5.306   4.249  18.984  0.00  0.00    +0.000 A 
ATOM      5  C   UNL     1       4.467   3.273  19.561  0.00  0.00    +0.000 A 
ATOM      6  C   UNL     1       3.409   2.704  18.846  0.00  0.00    +0.000 A 
ATOM      7  C   UNL     1       3.239   3.095  17.523  0.00  0.00    +0.000 A 
ATOM      8  C   UNL     1       4.084   4.054  16.949  0.00  0.00    +0.000 A 
BRANCH   3   9
ATOM      9  C   UNL     1       6.047   5.702  16.947  0.00  0.00    +0.000 C 
ATOM     10  C   UNL     1       5.145   6.531  15.992  0.00  0.00    +0.000 C 
ATOM     11  C   UNL     1       7.118   4.988  16.089  0.00  0.00    +0.000 C 
BRANCH   9  13
ATOM     12  C   UNL     1       7.694   7.766  17.197  0.00  0.00    +0.000 C 
ATOM     13  C   UNL     1       6.750   6.766  17.854  0.00  0.00    +0.000 C 
ENDBRANCH   9  13
ENDBRANCH   3   9
ENDBRANCH   2   6
ENDBRANCH   1   2
BRANCH   1  14
ATOM     14  C   UNL     1       0.868   3.188  20.272  0.00  0.00    +0.000 C 
BRANCH  14  15
ATOM     15  C   UNL     1       1.324   4.610  20.648  0.00  0.00    +0.000 C 
BRANCH  15  16
ATOM     16  C   UNL     1       1.369   5.560  19.443  0.00  0.00    +0.000 C 
BRANCH  16  17
ATOM     17  C   UNL     1       2.425   6.670  19.612  0.00  0.00    +0.000 C 
BRANCH  17  18
ATOM     18  C   UNL     1       2.309   7.783  18.545  0.00  0.00    +0.000 C 
BRANCH  18  19
ATOM     19  N   UNL     1       1.896   9.051  19.115  0.00  0.00    +0.000 NA
ATOM     20  C   UNL     1       1.178   9.974  18.246  0.00  0.00    +0.000 C 
ATOM     21  C   UNL     1      -0.319  10.121  18.527  0.00  0.00    +0.000 C 
ATOM     22  C   UNL     1      -0.600  10.302  20.012  0.00  0.00    +0.000 C 
ATOM     23  C   UNL     1      -0.001   9.129  20.786  0.00  0.00    +0.000 C 
ATOM     24  C   UNL     1      -0.265   9.274  22.285  0.00  0.00    +0.000 C 
ATOM     25  C   UNL     1       1.514   9.042  20.518  0.00  0.00    +0.000 C 
ENDBRANCH  18  19
ENDBRANCH  17  18
ENDBRANCH  16  17
ENDBRANCH  15  16
ENDBRANCH  14  15
ENDBRANCH   1  14
TORSDOF 10
ENDMDL
MODEL 5
REMARK VINA RESULT:      -6.7      2.239      7.323
REMARK  Name = 
REMARK  14 active torsions:
REMARK  status: ('A' for Active; 'I' for Inactive)
REMARK    1  A    between atoms: C_1  and  C_2
REMARK    2  A    between atoms: C_2  and  C_3
REMARK    3  A    between atoms: C_3  and  C_4
REMARK    4  A    between atoms: C_3  and  C_5
REMARK    5  A    between atoms: C_3  and  C_6
REMARK    6  A    between atoms: C_9  and  O_10
REMARK    7  A    between atoms: O_10  and  C_11
REMARK    8  A    between atoms: C_11  and  C_12
REMARK    9  A    between atoms: C_12  and  C_13
REMARK   10  A    between atoms: C_13  and  C_14
REMARK   11  A    between atoms: C_14  and  C_15
REMARK   12  A    between atoms: C_15  and  C_16
REMARK   13  A    between atoms: C_16  and  N_17
REMARK   14  A    between atoms: C_21  and  C_22
REMARK                            x       y       z     vdW  Elec       q    Type
REMARK                         _______ _______ _______ _____ _____    ______ ____
ROOT
ATOM      1  C   UNL     1       2.271   5.179  20.764  0.00  0.00    +0.000 C 
ENDROOT
BRANCH   1   2
ATOM      2  O   UNL     1       2.922   6.193  19.981  0.00  0.00    +0.000 OA
BRANCH   2   6
ATOM      3  C   UNL     1       0.756   9.796  19.413  0.00  0.00    +0.000 A 
ATOM      4  C   UNL     1       0.797   9.120  20.640  0.00  0.00    +0.000 A 
ATOM      5  C   UNL     1       1.530   7.925  20.797  0.00  0.00    +0.000 A 
ATOM      6  C   UNL     1       2.207   7.336  19.725  0.00  0.00    +0.000 A 
ATOM      7  C   UNL     1       2.178   7.997  18.503  0.00  0.00    +0.000 A 
ATOM      8  C   UNL     1       1.462   9.192  18.353  0.00  0.00    +0.000 A 
BRANCH   3   9
ATOM      9  C   UNL     1      -0.005  11.126  19.175  0.00  0.00    +0.000 C 
ATOM     10  C   UNL     1      -0.552  11.605  20.547  0.00  0.00    +0.000 C 
ATOM     11  C   UNL     1      -1.212  10.888  18.238  0.00  0.00    +0.000 C 
BRANCH   9  13
ATOM     12  C   UNL     1       1.945  12.894  19.506  0.00  0.00    +0.000 C 
ATOM     13  C   UNL     1       0.826  12.336  18.633  0.00  0.00    +0.000 C 
ENDBRANCH   9  13
ENDBRANCH   3   9
ENDBRANCH   2   6
ENDBRANCH   1   2
BRANCH   1  14
ATOM     14  C   UNL     1       1.357   4.317  19.875  0.00  0.00    +0.000 C 
BRANCH  14  15
ATOM     15  C   UNL     1       1.916   4.192  18.446  0.00  0.00    +0.000 C 
BRANCH  15  16
ATOM     16  C   UNL     1       2.097   2.733  18.002  0.00  0.00    +0.000 C 
BRANCH  16  17
ATOM     17  C   UNL     1       3.566   2.401  17.672  0.00  0.00    +0.000 C 
BRANCH  17  18
ATOM     18  C   UNL     1       4.572   3.332  18.387  0.00  0.00    +0.000 C 
BRANCH  18  19
ATOM     19  N   UNL     1       5.448   4.014  17.455  0.00  0.00    +0.000 NA
ATOM     20  C   UNL     1       4.826   4.700  16.329  0.00  0.00    +0.000 C 
ATOM     21  C   UNL     1       4.818   6.228  16.406  0.00  0.00    +0.000 C 
ATOM     22  C   UNL     1       6.177   6.782  16.810  0.00  0.00    +0.000 C 
ATOM     23  C   UNL     1       6.599   6.160  18.140  0.00  0.00    +0.000 C 
ATOM     24  C   UNL     1       7.962   6.695  18.582  0.00  0.00    +0.000 C 
ATOM     25  C   UNL     1       6.645   4.625  18.012  0.00  0.00    +0.000 C 
ENDBRANCH  18  19
ENDBRANCH  17  18
ENDBRANCH  16  17
ENDBRANCH  15  16
ENDBRANCH  14  15
ENDBRANCH   1  14
TORSDOF 10
ENDMDL
MODEL 6
REMARK VINA RESULT:      -6.6      2.147      7.744
REMARK  Name = 
REMARK  14 active torsions:
REMARK  status: ('A' for Active; 'I' for Inactive)
REMARK    1  A    between atoms: C_1  and  C_2
REMARK    2  A    between atoms: C_2  and  C_3
REMARK    3  A    between atoms: C_3  and  C_4
REMARK    4  A    between atoms: C_3  and  C_5
REMARK    5  A    between atoms: C_3  and  C_6
REMARK    6  A    between atoms: C_9  and  O_10
REMARK    7  A    between atoms: O_10  and  C_11
REMARK    8  A    between atoms: C_11  and  C_12
REMARK    9  A    between atoms: C_12  and  C_13
REMARK   10  A    between atoms: C_13  and  C_14
REMARK   11  A    between atoms: C_14  and  C_15
REMARK   12  A    between atoms: C_15  and  C_16
REMARK   13  A    between atoms: C_16  and  N_17
REMARK   14  A    between atoms: C_21  and  C_22
REMARK                            x       y       z     vdW  Elec       q    Type
REMARK                         _______ _______ _______ _____ _____    ______ ____
ROOT
ATOM      1  C   UNL     1       2.218   5.055  20.860  0.00  0.00    +0.000 C 
ENDROOT
BRANCH   1   2
ATOM      2  O   UNL     1       2.740   6.000  19.910  0.00  0.00    +0.000 OA
BRANCH   2   6
ATOM      3  C   UNL     1       0.760   9.726  19.468  0.00  0.00    +0.000 A 
ATOM      4  C   UNL     1       1.479   9.119  18.429  0.00  0.00    +0.000 A 
ATOM      5  C   UNL     1       2.125   7.877  18.607  0.00  0.00    +0.000 A 
ATOM      6  C   UNL     1       2.116   7.220  19.841  0.00  0.00    +0.000 A 
ATOM      7  C   UNL     1       1.404   7.807  20.880  0.00  0.00    +0.000 A 
ATOM      8  C   UNL     1       0.752   9.033  20.695  0.00  0.00    +0.000 A 
BRANCH   3   9
ATOM      9  C   UNL     1       0.006  11.073  19.335  0.00  0.00    +0.000 C 
ATOM     10  C   UNL     1      -1.084  10.895  18.244  0.00  0.00    +0.000 C 
ATOM     11  C   UNL     1       0.976  12.182  18.862  0.00  0.00    +0.000 C 
BRANCH   9  13
ATOM     12  C   UNL     1      -0.100  12.623  21.485  0.00  0.00    +0.000 C 
ATOM     13  C   UNL     1      -0.770  11.583  20.595  0.00  0.00    +0.000 C 
ENDBRANCH   9  13
ENDBRANCH   3   9
ENDBRANCH   2   6
ENDBRANCH   1   2
BRANCH   1  14
ATOM     14  C   UNL     1       0.968   4.358  20.294  0.00  0.00    +0.000 C 
BRANCH  14  15
ATOM     15  C   UNL     1       1.299   3.546  19.029  0.00  0.00    +0.000 C 
BRANCH  15  16
ATOM     16  C   UNL     1       2.126   2.287  19.327  0.00  0.00    +0.000 C 
BRANCH  16  17
ATOM     17  C   UNL     1       3.632   2.505  19.086  0.00  0.00    +0.000 C 
BRANCH  17  18
ATOM     18  C   UNL     1       3.988   2.667  17.590  0.00  0.00    +0.000 C 
BRANCH  18  19
ATOM     19  N   UNL     1       4.537   3.976  17.294  0.00  0.00    +0.000 NA
ATOM     20  C   UNL     1       5.338   4.617  18.330  0.00  0.00    +0.000 C 
ATOM     21  C   UNL     1       6.845   4.662  18.070  0.00  0.00    +0.000 C 
ATOM     22  C   UNL     1       7.161   5.119  16.653  0.00  0.00    +0.000 C 
ATOM     23  C   UNL     1       6.452   4.203  15.658  0.00  0.00    +0.000 C 
ATOM     24  C   UNL     1       6.749   4.630  14.219  0.00  0.00    +0.000 C 
ATOM     25  C   UNL     1       4.934   4.221  15.916  0.00  0.00    +0.000 C 
ENDBRANCH  18  19
ENDBRANCH  17  18
ENDBRANCH  16  17
ENDBRANCH  15  16
ENDBRANCH  14  15
ENDBRANCH   1  14
TORSDOF 10
ENDMDL
MODEL 7
REMARK VINA RESULT:      -6.5      2.160      7.289
REMARK  Name = 
REMARK  14 active torsions:
REMARK  status: ('A' for Active; 'I' for Inactive)
REMARK    1  A    between atoms: C_1  and  C_2
REMARK    2  A    between atoms: C_2  and  C_3
REMARK    3  A    between atoms: C_3  and  C_4
REMARK    4  A    between atoms: C_3  and  C_5
REMARK    5  A    between atoms: C_3  and  C_6
REMARK    6  A    between atoms: C_9  and  O_10
REMARK    7  A    between atoms: O_10  and  C_11
REMARK    8  A    between atoms: C_11  and  C_12
REMARK    9  A    between atoms: C_12  and  C_13
REMARK   10  A    between atoms: C_13  and  C_14
REMARK   11  A    between atoms: C_14  and  C_15
REMARK   12  A    between atoms: C_15  and  C_16
REMARK   13  A    between atoms: C_16  and  N_17
REMARK   14  A    between atoms: C_21  and  C_22
REMARK                            x       y       z     vdW  Elec       q    Type
REMARK                         _______ _______ _______ _____ _____    ______ ____
ROOT
ATOM      1  C   UNL     1       2.111   4.238  20.963  0.00  0.00    +0.000 C 
ENDROOT
BRANCH   1   2
ATOM      2  O   UNL     1       2.851   5.173  20.160  0.00  0.00    +0.000 OA
BRANCH   2   6
ATOM      3  C   UNL     1       1.161   9.050  19.829  0.00  0.00    +0.000 A 
ATOM      4  C   UNL     1       1.029   8.260  20.979  0.00  0.00    +0.000 A 
ATOM      5  C   UNL     1       1.606   6.974  21.058  0.00  0.00    +0.000 A 
ATOM      6  C   UNL     1       2.292   6.413  19.978  0.00  0.00    +0.000 A 
ATOM      7  C   UNL     1       2.435   7.187  18.832  0.00  0.00    +0.000 A 
ATOM      8  C   UNL     1       1.874   8.469  18.762  0.00  0.00    +0.000 A 
BRANCH   3   9
ATOM      9  C   UNL     1       0.578  10.479  19.683  0.00  0.00    +0.000 C 
ATOM     10  C   UNL     1       1.341  11.181  18.527  0.00  0.00    +0.000 C 
ATOM     11  C   UNL     1       0.824  11.289  20.977  0.00  0.00    +0.000 C 
BRANCH   9  13
ATOM     12  C   UNL     1      -1.288  11.266  17.970  0.00  0.00    +0.000 C 
ATOM     13  C   UNL     1      -0.933  10.596  19.292  0.00  0.00    +0.000 C 
ENDBRANCH   9  13
ENDBRANCH   3   9
ENDBRANCH   2   6
ENDBRANCH   1   2
BRANCH   1  14
ATOM     14  C   UNL     1       0.810   3.827  20.250  0.00  0.00    +0.000 C 
BRANCH  14  15
ATOM     15  C   UNL     1       1.100   3.054  18.950  0.00  0.00    +0.000 C 
BRANCH  15  16
ATOM     16  C   UNL     1       2.318   2.126  19.066  0.00  0.00    +0.000 C 
BRANCH  16  17
ATOM     17  C   UNL     1       3.239   2.212  17.834  0.00  0.00    +0.000 C 
BRANCH  17  18
ATOM     18  C   UNL     1       3.603   3.666  17.452  0.00  0.00    +0.000 C 
BRANCH  18  19
ATOM     19  N   UNL     1       4.983   3.792  17.023  0.00  0.00    +0.000 NA
ATOM     20  C   UNL     1       5.221   4.245  15.658  0.00  0.00    +0.000 C 
ATOM     21  C   UNL     1       5.744   5.675  15.515  0.00  0.00    +0.000 C 
ATOM     22  C   UNL     1       6.884   5.960  16.483  0.00  0.00    +0.000 C 
ATOM     23  C   UNL     1       6.415   5.678  17.910  0.00  0.00    +0.000 C 
ATOM     24  C   UNL     1       7.535   5.956  18.915  0.00  0.00    +0.000 C 
ATOM     25  C   UNL     1       5.943   4.217  18.029  0.00  0.00    +0.000 C 
ENDBRANCH  18  19
ENDBRANCH  17  18
ENDBRANCH  16  17
ENDBRANCH  15  16
ENDBRANCH  14  15
ENDBRANCH   1  14
TORSDOF 10
ENDMDL
MODEL 8
REMARK VINA RESULT:      -6.5      2.380      7.616
REMARK  Name = 
REMARK  14 active torsions:
REMARK  status: ('A' for Active; 'I' for Inactive)
REMARK    1  A    between atoms: C_1  and  C_2
REMARK    2  A    between atoms: C_2  and  C_3
REMARK    3  A    between atoms: C_3  and  C_4
REMARK    4  A    between atoms: C_3  and  C_5
REMARK    5  A    between atoms: C_3  and  C_6
REMARK    6  A    between atoms: C_9  and  O_10
REMARK    7  A    between atoms: O_10  and  C_11
REMARK    8  A    between atoms: C_11  and  C_12
REMARK    9  A    between atoms: C_12  and  C_13
REMARK   10  A    between atoms: C_13  and  C_14
REMARK   11  A    between atoms: C_14  and  C_15
REMARK   12  A    between atoms: C_15  and  C_16
REMARK   13  A    between atoms: C_16  and  N_17
REMARK   14  A    between atoms: C_21  and  C_22
REMARK                            x       y       z     vdW  Elec       q    Type
REMARK                         _______ _______ _______ _____ _____    ______ ____
ROOT
ATOM      1  C   UNL     1       2.121   5.555  20.677  0.00  0.00    +0.000 C 
ENDROOT
BRANCH   1   2
ATOM      2  O   UNL     1       2.676   6.543  19.793  0.00  0.00    +0.000 OA
BRANCH   2   6
ATOM      3  C   UNL     1       0.568  10.188  19.278  0.00  0.00    +0.000 A 
ATOM      4  C   UNL     1       1.322   9.596  18.256  0.00  0.00    +0.000 A 
ATOM      5  C   UNL     1       2.010   8.381  18.459  0.00  0.00    +0.000 A 
ATOM      6  C   UNL     1       2.009   7.739  19.700  0.00  0.00    +0.000 A 
ATOM      7  C   UNL     1       1.262   8.312  20.723  0.00  0.00    +0.000 A 
ATOM      8  C   UNL     1       0.568   9.511  20.514  0.00  0.00    +0.000 A 
BRANCH   3   9
ATOM      9  C   UNL     1      -0.234  11.505  19.118  0.00  0.00    +0.000 C 
ATOM     10  C   UNL     1       0.753  12.600  18.630  0.00  0.00    +0.000 C 
ATOM     11  C   UNL     1      -0.800  11.952  20.487  0.00  0.00    +0.000 C 
BRANCH   9  13
ATOM     12  C   UNL     1      -2.309  10.298  17.990  0.00  0.00    +0.000 C 
ATOM     13  C   UNL     1      -1.391  11.513  18.065  0.00  0.00    +0.000 C 
ENDBRANCH   9  13
ENDBRANCH   3   9
ENDBRANCH   2   6
ENDBRANCH   1   2
BRANCH   1  14
ATOM     14  C   UNL     1       2.382   4.139  20.134  0.00  0.00    +0.000 C 
BRANCH  14  15
ATOM     15  C   UNL     1       1.325   3.732  19.090  0.00  0.00    +0.000 C 
BRANCH  15  16
ATOM     16  C   UNL     1       1.915   2.915  17.932  0.00  0.00    +0.000 C 
BRANCH  16  17
ATOM     17  C   UNL     1       2.992   3.695  17.154  0.00  0.00    +0.000 C 
BRANCH  17  18
ATOM     18  C   UNL     1       4.425   3.417  17.662  0.00  0.00    +0.000 C 
BRANCH  18  19
ATOM     19  N   UNL     1       5.413   4.253  17.008  0.00  0.00    +0.000 NA
ATOM     20  C   UNL     1       4.923   5.300  16.120  0.00  0.00    +0.000 C 
ATOM     21  C   UNL     1       5.042   6.729  16.651  0.00  0.00    +0.000 C 
ATOM     22  C   UNL     1       6.417   6.998  17.248  0.00  0.00    +0.000 C 
ATOM     23  C   UNL     1       6.701   5.972  18.343  0.00  0.00    +0.000 C 
ATOM     24  C   UNL     1       8.075   6.212  18.970  0.00  0.00    +0.000 C 
ATOM     25  C   UNL     1       6.622   4.548  17.762  0.00  0.00    +0.000 C 
ENDBRANCH  18  19
ENDBRANCH  17  18
ENDBRANCH  16  17
ENDBRANCH  15  16
ENDBRANCH  14  15
ENDBRANCH   1  14
TORSDOF 10
ENDMDL
MODEL 9
REMARK VINA RESULT:      -6.5      2.358      8.963
REMARK  Name = 
REMARK  14 active torsions:
REMARK  status: ('A' for Active; 'I' for Inactive)
REMARK    1  A    between atoms: C_1  and  C_2
REMARK    2  A    between atoms: C_2  and  C_3
REMARK    3  A    between atoms: C_3  and  C_4
REMARK    4  A    between atoms: C_3  and  C_5
REMARK    5  A    between atoms: C_3  and  C_6
REMARK    6  A    between atoms: C_9  and  O_10
REMARK    7  A    between atoms: O_10  and  C_11
REMARK    8  A    between atoms: C_11  and  C_12
REMARK    9  A    between atoms: C_12  and  C_13
REMARK   10  A    between atoms: C_13  and  C_14
REMARK   11  A    between atoms: C_14  and  C_15
REMARK   12  A    between atoms: C_15  and  C_16
REMARK   13  A    between atoms: C_16  and  N_17
REMARK   14  A    between atoms: C_21  and  C_22
REMARK                            x       y       z     vdW  Elec       q    Type
REMARK                         _______ _______ _______ _____ _____    ______ ____
ROOT
ATOM      1  C   UNL     1       1.914   7.812  20.419  0.00  0.00    +0.000 C 
ENDROOT
BRANCH   1   2
ATOM      2  O   UNL     1       0.756   7.790  21.269  0.00  0.00    +0.000 OA
BRANCH   2   6
ATOM      3  C   UNL     1      -1.219  11.495  21.878  0.00  0.00    +0.000 A 
ATOM      4  C   UNL     1      -0.862  11.025  20.607  0.00  0.00    +0.000 A 
ATOM      5  C   UNL     1      -0.208   9.786  20.438  0.00  0.00    +0.000 A 
ATOM      6  C   UNL     1       0.155   8.996  21.532  0.00  0.00    +0.000 A 
ATOM      7  C   UNL     1      -0.196   9.447  22.799  0.00  0.00    +0.000 A 
ATOM      8  C   UNL     1      -0.859  10.671  22.963  0.00  0.00    +0.000 A 
BRANCH   3   9
ATOM      9  C   UNL     1      -1.962  12.831  22.136  0.00  0.00    +0.000 C 
ATOM     10  C   UNL     1      -1.182  13.596  23.239  0.00  0.00    +0.000 C 
ATOM     11  C   UNL     1      -3.388  12.553  22.667  0.00  0.00    +0.000 C 
BRANCH   9  13
ATOM     12  C   UNL     1      -0.847  14.719  20.643  0.00  0.00    +0.000 C 
ATOM     13  C   UNL     1      -2.054  13.838  20.941  0.00  0.00    +0.000 C 
ENDBRANCH   9  13
ENDBRANCH   3   9
ENDBRANCH   2   6
ENDBRANCH   1   2
BRANCH   1  14
ATOM     14  C   UNL     1       2.118   6.440  19.751  0.00  0.00    +0.000 C 
BRANCH  14  15
ATOM     15  C   UNL     1       2.088   5.300  20.785  0.00  0.00    +0.000 C 
BRANCH  15  16
ATOM     16  C   UNL     1       1.008   4.250  20.486  0.00  0.00    +0.000 C 
BRANCH  16  17
ATOM     17  C   UNL     1       1.606   2.854  20.223  0.00  0.00    +0.000 C 
BRANCH  17  18
ATOM     18  C   UNL     1       3.118   2.776  20.533  0.00  0.00    +0.000 C 
BRANCH  18  19
ATOM     19  N   UNL     1       3.922   2.664  19.332  0.00  0.00    +0.000 NA
ATOM     20  C   UNL     1       3.248   2.236  18.112  0.00  0.00    +0.000 C 
ATOM     21  C   UNL     1       3.026   3.324  17.060  0.00  0.00    +0.000 C 
ATOM     22  C   UNL     1       4.282   4.153  16.830  0.00  0.00    +0.000 C 
ATOM     23  C   UNL     1       4.743   4.749  18.160  0.00  0.00    +0.000 C 
ATOM     24  C   UNL     1       6.005   5.592  17.969  0.00  0.00    +0.000 C 
ATOM     25  C   UNL     1       5.004   3.623  19.178  0.00  0.00    +0.000 C 
ENDBRANCH  18  19
ENDBRANCH  17  18
ENDBRANCH  16  17
ENDBRANCH  15  16
ENDBRANCH  14  15
ENDBRANCH   1  14
TORSDOF 10
ENDMDL
