MODEL 1
REMARK VINA RESULT:      -7.4      0.000      0.000
REMARK  Name = 
REMARK  7 active torsions:
REMARK  status: ('A' for Active; 'I' for Inactive)
REMARK    1  A    between atoms: C_1  and  C_2
REMARK    2  A    between atoms: N_4  and  C_5
REMARK    3  A    between atoms: C_5  and  C_6
REMARK    4  A    between atoms: C_10  and  C_11
REMARK    5  A    between atoms: C_10  and  C_12
REMARK    6  A    between atoms: C_21  and  C_22
REMARK    7  A    between atoms: C_26  and  C_27
REMARK                            x       y       z     vdW  Elec       q    Type
REMARK                         _______ _______ _______ _____ _____    ______ ____
ROOT
ATOM      1  C   UNL     1      -4.640  13.272  19.790  0.00  0.00    +0.000 C 
ATOM      2  O   UNL     1      -5.541  13.089  18.969  0.00  0.00    +0.000 OA
ATOM      3  N   UNL     1      -3.391  12.662  19.705  0.00  0.00    +0.000 N 
ATOM      4  C   UNL     1      -2.343  12.757  20.736  0.00  0.00    +0.000 C 
ATOM      5  C   UNL     1      -1.061  12.069  20.192  0.00  0.00    +0.000 C 
ATOM      6  C   UNL     1      -0.073  13.186  19.793  0.00  0.00    +0.000 C 
ATOM      7  C   UNL     1      -1.606  11.429  18.925  0.00  0.00    +0.000 A 
ATOM      8  C   UNL     1      -0.919  10.608  18.036  0.00  0.00    +0.000 A 
ATOM      9  C   UNL     1      -1.587  10.150  16.897  0.00  0.00    +0.000 A 
ATOM     10  C   UNL     1      -2.923  10.516  16.653  0.00  0.00    +0.000 A 
ATOM     11  C   UNL     1      -3.601  11.359  17.549  0.00  0.00    +0.000 A 
ATOM     12  C   UNL     1      -2.932  11.807  18.680  0.00  0.00    +0.000 A 
ENDROOT
BRANCH   5  13
ATOM     13  C   UNL     1      -0.507  11.066  21.212  0.00  0.00    +0.000 A 
ATOM     14  C   UNL     1       0.577  10.226  20.884  0.00  0.00    +0.000 A 
ATOM     15  C   UNL     1       1.067   9.282  21.793  0.00  0.00    +0.000 A 
ATOM     16  C   UNL     1       0.487   9.157  23.051  0.00  0.00    +0.000 A 
ATOM     17  C   UNL     1      -0.579   9.977  23.401  0.00  0.00    +0.000 A 
ATOM     18  C   UNL     1      -1.070  10.919  22.493  0.00  0.00    +0.000 A 
ENDBRANCH   5  13
BRANCH  10  19
ATOM     19  C   UNL     1      -3.584  10.020  15.480  0.00  0.00    +0.000 C 
ATOM     20  N   UNL     1      -4.113   9.627  14.525  0.00  0.00    +0.000 NA
ENDBRANCH  10  19
BRANCH   1  21
ATOM     21  C   UNL     1      -4.825  14.183  21.036  0.00  0.00    +0.000 C 
BRANCH  21  25
ATOM     22  C   UNL     1      -7.917  11.595  22.650  0.00  0.00    +0.000 C 
ATOM     23  C   UNL     1      -7.741  13.009  23.216  0.00  0.00    +0.000 C 
ATOM     24  C   UNL     1      -6.993  13.906  22.195  0.00  0.00    +0.000 C 
ATOM     25  N   UNL     1      -5.569  13.543  22.121  0.00  0.00    +0.000 NA
ATOM     26  C   UNL     1      -4.902  13.657  23.451  0.00  0.00    +0.000 C 
ATOM     27  C   UNL     1      -5.652  12.752  24.462  0.00  0.00    +0.000 C 
ATOM     28  N   UNL     1      -7.110  12.982  24.560  0.00  0.00    +0.000 NA
ATOM     29  H   UNL     1      -7.248  13.908  24.967  0.00  0.00    +0.000 HD
BRANCH  26  30
ATOM     30  C   UNL     1      -4.779  15.113  24.013  0.00  0.00    +0.000 C 
ATOM     31  O   UNL     1      -5.755  15.726  24.458  0.00  0.00    +0.000 OA
ATOM     32  N   UNL     1      -3.528  15.719  24.047  0.00  0.00    +0.000 N 
ATOM     33  C   UNL     1      -2.276  15.202  23.487  0.00  0.00    +0.000 C 
ATOM     34  C   UNL     1      -1.175  15.233  24.554  0.00  0.00    +0.000 C 
ATOM     35  O   UNL     1      -1.004  16.561  25.071  0.00  0.00    +0.000 OA
ATOM     36  C   UNL     1      -2.217  17.038  25.675  0.00  0.00    +0.000 C 
ATOM     37  C   UNL     1      -3.372  17.046  24.664  0.00  0.00    +0.000 C 
ENDBRANCH  26  30
ENDBRANCH  21  25
ENDBRANCH   1  21
TORSDOF 5
ENDMDL
MODEL 2
REMARK VINA RESULT:      -7.4      2.446      5.698
REMARK  Name = 
REMARK  7 active torsions:
REMARK  status: ('A' for Active; 'I' for Inactive)
REMARK    1  A    between atoms: C_1  and  C_2
REMARK    2  A    between atoms: N_4  and  C_5
REMARK    3  A    between atoms: C_5  and  C_6
REMARK    4  A    between atoms: C_10  and  C_11
REMARK    5  A    between atoms: C_10  and  C_12
REMARK    6  A    between atoms: C_21  and  C_22
REMARK    7  A    between atoms: C_26  and  C_27
REMARK                            x       y       z     vdW  Elec       q    Type
REMARK                         _______ _______ _______ _____ _____    ______ ____
ROOT
ATOM      1  C   UNL     1      -0.405  13.679  22.391  0.00  0.00    +0.000 C 
ATOM      2  O   UNL     1       0.340  14.632  22.627  0.00  0.00    +0.000 OA
ATOM      3  N   UNL     1      -0.255  12.846  21.286  0.00  0.00    +0.000 N 
ATOM      4  C   UNL     1      -1.203  11.783  20.905  0.00  0.00    +0.000 C 
ATOM      5  C   UNL     1      -0.597  10.993  19.714  0.00  0.00    +0.000 C 
ATOM      6  C   UNL     1      -0.080   9.647  20.268  0.00  0.00    +0.000 C 
ATOM      7  C   UNL     1       0.600  11.871  19.380  0.00  0.00    +0.000 A 
ATOM      8  C   UNL     1       1.502  11.699  18.334  0.00  0.00    +0.000 A 
ATOM      9  C   UNL     1       2.569  12.593  18.218  0.00  0.00    +0.000 A 
ATOM     10  C   UNL     1       2.731  13.641  19.143  0.00  0.00    +0.000 A 
ATOM     11  C   UNL     1       1.824  13.794  20.205  0.00  0.00    +0.000 A 
ATOM     12  C   UNL     1       0.764  12.904  20.311  0.00  0.00    +0.000 A 
ENDROOT
BRANCH   5  13
ATOM     13  C   UNL     1      -1.615  10.862  18.573  0.00  0.00    +0.000 A 
ATOM     14  C   UNL     1      -2.797  11.631  18.570  0.00  0.00    +0.000 A 
ATOM     15  C   UNL     1      -3.749  11.494  17.555  0.00  0.00    +0.000 A 
ATOM     16  C   UNL     1      -3.542  10.589  16.519  0.00  0.00    +0.000 A 
ATOM     17  C   UNL     1      -2.382   9.824  16.496  0.00  0.00    +0.000 A 
ATOM     18  C   UNL     1      -1.431   9.959  17.511  0.00  0.00    +0.000 A 
ENDBRANCH   5  13
BRANCH  10  19
ATOM     19  C   UNL     1       3.831  14.549  18.990  0.00  0.00    +0.000 C 
ATOM     20  N   UNL     1       4.728  15.276  18.873  0.00  0.00    +0.000 NA
ENDBRANCH  10  19
BRANCH   1  21
ATOM     21  C   UNL     1      -1.623  13.334  23.295  0.00  0.00    +0.000 C 
BRANCH  21  25
ATOM     22  C   UNL     1      -2.945  17.094  25.018  0.00  0.00    +0.000 C 
ATOM     23  C   UNL     1      -3.915  15.909  24.953  0.00  0.00    +0.000 C 
ATOM     24  C   UNL     1      -3.127  14.579  24.812  0.00  0.00    +0.000 C 
ATOM     25  N   UNL     1      -2.558  14.446  23.462  0.00  0.00    +0.000 NA
ATOM     26  C   UNL     1      -3.617  14.499  22.411  0.00  0.00    +0.000 C 
ATOM     27  C   UNL     1      -4.393  15.834  22.555  0.00  0.00    +0.000 C 
ATOM     28  N   UNL     1      -4.944  16.105  23.901  0.00  0.00    +0.000 NA
ATOM     29  H   UNL     1      -5.678  15.417  24.076  0.00  0.00    +0.000 HD
BRANCH  26  30
ATOM     30  C   UNL     1      -4.612  13.290  22.404  0.00  0.00    +0.000 C 
ATOM     31  O   UNL     1      -4.714  12.523  23.367  0.00  0.00    +0.000 OA
ATOM     32  N   UNL     1      -5.431  13.098  21.297  0.00  0.00    +0.000 N 
ATOM     33  C   UNL     1      -5.396  13.832  20.029  0.00  0.00    +0.000 C 
ATOM     34  C   UNL     1      -6.800  14.344  19.685  0.00  0.00    +0.000 C 
ATOM     35  O   UNL     1      -7.740  13.260  19.631  0.00  0.00    +0.000 OA
ATOM     36  C   UNL     1      -7.814  12.582  20.896  0.00  0.00    +0.000 C 
ATOM     37  C   UNL     1      -6.443  12.030  21.311  0.00  0.00    +0.000 C 
ENDBRANCH  26  30
ENDBRANCH  21  25
ENDBRANCH   1  21
TORSDOF 5
ENDMDL
MODEL 3
REMARK VINA RESULT:      -7.3      6.196     10.082
REMARK  Name = 
REMARK  7 active torsions:
REMARK  status: ('A' for Active; 'I' for Inactive)
REMARK    1  A    between atoms: C_1  and  C_2
REMARK    2  A    between atoms: N_4  and  C_5
REMARK    3  A    between atoms: C_5  and  C_6
REMARK    4  A    between atoms: C_10  and  C_11
REMARK    5  A    between atoms: C_10  and  C_12
REMARK    6  A    between atoms: C_21  and  C_22
REMARK    7  A    between atoms: C_26  and  C_27
REMARK                            x       y       z     vdW  Elec       q    Type
REMARK                         _______ _______ _______ _____ _____    ______ ____
ROOT
ATOM      1  C   UNL     1       1.316   8.267  18.306  0.00  0.00    +0.000 C 
ATOM      2  O   UNL     1       0.979   7.833  17.203  0.00  0.00    +0.000 OA
ATOM      3  N   UNL     1       0.710   9.362  18.916  0.00  0.00    +0.000 N 
ATOM      4  C   UNL     1       1.174   9.983  20.169  0.00  0.00    +0.000 C 
ATOM      5  C   UNL     1       0.144  11.068  20.585  0.00  0.00    +0.000 C 
ATOM      6  C   UNL     1      -0.681  10.494  21.758  0.00  0.00    +0.000 C 
ATOM      7  C   UNL     1      -0.737  11.104  19.346  0.00  0.00    +0.000 A 
ATOM      8  C   UNL     1      -1.813  11.952  19.105  0.00  0.00    +0.000 A 
ATOM      9  C   UNL     1      -2.530  11.801  17.915  0.00  0.00    +0.000 A 
ATOM     10  C   UNL     1      -2.175  10.807  16.985  0.00  0.00    +0.000 A 
ATOM     11  C   UNL     1      -1.098   9.945  17.247  0.00  0.00    +0.000 A 
ATOM     12  C   UNL     1      -0.387  10.104  18.429  0.00  0.00    +0.000 A 
ENDROOT
BRANCH   5  13
ATOM     13  C   UNL     1       0.846  12.397  20.893  0.00  0.00    +0.000 A 
ATOM     14  C   UNL     1       0.249  13.349  21.744  0.00  0.00    +0.000 A 
ATOM     15  C   UNL     1       0.864  14.579  22.003  0.00  0.00    +0.000 A 
ATOM     16  C   UNL     1       2.089  14.885  21.420  0.00  0.00    +0.000 A 
ATOM     17  C   UNL     1       2.701  13.961  20.581  0.00  0.00    +0.000 A 
ATOM     18  C   UNL     1       2.087  12.732  20.322  0.00  0.00    +0.000 A 
ENDBRANCH   5  13
BRANCH  10  19
ATOM     19  C   UNL     1      -2.925  10.684  15.768  0.00  0.00    +0.000 C 
ATOM     20  N   UNL     1      -3.533  10.596  14.784  0.00  0.00    +0.000 NA
ENDBRANCH  10  19
BRANCH   1  21
ATOM     21  C   UNL     1       2.490   7.649  19.116  0.00  0.00    +0.000 C 
BRANCH  21  25
ATOM     22  C   UNL     1       0.729   3.950  20.555  0.00  0.00    +0.000 C 
ATOM     23  C   UNL     1       2.242   4.166  20.679  0.00  0.00    +0.000 C 
ATOM     24  C   UNL     1       2.573   5.681  20.611  0.00  0.00    +0.000 C 
ATOM     25  N   UNL     1       2.409   6.194  19.242  0.00  0.00    +0.000 NA
ATOM     26  C   UNL     1       3.276   5.461  18.272  0.00  0.00    +0.000 C 
ATOM     27  C   UNL     1       2.931   3.951  18.342  0.00  0.00    +0.000 C 
ATOM     28  N   UNL     1       2.991   3.348  19.692  0.00  0.00    +0.000 NA
ATOM     29  H   UNL     1       3.968   3.353  19.987  0.00  0.00    +0.000 HD
BRANCH  26  30
ATOM     30  C   UNL     1       4.816   5.676  18.458  0.00  0.00    +0.000 C 
ATOM     31  O   UNL     1       5.358   5.590  19.564  0.00  0.00    +0.000 OA
ATOM     32  N   UNL     1       5.599   5.936  17.339  0.00  0.00    +0.000 N 
ATOM     33  C   UNL     1       5.139   6.169  15.967  0.00  0.00    +0.000 C 
ATOM     34  C   UNL     1       5.891   5.246  15.000  0.00  0.00    +0.000 C 
ATOM     35  O   UNL     1       7.309   5.438  15.112  0.00  0.00    +0.000 OA
ATOM     36  C   UNL     1       7.764   5.148  16.444  0.00  0.00    +0.000 C 
ATOM     37  C   UNL     1       7.061   6.040  17.476  0.00  0.00    +0.000 C 
ENDBRANCH  26  30
ENDBRANCH  21  25
ENDBRANCH   1  21
TORSDOF 5
ENDMDL
MODEL 4
REMARK VINA RESULT:      -6.9      3.442      6.633
REMARK  Name = 
REMARK  7 active torsions:
REMARK  status: ('A' for Active; 'I' for Inactive)
REMARK    1  A    between atoms: C_1  and  C_2
REMARK    2  A    between atoms: N_4  and  C_5
REMARK    3  A    between atoms: C_5  and  C_6
REMARK    4  A    between atoms: C_10  and  C_11
REMARK    5  A    between atoms: C_10  and  C_12
REMARK    6  A    between atoms: C_21  and  C_22
REMARK    7  A    between atoms: C_26  and  C_27
REMARK                            x       y       z     vdW  Elec       q    Type
REMARK                         _______ _______ _______ _____ _____    ______ ____
ROOT
ATOM      1  C   UNL     1      -0.096  13.300  19.106  0.00  0.00    +0.000 C 
ATOM      2  O   UNL     1       0.602  12.537  18.435  0.00  0.00    +0.000 OA
ATOM      3  N   UNL     1      -0.653  12.949  20.333  0.00  0.00    +0.000 N 
ATOM      4  C   UNL     1      -1.595  13.788  21.094  0.00  0.00    +0.000 C 
ATOM      5  C   UNL     1      -1.854  13.108  22.467  0.00  0.00    +0.000 C 
ATOM      6  C   UNL     1      -1.063  13.900  23.530  0.00  0.00    +0.000 C 
ATOM      7  C   UNL     1      -1.164  11.770  22.247  0.00  0.00    +0.000 A 
ATOM      8  C   UNL     1      -1.121  10.693  23.127  0.00  0.00    +0.000 A 
ATOM      9  C   UNL     1      -0.394   9.558  22.759  0.00  0.00    +0.000 A 
ATOM     10  C   UNL     1       0.283   9.508  21.527  0.00  0.00    +0.000 A 
ATOM     11  C   UNL     1       0.247  10.608  20.655  0.00  0.00    +0.000 A 
ATOM     12  C   UNL     1      -0.481  11.731  21.025  0.00  0.00    +0.000 A 
ENDROOT
BRANCH   5  13
ATOM     13  C   UNL     1      -3.359  12.999  22.744  0.00  0.00    +0.000 A 
ATOM     14  C   UNL     1      -3.845  12.918  24.065  0.00  0.00    +0.000 A 
ATOM     15  C   UNL     1      -5.212  12.781  24.329  0.00  0.00    +0.000 A 
ATOM     16  C   UNL     1      -6.124  12.726  23.281  0.00  0.00    +0.000 A 
ATOM     17  C   UNL     1      -5.671  12.809  21.970  0.00  0.00    +0.000 A 
ATOM     18  C   UNL     1      -4.305  12.944  21.705  0.00  0.00    +0.000 A 
ENDBRANCH   5  13
BRANCH  10  19
ATOM     19  C   UNL     1       1.011   8.323  21.174  0.00  0.00    +0.000 C 
ATOM     20  N   UNL     1       1.590   7.360  20.885  0.00  0.00    +0.000 NA
ENDBRANCH  10  19
BRANCH   1  21
ATOM     21  C   UNL     1      -0.458  14.734  18.624  0.00  0.00    +0.000 C 
BRANCH  21  25
ATOM     22  C   UNL     1       3.541  16.037  17.541  0.00  0.00    +0.000 C 
ATOM     23  C   UNL     1       3.104  16.076  19.010  0.00  0.00    +0.000 C 
ATOM     24  C   UNL     1       1.908  15.114  19.239  0.00  0.00    +0.000 C 
ATOM     25  N   UNL     1       0.675  15.660  18.650  0.00  0.00    +0.000 NA
ATOM     26  C   UNL     1       0.339  16.999  19.217  0.00  0.00    +0.000 C 
ATOM     27  C   UNL     1       1.537  17.954  18.977  0.00  0.00    +0.000 C 
ATOM     28  N   UNL     1       2.845  17.466  19.464  0.00  0.00    +0.000 NA
ATOM     29  H   UNL     1       2.802  17.438  20.484  0.00  0.00    +0.000 HD
BRANCH  26  30
ATOM     30  C   UNL     1      -0.062  17.001  20.731  0.00  0.00    +0.000 C 
ATOM     31  O   UNL     1       0.773  16.848  21.628  0.00  0.00    +0.000 OA
ATOM     32  N   UNL     1      -1.392  17.218  21.074  0.00  0.00    +0.000 N 
ATOM     33  C   UNL     1      -2.538  17.325  20.166  0.00  0.00    +0.000 C 
ATOM     34  C   UNL     1      -3.326  18.605  20.470  0.00  0.00    +0.000 C 
ATOM     35  O   UNL     1      -3.747  18.630  21.843  0.00  0.00    +0.000 OA
ATOM     36  C   UNL     1      -2.616  18.588  22.728  0.00  0.00    +0.000 C 
ATOM     37  C   UNL     1      -1.774  17.326  22.491  0.00  0.00    +0.000 C 
ENDBRANCH  26  30
ENDBRANCH  21  25
ENDBRANCH   1  21
TORSDOF 5
ENDMDL
MODEL 5
REMARK VINA RESULT:      -6.9      2.479      5.709
REMARK  Name = 
REMARK  7 active torsions:
REMARK  status: ('A' for Active; 'I' for Inactive)
REMARK    1  A    between atoms: C_1  and  C_2
REMARK    2  A    between atoms: N_4  and  C_5
REMARK    3  A    between atoms: C_5  and  C_6
REMARK    4  A    between atoms: C_10  and  C_11
REMARK    5  A    between atoms: C_10  and  C_12
REMARK    6  A    between atoms: C_21  and  C_22
REMARK    7  A    between atoms: C_26  and  C_27
REMARK                            x       y       z     vdW  Elec       q    Type
REMARK                         _______ _______ _______ _____ _____    ______ ____
ROOT
ATOM      1  C   UNL     1       0.070  14.133  22.324  0.00  0.00    +0.000 C 
ATOM      2  O   UNL     1       0.831  15.096  22.432  0.00  0.00    +0.000 OA
ATOM      3  N   UNL     1       0.141  13.213  21.282  0.00  0.00    +0.000 N 
ATOM      4  C   UNL     1      -0.833  12.131  21.054  0.00  0.00    +0.000 C 
ATOM      5  C   UNL     1      -0.313  11.244  19.890  0.00  0.00    +0.000 C 
ATOM      6  C   UNL     1       0.239   9.943  20.513  0.00  0.00    +0.000 C 
ATOM      7  C   UNL     1       0.860  12.083  19.405  0.00  0.00    +0.000 A 
ATOM      8  C   UNL     1       1.686  11.822  18.317  0.00  0.00    +0.000 A 
ATOM      9  C   UNL     1       2.745  12.696  18.057  0.00  0.00    +0.000 A 
ATOM     10  C   UNL     1       2.973  13.813  18.881  0.00  0.00    +0.000 A 
ATOM     11  C   UNL     1       2.142  14.056  19.988  0.00  0.00    +0.000 A 
ATOM     12  C   UNL     1       1.090  13.186  20.238  0.00  0.00    +0.000 A 
ENDROOT
BRANCH   5  13
ATOM     13  C   UNL     1      -1.407  11.030  18.837  0.00  0.00    +0.000 A 
ATOM     14  C   UNL     1      -2.606  11.772  18.882  0.00  0.00    +0.000 A 
ATOM     15  C   UNL     1      -3.627  11.560  17.949  0.00  0.00    +0.000 A 
ATOM     16  C   UNL     1      -3.472  10.606  16.948  0.00  0.00    +0.000 A 
ATOM     17  C   UNL     1      -2.298   9.866  16.879  0.00  0.00    +0.000 A 
ATOM     18  C   UNL     1      -1.279  10.076  17.812  0.00  0.00    +0.000 A 
ENDBRANCH   5  13
BRANCH  10  19
ATOM     19  C   UNL     1       4.062  14.697  18.580  0.00  0.00    +0.000 C 
ATOM     20  N   UNL     1       4.944  15.406  18.327  0.00  0.00    +0.000 NA
ENDBRANCH  10  19
BRANCH   1  21
ATOM     21  C   UNL     1      -1.082  13.870  23.335  0.00  0.00    +0.000 C 
BRANCH  21  25
ATOM     22  C   UNL     1      -1.219  17.934  24.858  0.00  0.00    +0.000 C 
ATOM     23  C   UNL     1      -2.117  16.862  25.483  0.00  0.00    +0.000 C 
ATOM     24  C   UNL     1      -1.553  15.447  25.180  0.00  0.00    +0.000 C 
ATOM     25  N   UNL     1      -1.766  15.088  23.769  0.00  0.00    +0.000 NA
ATOM     26  C   UNL     1      -3.212  15.125  23.404  0.00  0.00    +0.000 C 
ATOM     27  C   UNL     1      -3.764  16.543  23.703  0.00  0.00    +0.000 C 
ATOM     28  N   UNL     1      -3.535  17.036  25.079  0.00  0.00    +0.000 NA
ATOM     29  H   UNL     1      -4.094  16.458  25.709  0.00  0.00    +0.000 HD
BRANCH  26  30
ATOM     30  C   UNL     1      -4.103  14.038  24.095  0.00  0.00    +0.000 C 
ATOM     31  O   UNL     1      -3.873  13.637  25.241  0.00  0.00    +0.000 OA
ATOM     32  N   UNL     1      -5.207  13.539  23.413  0.00  0.00    +0.000 N 
ATOM     33  C   UNL     1      -5.593  13.813  22.026  0.00  0.00    +0.000 C 
ATOM     34  C   UNL     1      -7.058  14.262  21.970  0.00  0.00    +0.000 C 
ATOM     35  O   UNL     1      -7.916  13.275  22.562  0.00  0.00    +0.000 OA
ATOM     36  C   UNL     1      -7.573  13.055  23.940  0.00  0.00    +0.000 C 
ATOM     37  C   UNL     1      -6.116  12.594  24.082  0.00  0.00    +0.000 C 
ENDBRANCH  26  30
ENDBRANCH  21  25
ENDBRANCH   1  21
TORSDOF 5
ENDMDL
MODEL 6
REMARK VINA RESULT:      -6.8      6.203     11.054
REMARK  Name = 
REMARK  7 active torsions:
REMARK  status: ('A' for Active; 'I' for Inactive)
REMARK    1  A    between atoms: C_1  and  C_2
REMARK    2  A    between atoms: N_4  and  C_5
REMARK    3  A    between atoms: C_5  and  C_6
REMARK    4  A    between atoms: C_10  and  C_11
REMARK    5  A    between atoms: C_10  and  C_12
REMARK    6  A    between atoms: C_21  and  C_22
REMARK    7  A    between atoms: C_26  and  C_27
REMARK                            x       y       z     vdW  Elec       q    Type
REMARK                         _______ _______ _______ _____ _____    ______ ____
ROOT
ATOM      1  C   UNL     1       2.398   7.882  19.172  0.00  0.00    +0.000 C 
ATOM      2  O   UNL     1       2.769   7.260  20.169  0.00  0.00    +0.000 OA
ATOM      3  N   UNL     1       1.457   8.908  19.215  0.00  0.00    +0.000 N 
ATOM      4  C   UNL     1       0.898   9.580  18.029  0.00  0.00    +0.000 C 
ATOM      5  C   UNL     1       0.007  10.757  18.511  0.00  0.00    +0.000 C 
ATOM      6  C   UNL     1       0.795  12.062  18.264  0.00  0.00    +0.000 C 
ATOM      7  C   UNL     1      -0.024  10.486  20.007  0.00  0.00    +0.000 A 
ATOM      8  C   UNL     1      -0.737  11.190  20.973  0.00  0.00    +0.000 A 
ATOM      9  C   UNL     1      -0.601  10.812  22.312  0.00  0.00    +0.000 A 
ATOM     10  C   UNL     1       0.244   9.747  22.674  0.00  0.00    +0.000 A 
ATOM     11  C   UNL     1       0.972   9.056  21.692  0.00  0.00    +0.000 A 
ATOM     12  C   UNL     1       0.829   9.434  20.364  0.00  0.00    +0.000 A 
ENDROOT
BRANCH   5  13
ATOM     13  C   UNL     1      -1.370  10.709  17.837  0.00  0.00    +0.000 A 
ATOM     14  C   UNL     1      -1.660   9.737  16.857  0.00  0.00    +0.000 A 
ATOM     15  C   UNL     1      -2.899   9.706  16.209  0.00  0.00    +0.000 A 
ATOM     16  C   UNL     1      -3.878  10.641  16.527  0.00  0.00    +0.000 A 
ATOM     17  C   UNL     1      -3.619  11.606  17.494  0.00  0.00    +0.000 A 
ATOM     18  C   UNL     1      -2.380  11.638  18.140  0.00  0.00    +0.000 A 
ENDBRANCH   5  13
BRANCH  10  19
ATOM     19  C   UNL     1       0.353   9.377  24.056  0.00  0.00    +0.000 C 
ATOM     20  N   UNL     1       0.454   9.079  25.172  0.00  0.00    +0.000 NA
ENDBRANCH  10  19
BRANCH   1  21
ATOM     21  C   UNL     1       2.923   7.553  17.746  0.00  0.00    +0.000 C 
BRANCH  21  25
ATOM     22  C   UNL     1       7.205   7.384  17.040  0.00  0.00    +0.000 C 
ATOM     23  C   UNL     1       6.309   6.248  16.534  0.00  0.00    +0.000 C 
ATOM     24  C   UNL     1       4.841   6.736  16.414  0.00  0.00    +0.000 C 
ATOM     25  N   UNL     1       4.230   6.895  17.743  0.00  0.00    +0.000 NA
ATOM     26  C   UNL     1       4.258   5.619  18.518  0.00  0.00    +0.000 C 
ATOM     27  C   UNL     1       5.729   5.144  18.639  0.00  0.00    +0.000 C 
ATOM     28  N   UNL     1       6.464   5.024  17.360  0.00  0.00    +0.000 NA
ATOM     29  H   UNL     1       6.040   4.259  16.833  0.00  0.00    +0.000 HD
BRANCH  26  30
ATOM     30  C   UNL     1       3.361   4.470  17.945  0.00  0.00    +0.000 C 
ATOM     31  O   UNL     1       3.573   3.968  16.837  0.00  0.00    +0.000 OA
ATOM     32  N   UNL     1       2.320   3.978  18.723  0.00  0.00    +0.000 N 
ATOM     33  C   UNL     1       1.850   4.497  20.010  0.00  0.00    +0.000 C 
ATOM     34  C   UNL     1       1.781   3.360  21.037  0.00  0.00    +0.000 C 
ATOM     35  O   UNL     1       0.936   2.299  20.567  0.00  0.00    +0.000 OA
ATOM     36  C   UNL     1       1.436   1.752  19.335  0.00  0.00    +0.000 C 
ATOM     37  C   UNL     1       1.529   2.831  18.247  0.00  0.00    +0.000 C 
ENDBRANCH  26  30
ENDBRANCH  21  25
ENDBRANCH   1  21
TORSDOF 5
ENDMDL
MODEL 7
REMARK VINA RESULT:      -6.8      8.001     11.327
REMARK  Name = 
REMARK  7 active torsions:
REMARK  status: ('A' for Active; 'I' for Inactive)
REMARK    1  A    between atoms: C_1  and  C_2
REMARK    2  A    between atoms: N_4  and  C_5
REMARK    3  A    between atoms: C_5  and  C_6
REMARK    4  A    between atoms: C_10  and  C_11
REMARK    5  A    between atoms: C_10  and  C_12
REMARK    6  A    between atoms: C_21  and  C_22
REMARK    7  A    between atoms: C_26  and  C_27
REMARK                            x       y       z     vdW  Elec       q    Type
REMARK                         _______ _______ _______ _____ _____    ______ ____
ROOT
ATOM      1  C   UNL     1       5.315  14.539  18.062  0.00  0.00    +0.000 C 
ATOM      2  O   UNL     1       5.734  13.431  17.723  0.00  0.00    +0.000 OA
ATOM      3  N   UNL     1       3.986  14.785  18.398  0.00  0.00    +0.000 N 
ATOM      4  C   UNL     1       3.429  16.120  18.680  0.00  0.00    +0.000 C 
ATOM      5  C   UNL     1       1.962  15.944  19.159  0.00  0.00    +0.000 C 
ATOM      6  C   UNL     1       1.948  16.162  20.688  0.00  0.00    +0.000 C 
ATOM      7  C   UNL     1       1.755  14.463  18.879  0.00  0.00    +0.000 A 
ATOM      8  C   UNL     1       0.584  13.732  19.049  0.00  0.00    +0.000 A 
ATOM      9  C   UNL     1       0.605  12.362  18.776  0.00  0.00    +0.000 A 
ATOM     10  C   UNL     1       1.787  11.735  18.345  0.00  0.00    +0.000 A 
ATOM     11  C   UNL     1       2.969  12.480  18.194  0.00  0.00    +0.000 A 
ATOM     12  C   UNL     1       2.939  13.842  18.463  0.00  0.00    +0.000 A 
ENDROOT
BRANCH   5  13
ATOM     13  C   UNL     1       1.019  16.867  18.377  0.00  0.00    +0.000 A 
ATOM     14  C   UNL     1       1.480  17.584  17.254  0.00  0.00    +0.000 A 
ATOM     15  C   UNL     1       0.640  18.457  16.554  0.00  0.00    +0.000 A 
ATOM     16  C   UNL     1      -0.680  18.630  16.958  0.00  0.00    +0.000 A 
ATOM     17  C   UNL     1      -1.160  17.931  18.059  0.00  0.00    +0.000 A 
ATOM     18  C   UNL     1      -0.320  17.060  18.759  0.00  0.00    +0.000 A 
ENDBRANCH   5  13
BRANCH  10  19
ATOM     19  C   UNL     1       1.774  10.328  18.062  0.00  0.00    +0.000 C 
ATOM     20  N   UNL     1       1.774   9.190  17.838  0.00  0.00    +0.000 NA
ENDBRANCH  10  19
BRANCH   1  21
ATOM     21  C   UNL     1       6.232  15.793  18.112  0.00  0.00    +0.000 C 
BRANCH  21  25
ATOM     22  C   UNL     1       6.258  17.502  22.105  0.00  0.00    +0.000 C 
ATOM     23  C   UNL     1       7.500  17.637  21.216  0.00  0.00    +0.000 C 
ATOM     24  C   UNL     1       7.114  17.449  19.724  0.00  0.00    +0.000 C 
ATOM     25  N   UNL     1       6.812  16.039  19.433  0.00  0.00    +0.000 NA
ATOM     26  C   UNL     1       7.968  15.151  19.753  0.00  0.00    +0.000 C 
ATOM     27  C   UNL     1       8.341  15.340  21.246  0.00  0.00    +0.000 C 
ATOM     28  N   UNL     1       8.592  16.736  21.666  0.00  0.00    +0.000 NA
ATOM     29  H   UNL     1       9.443  17.050  21.197  0.00  0.00    +0.000 HD
BRANCH  26  30
ATOM     30  C   UNL     1       9.231  15.348  18.848  0.00  0.00    +0.000 C 
ATOM     31  O   UNL     1       9.830  16.427  18.790  0.00  0.00    +0.000 OA
ATOM     32  N   UNL     1       9.713  14.267  18.119  0.00  0.00    +0.000 N 
ATOM     33  C   UNL     1       9.097  12.944  17.980  0.00  0.00    +0.000 C 
ATOM     34  C   UNL     1      10.122  11.853  18.312  0.00  0.00    +0.000 C 
ATOM     35  O   UNL     1      11.284  11.975  17.478  0.00  0.00    +0.000 OA
ATOM     36  C   UNL     1      11.919  13.251  17.664  0.00  0.00    +0.000 C 
ATOM     37  C   UNL     1      10.956  14.402  17.343  0.00  0.00    +0.000 C 
ENDBRANCH  26  30
ENDBRANCH  21  25
ENDBRANCH   1  21
TORSDOF 5
ENDMDL
MODEL 8
REMARK VINA RESULT:      -6.8      2.443      5.633
REMARK  Name = 
REMARK  7 active torsions:
REMARK  status: ('A' for Active; 'I' for Inactive)
REMARK    1  A    between atoms: C_1  and  C_2
REMARK    2  A    between atoms: N_4  and  C_5
REMARK    3  A    between atoms: C_5  and  C_6
REMARK    4  A    between atoms: C_10  and  C_11
REMARK    5  A    between atoms: C_10  and  C_12
REMARK    6  A    between atoms: C_21  and  C_22
REMARK    7  A    between atoms: C_26  and  C_27
REMARK                            x       y       z     vdW  Elec       q    Type
REMARK                         _______ _______ _______ _____ _____    ______ ____
ROOT
ATOM      1  C   UNL     1      -1.328  15.545  20.491  0.00  0.00    +0.000 C 
ATOM      2  O   UNL     1      -0.533  16.486  20.469  0.00  0.00    +0.000 OA
ATOM      3  N   UNL     1      -1.027  14.277  20.002  0.00  0.00    +0.000 N 
ATOM      4  C   UNL     1      -1.995  13.171  19.894  0.00  0.00    +0.000 C 
ATOM      5  C   UNL     1      -1.230  11.895  19.448  0.00  0.00    +0.000 C 
ATOM      6  C   UNL     1      -1.085  10.987  20.689  0.00  0.00    +0.000 C 
ATOM      7  C   UNL     1       0.132  12.489  19.121  0.00  0.00    +0.000 A 
ATOM      8  C   UNL     1       1.236  11.822  18.599  0.00  0.00    +0.000 A 
ATOM      9  C   UNL     1       2.420  12.538  18.407  0.00  0.00    +0.000 A 
ATOM     10  C   UNL     1       2.496  13.902  18.740  0.00  0.00    +0.000 A 
ATOM     11  C   UNL     1       1.380  14.561  19.283  0.00  0.00    +0.000 A 
ATOM     12  C   UNL     1       0.206  13.844  19.467  0.00  0.00    +0.000 A 
ENDROOT
BRANCH   5  13
ATOM     13  C   UNL     1      -1.927  11.231  18.254  0.00  0.00    +0.000 A 
ATOM     14  C   UNL     1      -3.192  11.677  17.818  0.00  0.00    +0.000 A 
ATOM     15  C   UNL     1      -3.853  11.056  16.753  0.00  0.00    +0.000 A 
ATOM     16  C   UNL     1      -3.266   9.979  16.097  0.00  0.00    +0.000 A 
ATOM     17  C   UNL     1      -2.017   9.525  16.504  0.00  0.00    +0.000 A 
ATOM     18  C   UNL     1      -1.356  10.144  17.569  0.00  0.00    +0.000 A 
ENDBRANCH   5  13
BRANCH  10  19
ATOM     19  C   UNL     1       3.724  14.611  18.521  0.00  0.00    +0.000 C 
ATOM     20  N   UNL     1       4.716  15.189  18.355  0.00  0.00    +0.000 NA
ENDBRANCH  10  19
BRANCH   1  21
ATOM     21  C   UNL     1      -2.775  15.694  21.040  0.00  0.00    +0.000 C 
BRANCH  21  25
ATOM     22  C   UNL     1      -1.365  16.234  25.112  0.00  0.00    +0.000 C 
ATOM     23  C   UNL     1      -1.833  14.849  24.651  0.00  0.00    +0.000 C 
ATOM     24  C   UNL     1      -1.782  14.755  23.102  0.00  0.00    +0.000 C 
ATOM     25  N   UNL     1      -2.865  15.544  22.493  0.00  0.00    +0.000 NA
ATOM     26  C   UNL     1      -4.207  15.095  22.966  0.00  0.00    +0.000 C 
ATOM     27  C   UNL     1      -4.250  15.199  24.512  0.00  0.00    +0.000 C 
ATOM     28  N   UNL     1      -3.157  14.502  25.225  0.00  0.00    +0.000 NA
ATOM     29  H   UNL     1      -3.286  13.499  25.080  0.00  0.00    +0.000 HD
BRANCH  26  30
ATOM     30  C   UNL     1      -4.630  13.658  22.506  0.00  0.00    +0.000 C 
ATOM     31  O   UNL     1      -4.254  12.645  23.104  0.00  0.00    +0.000 OA
ATOM     32  N   UNL     1      -5.482  13.524  21.417  0.00  0.00    +0.000 N 
ATOM     33  C   UNL     1      -5.958  14.585  20.525  0.00  0.00    +0.000 C 
ATOM     34  C   UNL     1      -7.487  14.527  20.414  0.00  0.00    +0.000 C 
ATOM     35  O   UNL     1      -7.916  13.235  19.959  0.00  0.00    +0.000 OA
ATOM     36  C   UNL     1      -7.500  12.205  20.870  0.00  0.00    +0.000 C 
ATOM     37  C   UNL     1      -5.973  12.191  21.030  0.00  0.00    +0.000 C 
ENDBRANCH  26  30
ENDBRANCH  21  25
ENDBRANCH   1  21
TORSDOF 5
ENDMDL
MODEL 9
REMARK VINA RESULT:      -6.7      3.248      5.352
REMARK  Name = 
REMARK  7 active torsions:
REMARK  status: ('A' for Active; 'I' for Inactive)
REMARK    1  A    between atoms: C_1  and  C_2
REMARK    2  A    between atoms: N_4  and  C_5
REMARK    3  A    between atoms: C_5  and  C_6
REMARK    4  A    between atoms: C_10  and  C_11
REMARK    5  A    between atoms: C_10  and  C_12
REMARK    6  A    between atoms: C_21  and  C_22
REMARK    7  A    between atoms: C_26  and  C_27
REMARK                            x       y       z     vdW  Elec       q    Type
REMARK                         _______ _______ _______ _____ _____    ______ ____
ROOT
ATOM      1  C   UNL     1      -0.795  13.256  21.023  0.00  0.00    +0.000 C 
ATOM      2  O   UNL     1      -1.927  13.736  21.096  0.00  0.00    +0.000 OA
ATOM      3  N   UNL     1      -0.452  12.234  20.141  0.00  0.00    +0.000 N 
ATOM      4  C   UNL     1       0.854  11.550  20.121  0.00  0.00    +0.000 C 
ATOM      5  C   UNL     1       0.882  10.591  18.900  0.00  0.00    +0.000 C 
ATOM      6  C   UNL     1       1.767  11.247  17.819  0.00  0.00    +0.000 C 
ATOM      7  C   UNL     1      -0.569  10.671  18.452  0.00  0.00    +0.000 A 
ATOM      8  C   UNL     1      -1.169   9.957  17.419  0.00  0.00    +0.000 A 
ATOM      9  C   UNL     1      -2.514  10.203  17.129  0.00  0.00    +0.000 A 
ATOM     10  C   UNL     1      -3.243  11.156  17.863  0.00  0.00    +0.000 A 
ATOM     11  C   UNL     1      -2.622  11.883  18.892  0.00  0.00    +0.000 A 
ATOM     12  C   UNL     1      -1.286  11.630  19.177  0.00  0.00    +0.000 A 
ENDROOT
BRANCH   5  13
ATOM     13  C   UNL     1       1.331   9.186  19.323  0.00  0.00    +0.000 A 
ATOM     14  C   UNL     1       1.048   8.696  20.614  0.00  0.00    +0.000 A 
ATOM     15  C   UNL     1       1.484   7.431  21.023  0.00  0.00    +0.000 A 
ATOM     16  C   UNL     1       2.208   6.626  20.151  0.00  0.00    +0.000 A 
ATOM     17  C   UNL     1       2.495   7.084  18.870  0.00  0.00    +0.000 A 
ATOM     18  C   UNL     1       2.061   8.348  18.462  0.00  0.00    +0.000 A 
ENDBRANCH   5  13
BRANCH  10  19
ATOM     19  C   UNL     1      -4.625  11.378  17.549  0.00  0.00    +0.000 C 
ATOM     20  N   UNL     1      -5.741  11.569  17.295  0.00  0.00    +0.000 NA
ENDBRANCH  10  19
BRANCH   1  21
ATOM     21  C   UNL     1       0.366  13.723  21.946  0.00  0.00    +0.000 C 
BRANCH  21  25
ATOM     22  C   UNL     1       3.196  15.711  19.320  0.00  0.00    +0.000 C 
ATOM     23  C   UNL     1       3.237  15.991  20.827  0.00  0.00    +0.000 C 
ATOM     24  C   UNL     1       2.547  14.838  21.604  0.00  0.00    +0.000 C 
ATOM     25  N   UNL     1       1.087  14.888  21.431  0.00  0.00    +0.000 NA
ATOM     26  C   UNL     1       0.522  16.191  21.889  0.00  0.00    +0.000 C 
ATOM     27  C   UNL     1       1.211  17.335  21.102  0.00  0.00    +0.000 C 
ATOM     28  N   UNL     1       2.690  17.334  21.146  0.00  0.00    +0.000 NA
ATOM     29  H   UNL     1       2.969  17.544  22.106  0.00  0.00    +0.000 HD
BRANCH  26  30
ATOM     30  C   UNL     1       0.620  16.456  23.430  0.00  0.00    +0.000 C 
ATOM     31  O   UNL     1       1.695  16.711  23.981  0.00  0.00    +0.000 OA
ATOM     32  N   UNL     1      -0.544  16.441  24.190  0.00  0.00    +0.000 N 
ATOM     33  C   UNL     1      -1.891  16.070  23.746  0.00  0.00    +0.000 C 
ATOM     34  C   UNL     1      -2.887  17.172  24.126  0.00  0.00    +0.000 C 
ATOM     35  O   UNL     1      -2.857  17.421  25.539  0.00  0.00    +0.000 OA
ATOM     36  C   UNL     1      -1.549  17.845  25.958  0.00  0.00    +0.000 C 
ATOM     37  C   UNL     1      -0.490  16.787  25.620  0.00  0.00    +0.000 C 
ENDBRANCH  26  30
ENDBRANCH  21  25
ENDBRANCH   1  21
TORSDOF 5
ENDMDL
