MODEL 1
REMARK VINA RESULT:      -6.7      0.000      0.000
REMARK  Name = 
REMARK  10 active torsions:
REMARK  status: ('A' for Active; 'I' for Inactive)
REMARK    1  A    between atoms: C_1  and  O_2
REMARK    2  A    between atoms: O_2  and  C_3
REMARK    3  A    between atoms: C_6  and  O_7
REMARK    4  A    between atoms: O_7  and  C_8
REMARK    5  A    between atoms: C_9  and  N_10
REMARK    6  A    between atoms: C_11  and  C_13
REMARK    7  A    between atoms: N_16  and  S_17
REMARK    8  A    between atoms: S_17  and  C_20
REMARK    9  A    between atoms: C_21  and  C_22
REMARK   10  A    between atoms: C_25  and  C_26
REMARK                            x       y       z     vdW  Elec       q    Type
REMARK                         _______ _______ _______ _____ _____    ______ ____
ROOT
ATOM      1  C   UNL     1       1.524   9.579  19.425  0.00  0.00    +0.000 C 
ATOM      2  C   UNL     1       2.089   8.903  18.173  0.00  0.00    +0.000 C 
ATOM      3  C   UNL     1       1.659   7.437  18.078  0.00  0.00    +0.000 C 
ATOM      4  N   UNL     1       2.127   6.677  19.273  0.00  0.00    +0.000 NA
ATOM      5  C   UNL     1       1.624   7.269  20.555  0.00  0.00    +0.000 C 
ATOM      6  C   UNL     1       1.932   8.763  20.659  0.00  0.00    +0.000 C 
ENDROOT
BRANCH   1   8
ATOM      7  N   UNL     1      -0.406  10.319  18.118  0.00  0.00    +0.000 N 
ATOM      8  C   UNL     1      -0.002   9.741  19.315  0.00  0.00    +0.000 C 
ATOM      9  O   UNL     1      -0.720   9.281  20.194  0.00  0.00    +0.000 OA
ATOM     10  H   UNL     1       0.319  10.448  17.426  0.00  0.00    +0.000 HD
BRANCH   7  15
ATOM     11  C   UNL     1      -3.398  10.352  15.920  0.00  0.00    +0.000 A 
ATOM     12  C   UNL     1      -4.273  11.184  16.604  0.00  0.00    +0.000 A 
ATOM     13  C   UNL     1      -3.887  11.781  17.801  0.00  0.00    +0.000 A 
ATOM     14  C   UNL     1      -2.605  11.571  18.333  0.00  0.00    +0.000 A 
ATOM     15  C   UNL     1      -1.724  10.676  17.687  0.00  0.00    +0.000 A 
ATOM     16  C   UNL     1      -2.134  10.093  16.466  0.00  0.00    +0.000 A 
BRANCH  11  18
ATOM     17  C   UNL     1      -3.027   9.829  13.623  0.00  0.00    +0.000 C 
ATOM     18  O   UNL     1      -3.898   9.875  14.741  0.00  0.00    +0.000 OA
ENDBRANCH  11  18
BRANCH  14  19
ATOM     19  O   UNL     1      -2.180  12.239  19.441  0.00  0.00    +0.000 OA
ATOM     20  C   UNL     1      -3.133  12.564  20.441  0.00  0.00    +0.000 C 
ENDBRANCH  14  19
ENDBRANCH   7  15
ENDBRANCH   1   8
BRANCH   4  21
ATOM     21  S   UNL     1       1.729   4.994  19.193  0.00  0.00    +0.000 S 
ATOM     22  O   UNL     1       0.861   4.680  20.308  0.00  0.00    +0.000 OA
ATOM     23  O   UNL     1       1.351   4.680  17.833  0.00  0.00    +0.000 OA
BRANCH  21  24
ATOM     24  C   UNL     1       3.124   4.058  19.493  0.00  0.00    +0.000 A 
ATOM     25  C   UNL     1       4.350   4.122  18.795  0.00  0.00    +0.000 A 
ATOM     26  C   UNL     1       4.743   4.936  17.623  0.00  0.00    +0.000 C 
ATOM     27  N   UNL     1       5.245   3.278  19.327  0.00  0.00    +0.000 NA
ATOM     28  O   UNL     1       4.602   2.652  20.377  0.00  0.00    +0.000 OA
ATOM     29  C   UNL     1       3.323   3.106  20.466  0.00  0.00    +0.000 A 
ATOM     30  C   UNL     1       2.502   2.500  21.532  0.00  0.00    +0.000 C 
ENDBRANCH  21  24
ENDBRANCH   4  21
TORSDOF 6
ENDMDL
MODEL 2
REMARK VINA RESULT:      -6.6      1.382      3.073
REMARK  Name = 
REMARK  10 active torsions:
REMARK  status: ('A' for Active; 'I' for Inactive)
REMARK    1  A    between atoms: C_1  and  O_2
REMARK    2  A    between atoms: O_2  and  C_3
REMARK    3  A    between atoms: C_6  and  O_7
REMARK    4  A    between atoms: O_7  and  C_8
REMARK    5  A    between atoms: C_9  and  N_10
REMARK    6  A    between atoms: C_11  and  C_13
REMARK    7  A    between atoms: N_16  and  S_17
REMARK    8  A    between atoms: S_17  and  C_20
REMARK    9  A    between atoms: C_21  and  C_22
REMARK   10  A    between atoms: C_25  and  C_26
REMARK                            x       y       z     vdW  Elec       q    Type
REMARK                         _______ _______ _______ _____ _____    ______ ____
ROOT
ATOM      1  C   UNL     1       1.192  10.288  19.238  0.00  0.00    +0.000 C 
ATOM      2  C   UNL     1       1.819   9.723  17.960  0.00  0.00    +0.000 C 
ATOM      3  C   UNL     1       1.649   8.205  17.870  0.00  0.00    +0.000 C 
ATOM      4  N   UNL     1       2.287   7.537  19.041  0.00  0.00    +0.000 NA
ATOM      5  C   UNL     1       1.737   8.030  20.345  0.00  0.00    +0.000 C 
ATOM      6  C   UNL     1       1.782   9.555  20.450  0.00  0.00    +0.000 C 
ENDROOT
BRANCH   1   8
ATOM      7  N   UNL     1      -0.918  11.020  18.240  0.00  0.00    +0.000 N 
ATOM      8  C   UNL     1      -0.342  10.180  19.186  0.00  0.00    +0.000 C 
ATOM      9  O   UNL     1      -0.909   9.336  19.867  0.00  0.00    +0.000 OA
ATOM     10  H   UNL     1      -0.273  11.499  17.627  0.00  0.00    +0.000 HD
BRANCH   7  15
ATOM     11  C   UNL     1      -4.422  12.080  18.856  0.00  0.00    +0.000 A 
ATOM     12  C   UNL     1      -5.048  11.791  17.651  0.00  0.00    +0.000 A 
ATOM     13  C   UNL     1      -4.332  11.209  16.608  0.00  0.00    +0.000 A 
ATOM     14  C   UNL     1      -2.974  10.889  16.754  0.00  0.00    +0.000 A 
ATOM     15  C   UNL     1      -2.303  11.236  17.948  0.00  0.00    +0.000 A 
ATOM     16  C   UNL     1      -3.055  11.813  18.997  0.00  0.00    +0.000 A 
BRANCH  11  18
ATOM     17  C   UNL     1      -6.318  11.792  20.273  0.00  0.00    +0.000 C 
ATOM     18  O   UNL     1      -5.259  12.608  19.798  0.00  0.00    +0.000 OA
ENDBRANCH  11  18
BRANCH  14  19
ATOM     19  O   UNL     1      -2.296  10.217  15.783  0.00  0.00    +0.000 OA
ATOM     20  C   UNL     1      -2.927  10.030  14.525  0.00  0.00    +0.000 C 
ENDBRANCH  14  19
ENDBRANCH   7  15
ENDBRANCH   1   8
BRANCH   4  21
ATOM     21  S   UNL     1       2.188   5.811  18.962  0.00  0.00    +0.000 S 
ATOM     22  O   UNL     1       1.678   5.328  20.228  0.00  0.00    +0.000 OA
ATOM     23  O   UNL     1       1.561   5.447  17.711  0.00  0.00    +0.000 OA
BRANCH  21  24
ATOM     24  C   UNL     1       3.758   5.147  18.881  0.00  0.00    +0.000 A 
ATOM     25  C   UNL     1       4.195   3.938  19.466  0.00  0.00    +0.000 A 
ATOM     26  C   UNL     1       3.471   2.972  20.321  0.00  0.00    +0.000 C 
ATOM     27  N   UNL     1       5.479   3.699  19.161  0.00  0.00    +0.000 NA
ATOM     28  O   UNL     1       5.889   4.760  18.379  0.00  0.00    +0.000 OA
ATOM     29  C   UNL     1       4.862   5.640  18.225  0.00  0.00    +0.000 A 
ATOM     30  C   UNL     1       5.166   6.845  17.430  0.00  0.00    +0.000 C 
ENDBRANCH  21  24
ENDBRANCH   4  21
TORSDOF 6
ENDMDL
MODEL 3
REMARK VINA RESULT:      -6.6      1.384      1.978
REMARK  Name = 
REMARK  10 active torsions:
REMARK  status: ('A' for Active; 'I' for Inactive)
REMARK    1  A    between atoms: C_1  and  O_2
REMARK    2  A    between atoms: O_2  and  C_3
REMARK    3  A    between atoms: C_6  and  O_7
REMARK    4  A    between atoms: O_7  and  C_8
REMARK    5  A    between atoms: C_9  and  N_10
REMARK    6  A    between atoms: C_11  and  C_13
REMARK    7  A    between atoms: N_16  and  S_17
REMARK    8  A    between atoms: S_17  and  C_20
REMARK    9  A    between atoms: C_21  and  C_22
REMARK   10  A    between atoms: C_25  and  C_26
REMARK                            x       y       z     vdW  Elec       q    Type
REMARK                         _______ _______ _______ _____ _____    ______ ____
ROOT
ATOM      1  C   UNL     1       1.414  10.006  19.307  0.00  0.00    +0.000 C 
ATOM      2  C   UNL     1       2.071   9.562  17.998  0.00  0.00    +0.000 C 
ATOM      3  C   UNL     1       1.843   8.073  17.727  0.00  0.00    +0.000 C 
ATOM      4  N   UNL     1       2.403   7.248  18.836  0.00  0.00    +0.000 NA
ATOM      5  C   UNL     1       1.819   7.614  20.166  0.00  0.00    +0.000 C 
ATOM      6  C   UNL     1       1.922   9.114  20.448  0.00  0.00    +0.000 C 
ENDROOT
BRANCH   1   8
ATOM      7  N   UNL     1      -0.592  10.632  18.056  0.00  0.00    +0.000 N 
ATOM      8  C   UNL     1      -0.120   9.975  19.185  0.00  0.00    +0.000 C 
ATOM      9  O   UNL     1      -0.773   9.322  19.989  0.00  0.00    +0.000 OA
ATOM     10  H   UNL     1       0.112  10.938  17.399  0.00  0.00    +0.000 HD
BRANCH   7  15
ATOM     11  C   UNL     1      -3.574  10.451  15.851  0.00  0.00    +0.000 A 
ATOM     12  C   UNL     1      -4.538  11.131  16.582  0.00  0.00    +0.000 A 
ATOM     13  C   UNL     1      -4.221  11.694  17.815  0.00  0.00    +0.000 A 
ATOM     14  C   UNL     1      -2.922  11.603  18.338  0.00  0.00    +0.000 A 
ATOM     15  C   UNL     1      -1.944  10.859  17.642  0.00  0.00    +0.000 A 
ATOM     16  C   UNL     1      -2.287  10.308  16.386  0.00  0.00    +0.000 A 
BRANCH  11  18
ATOM     17  C   UNL     1      -3.077   9.888  13.588  0.00  0.00    +0.000 C 
ATOM     18  O   UNL     1      -4.019   9.992  14.644  0.00  0.00    +0.000 OA
ENDBRANCH  11  18
BRANCH  14  19
ATOM     19  O   UNL     1      -2.574  12.247  19.487  0.00  0.00    +0.000 OA
ATOM     20  C   UNL     1      -3.609  12.739  20.325  0.00  0.00    +0.000 C 
ENDBRANCH  14  19
ENDBRANCH   7  15
ENDBRANCH   1   8
BRANCH   4  21
ATOM     21  S   UNL     1       2.236   5.548  18.554  0.00  0.00    +0.000 S 
ATOM     22  O   UNL     1       2.268   4.872  19.833  0.00  0.00    +0.000 OA
ATOM     23  O   UNL     1       1.149   5.345  17.623  0.00  0.00    +0.000 OA
BRANCH  21  24
ATOM     24  C   UNL     1       3.623   4.959  17.753  0.00  0.00    +0.000 A 
ATOM     25  C   UNL     1       3.890   3.617  17.404  0.00  0.00    +0.000 A 
ATOM     26  C   UNL     1       3.112   2.386  17.667  0.00  0.00    +0.000 C 
ATOM     27  N   UNL     1       5.052   3.520  16.741  0.00  0.00    +0.000 NA
ATOM     28  O   UNL     1       5.553   4.804  16.660  0.00  0.00    +0.000 OA
ATOM     29  C   UNL     1       4.705   5.667  17.283  0.00  0.00    +0.000 A 
ATOM     30  C   UNL     1       5.130   7.080  17.301  0.00  0.00    +0.000 C 
ENDBRANCH  21  24
ENDBRANCH   4  21
TORSDOF 6
ENDMDL
MODEL 4
REMARK VINA RESULT:      -6.6      1.331      2.727
REMARK  Name = 
REMARK  10 active torsions:
REMARK  status: ('A' for Active; 'I' for Inactive)
REMARK    1  A    between atoms: C_1  and  O_2
REMARK    2  A    between atoms: O_2  and  C_3
REMARK    3  A    between atoms: C_6  and  O_7
REMARK    4  A    between atoms: O_7  and  C_8
REMARK    5  A    between atoms: C_9  and  N_10
REMARK    6  A    between atoms: C_11  and  C_13
REMARK    7  A    between atoms: N_16  and  S_17
REMARK    8  A    between atoms: S_17  and  C_20
REMARK    9  A    between atoms: C_21  and  C_22
REMARK   10  A    between atoms: C_25  and  C_26
REMARK                            x       y       z     vdW  Elec       q    Type
REMARK                         _______ _______ _______ _____ _____    ______ ____
ROOT
ATOM      1  C   UNL     1       1.225  10.206  19.392  0.00  0.00    +0.000 C 
ATOM      2  C   UNL     1       1.828   9.680  18.087  0.00  0.00    +0.000 C 
ATOM      3  C   UNL     1       1.646   8.167  17.948  0.00  0.00    +0.000 C 
ATOM      4  N   UNL     1       2.298   7.456  19.086  0.00  0.00    +0.000 NA
ATOM      5  C   UNL     1       1.772   7.908  20.414  0.00  0.00    +0.000 C 
ATOM      6  C   UNL     1       1.830   9.429  20.569  0.00  0.00    +0.000 C 
ENDROOT
BRANCH   1   8
ATOM      7  N   UNL     1      -0.893  10.955  18.425  0.00  0.00    +0.000 N 
ATOM      8  C   UNL     1      -0.310  10.109  19.361  0.00  0.00    +0.000 C 
ATOM      9  O   UNL     1      -0.874   9.268  20.049  0.00  0.00    +0.000 OA
ATOM     10  H   UNL     1      -0.252  11.430  17.804  0.00  0.00    +0.000 HD
BRANCH   7  15
ATOM     11  C   UNL     1      -4.364  12.105  19.063  0.00  0.00    +0.000 A 
ATOM     12  C   UNL     1      -5.020  11.771  17.886  0.00  0.00    +0.000 A 
ATOM     13  C   UNL     1      -4.337  11.129  16.857  0.00  0.00    +0.000 A 
ATOM     14  C   UNL     1      -2.982  10.791  16.990  0.00  0.00    +0.000 A 
ATOM     15  C   UNL     1      -2.280  11.181  18.151  0.00  0.00    +0.000 A 
ATOM     16  C   UNL     1      -2.999  11.820  19.188  0.00  0.00    +0.000 A 
BRANCH  11  18
ATOM     17  C   UNL     1      -6.204  11.902  20.566  0.00  0.00    +0.000 C 
ATOM     18  O   UNL     1      -5.172  12.690  19.997  0.00  0.00    +0.000 OA
ENDBRANCH  11  18
BRANCH  14  19
ATOM     19  O   UNL     1      -2.337  10.063  16.037  0.00  0.00    +0.000 OA
ATOM     20  C   UNL     1      -2.900  10.004  14.735  0.00  0.00    +0.000 C 
ENDBRANCH  14  19
ENDBRANCH   7  15
ENDBRANCH   1   8
BRANCH   4  21
ATOM     21  S   UNL     1       2.185   5.734  18.950  0.00  0.00    +0.000 S 
ATOM     22  O   UNL     1       1.660   5.215  20.195  0.00  0.00    +0.000 OA
ATOM     23  O   UNL     1       1.567   5.416  17.683  0.00  0.00    +0.000 OA
BRANCH  21  24
ATOM     24  C   UNL     1       3.751   5.060  18.862  0.00  0.00    +0.000 A 
ATOM     25  C   UNL     1       4.867   5.603  18.189  0.00  0.00    +0.000 A 
ATOM     26  C   UNL     1       4.984   6.824  17.360  0.00  0.00    +0.000 C 
ATOM     27  N   UNL     1       5.951   4.834  18.366  0.00  0.00    +0.000 NA
ATOM     28  O   UNL     1       5.542   3.776  19.154  0.00  0.00    +0.000 OA
ATOM     29  C   UNL     1       4.217   3.901  19.437  0.00  0.00    +0.000 A 
ATOM     30  C   UNL     1       3.633   2.819  20.253  0.00  0.00    +0.000 C 
ENDBRANCH  21  24
ENDBRANCH   4  21
TORSDOF 6
ENDMDL
MODEL 5
REMARK VINA RESULT:      -6.5      5.858      8.470
REMARK  Name = 
REMARK  10 active torsions:
REMARK  status: ('A' for Active; 'I' for Inactive)
REMARK    1  A    between atoms: C_1  and  O_2
REMARK    2  A    between atoms: O_2  and  C_3
REMARK    3  A    between atoms: C_6  and  O_7
REMARK    4  A    between atoms: O_7  and  C_8
REMARK    5  A    between atoms: C_9  and  N_10
REMARK    6  A    between atoms: C_11  and  C_13
REMARK    7  A    between atoms: N_16  and  S_17
REMARK    8  A    between atoms: S_17  and  C_20
REMARK    9  A    between atoms: C_21  and  C_22
REMARK   10  A    between atoms: C_25  and  C_26
REMARK                            x       y       z     vdW  Elec       q    Type
REMARK                         _______ _______ _______ _____ _____    ______ ____
ROOT
ATOM      1  C   UNL     1       7.205   6.276  17.833  0.00  0.00    +0.000 C 
ATOM      2  C   UNL     1       6.908   5.575  19.162  0.00  0.00    +0.000 C 
ATOM      3  C   UNL     1       5.499   4.977  19.184  0.00  0.00    +0.000 C 
ATOM      4  N   UNL     1       4.476   6.041  18.976  0.00  0.00    +0.000 NA
ATOM      5  C   UNL     1       4.687   6.789  17.695  0.00  0.00    +0.000 C 
ATOM      6  C   UNL     1       6.114   7.323  17.567  0.00  0.00    +0.000 C 
ENDROOT
BRANCH   1   8
ATOM      7  N   UNL     1       6.926   5.762  15.459  0.00  0.00    +0.000 N 
ATOM      8  C   UNL     1       7.317   5.252  16.691  0.00  0.00    +0.000 C 
ATOM      9  O   UNL     1       7.814   4.156  16.913  0.00  0.00    +0.000 OA
ATOM     10  H   UNL     1       6.736   6.755  15.434  0.00  0.00    +0.000 HD
BRANCH   7  15
ATOM     11  C   UNL     1       5.421   3.677  12.781  0.00  0.00    +0.000 A 
ATOM     12  C   UNL     1       6.386   3.712  11.785  0.00  0.00    +0.000 A 
ATOM     13  C   UNL     1       7.578   4.405  11.982  0.00  0.00    +0.000 A 
ATOM     14  C   UNL     1       7.836   5.067  13.192  0.00  0.00    +0.000 A 
ATOM     15  C   UNL     1       6.840   5.099  14.193  0.00  0.00    +0.000 A 
ATOM     16  C   UNL     1       5.644   4.377  13.974  0.00  0.00    +0.000 A 
BRANCH  11  18
ATOM     17  C   UNL     1       3.735   3.123  11.188  0.00  0.00    +0.000 C 
ATOM     18  O   UNL     1       4.326   2.924  12.462  0.00  0.00    +0.000 OA
ENDBRANCH  11  18
BRANCH  14  19
ATOM     19  O   UNL     1       9.043   5.650  13.436  0.00  0.00    +0.000 OA
ATOM     20  C   UNL     1       9.551   6.575  12.487  0.00  0.00    +0.000 C 
ENDBRANCH  14  19
ENDBRANCH   7  15
ENDBRANCH   1   8
BRANCH   4  21
ATOM     21  S   UNL     1       2.856   5.436  19.058  0.00  0.00    +0.000 S 
ATOM     22  O   UNL     1       2.355   5.664  20.397  0.00  0.00    +0.000 OA
ATOM     23  O   UNL     1       2.135   5.905  17.895  0.00  0.00    +0.000 OA
BRANCH  21  24
ATOM     24  C   UNL     1       2.869   3.735  18.917  0.00  0.00    +0.000 A 
ATOM     25  C   UNL     1       3.369   2.982  17.832  0.00  0.00    +0.000 A 
ATOM     26  C   UNL     1       3.946   3.426  16.544  0.00  0.00    +0.000 C 
ATOM     27  N   UNL     1       3.263   1.668  18.077  0.00  0.00    +0.000 NA
ATOM     28  O   UNL     1       2.684   1.558  19.325  0.00  0.00    +0.000 OA
ATOM     29  C   UNL     1       2.430   2.799  19.824  0.00  0.00    +0.000 A 
ATOM     30  C   UNL     1       1.781   2.836  21.148  0.00  0.00    +0.000 C 
ENDBRANCH  21  24
ENDBRANCH   4  21
TORSDOF 6
ENDMDL
MODEL 6
REMARK VINA RESULT:      -6.5      5.289      7.430
REMARK  Name = 
REMARK  10 active torsions:
REMARK  status: ('A' for Active; 'I' for Inactive)
REMARK    1  A    between atoms: C_1  and  O_2
REMARK    2  A    between atoms: O_2  and  C_3
REMARK    3  A    between atoms: C_6  and  O_7
REMARK    4  A    between atoms: O_7  and  C_8
REMARK    5  A    between atoms: C_9  and  N_10
REMARK    6  A    between atoms: C_11  and  C_13
REMARK    7  A    between atoms: N_16  and  S_17
REMARK    8  A    between atoms: S_17  and  C_20
REMARK    9  A    between atoms: C_21  and  C_22
REMARK   10  A    between atoms: C_25  and  C_26
REMARK                            x       y       z     vdW  Elec       q    Type
REMARK                         _______ _______ _______ _____ _____    ______ ____
ROOT
ATOM      1  C   UNL     1      -2.000  10.967  17.305  0.00  0.00    +0.000 C 
ATOM      2  C   UNL     1      -1.027   9.991  17.970  0.00  0.00    +0.000 C 
ATOM      3  C   UNL     1      -0.683  10.421  19.398  0.00  0.00    +0.000 C 
ATOM      4  N   UNL     1      -0.062  11.777  19.401  0.00  0.00    +0.000 NA
ATOM      5  C   UNL     1      -0.945  12.806  18.763  0.00  0.00    +0.000 C 
ATOM      6  C   UNL     1      -1.410  12.383  17.369  0.00  0.00    +0.000 C 
ENDROOT
BRANCH   1   8
ATOM      7  N   UNL     1      -3.898  12.131  18.319  0.00  0.00    +0.000 N 
ATOM      8  C   UNL     1      -3.388  10.887  17.964  0.00  0.00    +0.000 C 
ATOM      9  O   UNL     1      -3.961   9.807  18.030  0.00  0.00    +0.000 OA
ATOM     10  H   UNL     1      -3.368  12.930  17.999  0.00  0.00    +0.000 HD
BRANCH   7  15
ATOM     11  C   UNL     1      -6.256  12.411  21.172  0.00  0.00    +0.000 A 
ATOM     12  C   UNL     1      -7.379  12.979  20.589  0.00  0.00    +0.000 A 
ATOM     13  C   UNL     1      -7.398  13.260  19.225  0.00  0.00    +0.000 A 
ATOM     14  C   UNL     1      -6.295  12.963  18.411  0.00  0.00    +0.000 A 
ATOM     15  C   UNL     1      -5.119  12.446  18.996  0.00  0.00    +0.000 A 
ATOM     16  C   UNL     1      -5.129  12.156  20.380  0.00  0.00    +0.000 A 
BRANCH  11  18
ATOM     17  C   UNL     1      -6.357  13.251  23.402  0.00  0.00    +0.000 C 
ATOM     18  O   UNL     1      -6.399  12.152  22.507  0.00  0.00    +0.000 OA
ENDBRANCH  11  18
BRANCH  14  19
ATOM     19  O   UNL     1      -6.348  13.129  17.060  0.00  0.00    +0.000 OA
ATOM     20  C   UNL     1      -6.871  14.345  16.548  0.00  0.00    +0.000 C 
ENDBRANCH  14  19
ENDBRANCH   7  15
ENDBRANCH   1   8
BRANCH   4  21
ATOM     21  S   UNL     1       0.413  12.292  20.984  0.00  0.00    +0.000 S 
ATOM     22  O   UNL     1       1.437  11.390  21.466  0.00  0.00    +0.000 OA
ATOM     23  O   UNL     1       0.623  13.722  20.954  0.00  0.00    +0.000 OA
BRANCH  21  24
ATOM     24  C   UNL     1      -0.878  12.056  22.077  0.00  0.00    +0.000 A 
ATOM     25  C   UNL     1      -1.960  12.934  22.308  0.00  0.00    +0.000 A 
ATOM     26  C   UNL     1      -2.246  14.270  21.740  0.00  0.00    +0.000 C 
ATOM     27  N   UNL     1      -2.815  12.411  23.198  0.00  0.00    +0.000 NA
ATOM     28  O   UNL     1      -2.288  11.187  23.559  0.00  0.00    +0.000 OA
ATOM     29  C   UNL     1      -1.115  10.980  22.900  0.00  0.00    +0.000 A 
ATOM     30  C   UNL     1      -0.421   9.716  23.211  0.00  0.00    +0.000 C 
ENDBRANCH  21  24
ENDBRANCH   4  21
TORSDOF 6
ENDMDL
MODEL 7
REMARK VINA RESULT:      -6.5      2.831      8.761
REMARK  Name = 
REMARK  10 active torsions:
REMARK  status: ('A' for Active; 'I' for Inactive)
REMARK    1  A    between atoms: C_1  and  O_2
REMARK    2  A    between atoms: O_2  and  C_3
REMARK    3  A    between atoms: C_6  and  O_7
REMARK    4  A    between atoms: O_7  and  C_8
REMARK    5  A    between atoms: C_9  and  N_10
REMARK    6  A    between atoms: C_11  and  C_13
REMARK    7  A    between atoms: N_16  and  S_17
REMARK    8  A    between atoms: S_17  and  C_20
REMARK    9  A    between atoms: C_21  and  C_22
REMARK   10  A    between atoms: C_25  and  C_26
REMARK                            x       y       z     vdW  Elec       q    Type
REMARK                         _______ _______ _______ _____ _____    ______ ____
ROOT
ATOM      1  C   UNL     1       1.742   9.850  19.484  0.00  0.00    +0.000 C 
ATOM      2  C   UNL     1       0.533   9.421  20.321  0.00  0.00    +0.000 C 
ATOM      3  C   UNL     1      -0.759   9.444  19.501  0.00  0.00    +0.000 C 
ATOM      4  N   UNL     1      -1.018  10.814  18.971  0.00  0.00    +0.000 NA
ATOM      5  C   UNL     1       0.118  11.323  18.137  0.00  0.00    +0.000 C 
ATOM      6  C   UNL     1       1.459  11.226  18.867  0.00  0.00    +0.000 C 
ENDROOT
BRANCH   1   8
ATOM      7  N   UNL     1       2.441   7.567  18.956  0.00  0.00    +0.000 N 
ATOM      8  C   UNL     1       2.069   8.792  18.416  0.00  0.00    +0.000 C 
ATOM      9  O   UNL     1       1.888   9.055  17.235  0.00  0.00    +0.000 OA
ATOM     10  H   UNL     1       2.336   7.478  19.958  0.00  0.00    +0.000 HD
BRANCH   7  15
ATOM     11  C   UNL     1       2.262   4.050  17.778  0.00  0.00    +0.000 A 
ATOM     12  C   UNL     1       3.434   3.910  17.048  0.00  0.00    +0.000 A 
ATOM     13  C   UNL     1       4.332   4.970  16.948  0.00  0.00    +0.000 A 
ATOM     14  C   UNL     1       4.083   6.191  17.592  0.00  0.00    +0.000 A 
ATOM     15  C   UNL     1       2.866   6.376  18.285  0.00  0.00    +0.000 A 
ATOM     16  C   UNL     1       1.977   5.281  18.384  0.00  0.00    +0.000 A 
BRANCH  11  18
ATOM     17  C   UNL     1       0.836   2.613  19.039  0.00  0.00    +0.000 C 
ATOM     18  O   UNL     1       1.501   2.916  17.823  0.00  0.00    +0.000 OA
ENDBRANCH  11  18
BRANCH  14  19
ATOM     19  O   UNL     1       5.008   7.191  17.595  0.00  0.00    +0.000 OA
ATOM     20  C   UNL     1       6.330   6.890  17.176  0.00  0.00    +0.000 C 
ENDBRANCH  14  19
ENDBRANCH   7  15
ENDBRANCH   1   8
BRANCH   4  21
ATOM     21  S   UNL     1      -2.504  10.920  18.089  0.00  0.00    +0.000 S 
ATOM     22  O   UNL     1      -2.263  11.689  16.887  0.00  0.00    +0.000 OA
ATOM     23  O   UNL     1      -3.096   9.602  18.034  0.00  0.00    +0.000 OA
BRANCH  21  24
ATOM     24  C   UNL     1      -3.622  11.873  18.959  0.00  0.00    +0.000 A 
ATOM     25  C   UNL     1      -4.988  12.059  18.656  0.00  0.00    +0.000 A 
ATOM     26  C   UNL     1      -5.794  11.554  17.522  0.00  0.00    +0.000 C 
ATOM     27  N   UNL     1      -5.579  12.832  19.578  0.00  0.00    +0.000 NA
ATOM     28  O   UNL     1      -4.594  13.161  20.488  0.00  0.00    +0.000 OA
ATOM     29  C   UNL     1      -3.414  12.601  20.108  0.00  0.00    +0.000 A 
ATOM     30  C   UNL     1      -2.257  12.893  20.977  0.00  0.00    +0.000 C 
ENDBRANCH  21  24
ENDBRANCH   4  21
TORSDOF 6
ENDMDL
MODEL 8
REMARK VINA RESULT:      -6.4      2.866      8.754
REMARK  Name = 
REMARK  10 active torsions:
REMARK  status: ('A' for Active; 'I' for Inactive)
REMARK    1  A    between atoms: C_1  and  O_2
REMARK    2  A    between atoms: O_2  and  C_3
REMARK    3  A    between atoms: C_6  and  O_7
REMARK    4  A    between atoms: O_7  and  C_8
REMARK    5  A    between atoms: C_9  and  N_10
REMARK    6  A    between atoms: C_11  and  C_13
REMARK    7  A    between atoms: N_16  and  S_17
REMARK    8  A    between atoms: S_17  and  C_20
REMARK    9  A    between atoms: C_21  and  C_22
REMARK   10  A    between atoms: C_25  and  C_26
REMARK                            x       y       z     vdW  Elec       q    Type
REMARK                         _______ _______ _______ _____ _____    ______ ____
ROOT
ATOM      1  C   UNL     1       1.678   9.762  19.533  0.00  0.00    +0.000 C 
ATOM      2  C   UNL     1       0.448   9.322  20.332  0.00  0.00    +0.000 C 
ATOM      3  C   UNL     1      -0.825   9.373  19.483  0.00  0.00    +0.000 C 
ATOM      4  N   UNL     1      -1.063  10.756  18.980  0.00  0.00    +0.000 NA
ATOM      5  C   UNL     1       0.095  11.277  18.184  0.00  0.00    +0.000 C 
ATOM      6  C   UNL     1       1.418  11.154  18.942  0.00  0.00    +0.000 C 
ENDROOT
BRANCH   1   8
ATOM      7  N   UNL     1       2.400   7.495  18.969  0.00  0.00    +0.000 N 
ATOM      8  C   UNL     1       2.023   8.727  18.449  0.00  0.00    +0.000 C 
ATOM      9  O   UNL     1       1.850   9.011  17.271  0.00  0.00    +0.000 OA
ATOM     10  H   UNL     1       2.288   7.386  19.967  0.00  0.00    +0.000 HD
BRANCH   7  15
ATOM     11  C   UNL     1       2.298   3.977  17.787  0.00  0.00    +0.000 A 
ATOM     12  C   UNL     1       3.447   3.878  17.015  0.00  0.00    +0.000 A 
ATOM     13  C   UNL     1       4.305   4.967  16.887  0.00  0.00    +0.000 A 
ATOM     14  C   UNL     1       4.038   6.178  17.543  0.00  0.00    +0.000 A 
ATOM     15  C   UNL     1       2.842   6.320  18.279  0.00  0.00    +0.000 A 
ATOM     16  C   UNL     1       1.993   5.196  18.406  0.00  0.00    +0.000 A 
BRANCH  11  18
ATOM     17  C   UNL     1       0.777   2.603  19.007  0.00  0.00    +0.000 C 
ATOM     18  O   UNL     1       1.578   2.817  17.856  0.00  0.00    +0.000 OA
ENDBRANCH  11  18
BRANCH  14  19
ATOM     19  O   UNL     1       4.928   7.209  17.515  0.00  0.00    +0.000 OA
ATOM     20  C   UNL     1       6.290   6.918  17.239  0.00  0.00    +0.000 C 
ENDBRANCH  14  19
ENDBRANCH   7  15
ENDBRANCH   1   8
BRANCH   4  21
ATOM     21  S   UNL     1      -2.527  10.893  18.067  0.00  0.00    +0.000 S 
ATOM     22  O   UNL     1      -2.262  11.713  16.904  0.00  0.00    +0.000 OA
ATOM     23  O   UNL     1      -3.111   9.576  17.942  0.00  0.00    +0.000 OA
BRANCH  21  24
ATOM     24  C   UNL     1      -3.671  11.803  18.949  0.00  0.00    +0.000 A 
ATOM     25  C   UNL     1      -3.409  12.660  20.040  0.00  0.00    +0.000 A 
ATOM     26  C   UNL     1      -2.138  12.960  20.738  0.00  0.00    +0.000 C 
ATOM     27  N   UNL     1      -4.535  13.253  20.461  0.00  0.00    +0.000 NA
ATOM     28  O   UNL     1      -5.543  12.777  19.647  0.00  0.00    +0.000 OA
ATOM     29  C   UNL     1      -5.030  11.893  18.750  0.00  0.00    +0.000 A 
ATOM     30  C   UNL     1      -6.003  11.278  17.827  0.00  0.00    +0.000 C 
ENDBRANCH  21  24
ENDBRANCH   4  21
TORSDOF 6
ENDMDL
MODEL 9
REMARK VINA RESULT:      -6.4      5.940     10.127
REMARK  Name = 
REMARK  10 active torsions:
REMARK  status: ('A' for Active; 'I' for Inactive)
REMARK    1  A    between atoms: C_1  and  O_2
REMARK    2  A    between atoms: O_2  and  C_3
REMARK    3  A    between atoms: C_6  and  O_7
REMARK    4  A    between atoms: O_7  and  C_8
REMARK    5  A    between atoms: C_9  and  N_10
REMARK    6  A    between atoms: C_11  and  C_13
REMARK    7  A    between atoms: N_16  and  S_17
REMARK    8  A    between atoms: S_17  and  C_20
REMARK    9  A    between atoms: C_21  and  C_22
REMARK   10  A    between atoms: C_25  and  C_26
REMARK                            x       y       z     vdW  Elec       q    Type
REMARK                         _______ _______ _______ _____ _____    ______ ____
ROOT
ATOM      1  C   UNL     1      -6.675  13.064  18.858  0.00  0.00    +0.000 C 
ATOM      2  C   UNL     1      -6.014  14.297  19.479  0.00  0.00    +0.000 C 
ATOM      3  C   UNL     1      -5.680  14.076  20.956  0.00  0.00    +0.000 C 
ATOM      4  N   UNL     1      -6.916  13.766  21.731  0.00  0.00    +0.000 NA
ATOM      5  C   UNL     1      -7.638  12.569  21.193  0.00  0.00    +0.000 C 
ATOM      6  C   UNL     1      -7.907  12.685  19.691  0.00  0.00    +0.000 C 
ENDROOT
BRANCH   1   8
ATOM      7  N   UNL     1      -4.384  12.323  18.431  0.00  0.00    +0.000 N 
ATOM      8  C   UNL     1      -5.670  11.904  18.747  0.00  0.00    +0.000 C 
ATOM      9  O   UNL     1      -6.029  10.769  19.033  0.00  0.00    +0.000 OA
ATOM     10  H   UNL     1      -4.234  13.323  18.432  0.00  0.00    +0.000 HD
BRANCH   7  15
ATOM     11  C   UNL     1      -1.020  10.901  19.098  0.00  0.00    +0.000 A 
ATOM     12  C   UNL     1      -0.807  10.083  17.996  0.00  0.00    +0.000 A 
ATOM     13  C   UNL     1      -1.762  10.001  16.986  0.00  0.00    +0.000 A 
ATOM     14  C   UNL     1      -2.946  10.750  17.048  0.00  0.00    +0.000 A 
ATOM     15  C   UNL     1      -3.212  11.537  18.191  0.00  0.00    +0.000 A 
ATOM     16  C   UNL     1      -2.221  11.615  19.197  0.00  0.00    +0.000 A 
BRANCH  11  18
ATOM     17  C   UNL     1       0.021  11.915  20.989  0.00  0.00    +0.000 C 
ATOM     18  O   UNL     1       0.020  10.914  19.984  0.00  0.00    +0.000 OA
ENDBRANCH  11  18
BRANCH  14  19
ATOM     19  O   UNL     1      -3.831  10.764  16.013  0.00  0.00    +0.000 OA
ATOM     20  C   UNL     1      -3.412  10.245  14.760  0.00  0.00    +0.000 C 
ENDBRANCH  14  19
ENDBRANCH   7  15
ENDBRANCH   1   8
BRANCH   4  21
ATOM     21  S   UNL     1      -6.612  13.572  23.424  0.00  0.00    +0.000 S 
ATOM     22  O   UNL     1      -7.580  14.365  24.152  0.00  0.00    +0.000 OA
ATOM     23  O   UNL     1      -6.437  12.163  23.697  0.00  0.00    +0.000 OA
BRANCH  21  24
ATOM     24  C   UNL     1      -5.118  14.292  23.827  0.00  0.00    +0.000 A 
ATOM     25  C   UNL     1      -4.886  15.656  24.109  0.00  0.00    +0.000 A 
ATOM     26  C   UNL     1      -5.813  16.809  24.084  0.00  0.00    +0.000 C 
ATOM     27  N   UNL     1      -3.602  15.863  24.434  0.00  0.00    +0.000 NA
ATOM     28  O   UNL     1      -2.986  14.630  24.358  0.00  0.00    +0.000 OA
ATOM     29  C   UNL     1      -3.890  13.688  23.976  0.00  0.00    +0.000 A 
ATOM     30  C   UNL     1      -3.363  12.319  23.824  0.00  0.00    +0.000 C 
ENDBRANCH  21  24
ENDBRANCH   4  21
TORSDOF 6
ENDMDL
