MODEL 1
REMARK VINA RESULT:      -7.2      0.000      0.000
REMARK  Name = 
REMARK  10 active torsions:
REMARK  status: ('A' for Active; 'I' for Inactive)
REMARK    1  A    between atoms: C_1  and  C_2
REMARK    2  A    between atoms: C_2  and  C_3
REMARK    3  A    between atoms: C_2  and  O_4
REMARK    4  A    between atoms: O_4  and  C_5
REMARK    5  A    between atoms: N_7  and  C_8
REMARK    6  A    between atoms: C_8  and  C_9
REMARK    7  A    between atoms: C_9  and  O_10
REMARK    8  A    between atoms: O_10  and  C_11
REMARK    9  A    between atoms: C_14  and  O_15
REMARK   10  A    between atoms: O_15  and  C_16
REMARK                            x       y       z     vdW  Elec       q    Type
REMARK                         _______ _______ _______ _____ _____    ______ ____
ROOT
ATOM      1  C   UNL     1       6.565   6.391  16.954  0.00  0.00    +0.000 A 
ATOM      2  C   UNL     1       5.311   6.820  17.397  0.00  0.00    +0.000 A 
ATOM      3  C   UNL     1       4.249   5.919  17.495  0.00  0.00    +0.000 A 
ATOM      4  C   UNL     1       4.422   4.582  17.144  0.00  0.00    +0.000 A 
ATOM      5  C   UNL     1       5.682   4.134  16.743  0.00  0.00    +0.000 A 
ATOM      6  C   UNL     1       6.742   5.045  16.623  0.00  0.00    +0.000 A 
ENDROOT
BRANCH   1   7
ATOM      7  O   UNL     1       7.670   7.193  16.819  0.00  0.00    +0.000 OA
BRANCH   7   8
ATOM      8  C   UNL     1       8.143   7.798  18.028  0.00  0.00    +0.000 C 
BRANCH   8   9
ATOM      9  C   UNL     1       8.232   9.317  17.870  0.00  0.00    +0.000 C 
BRANCH   9  12
ATOM     10  C   UNL     1       9.886  10.890  18.809  0.00  0.00    +0.000 C 
ATOM     11  O   UNL     1      10.292  11.262  17.718  0.00  0.00    +0.000 OA
ATOM     12  N   UNL     1       8.909   9.951  18.988  0.00  0.00    +0.000 N 
ATOM     13  H   UNL     1       8.637   9.755  19.941  0.00  0.00    +0.000 HD
BRANCH  10  14
ATOM     14  O   UNL     1      10.320  11.344  20.009  0.00  0.00    +0.000 OA
BRANCH  14  16
ATOM     15  C   UNL     1       9.290  12.352  21.979  0.00  0.00    +0.000 C 
ATOM     16  C   UNL     1       9.642  12.517  20.502  0.00  0.00    +0.000 C 
ATOM     17  C   UNL     1      10.572  13.711  20.316  0.00  0.00    +0.000 C 
ENDBRANCH  14  16
ENDBRANCH  10  14
ENDBRANCH   9  12
ENDBRANCH   8   9
ENDBRANCH   7   8
ENDBRANCH   1   7
BRANCH   4  18
ATOM     18  O   UNL     1       3.314   3.787  17.314  0.00  0.00    +0.000 OA
BRANCH  18  19
ATOM     19  C   UNL     1       2.808   3.533  18.565  0.00  0.00    +0.000 A 
ATOM     20  C   UNL     1       1.458   3.847  18.737  0.00  0.00    +0.000 A 
ATOM     21  C   UNL     1       0.837   3.635  19.967  0.00  0.00    +0.000 A 
ATOM     22  C   UNL     1       1.567   3.105  21.030  0.00  0.00    +0.000 A 
ATOM     23  C   UNL     1       2.903   2.749  20.849  0.00  0.00    +0.000 A 
ATOM     24  C   UNL     1       3.517   2.936  19.609  0.00  0.00    +0.000 A 
ENDBRANCH  18  19
ENDBRANCH   4  18
TORSDOF 8
ENDMDL
MODEL 2
REMARK VINA RESULT:      -7.1      1.115      1.510
REMARK  Name = 
REMARK  10 active torsions:
REMARK  status: ('A' for Active; 'I' for Inactive)
REMARK    1  A    between atoms: C_1  and  C_2
REMARK    2  A    between atoms: C_2  and  C_3
REMARK    3  A    between atoms: C_2  and  O_4
REMARK    4  A    between atoms: O_4  and  C_5
REMARK    5  A    between atoms: N_7  and  C_8
REMARK    6  A    between atoms: C_8  and  C_9
REMARK    7  A    between atoms: C_9  and  O_10
REMARK    8  A    between atoms: O_10  and  C_11
REMARK    9  A    between atoms: C_14  and  O_15
REMARK   10  A    between atoms: O_15  and  C_16
REMARK                            x       y       z     vdW  Elec       q    Type
REMARK                         _______ _______ _______ _____ _____    ______ ____
ROOT
ATOM      1  C   UNL     1       6.511   6.292  16.980  0.00  0.00    +0.000 A 
ATOM      2  C   UNL     1       5.999   5.417  16.017  0.00  0.00    +0.000 A 
ATOM      3  C   UNL     1       5.185   4.348  16.394  0.00  0.00    +0.000 A 
ATOM      4  C   UNL     1       4.876   4.133  17.735  0.00  0.00    +0.000 A 
ATOM      5  C   UNL     1       5.345   5.026  18.699  0.00  0.00    +0.000 A 
ATOM      6  C   UNL     1       6.182   6.087  18.322  0.00  0.00    +0.000 A 
ENDROOT
BRANCH   1   7
ATOM      7  O   UNL     1       7.320   7.368  16.717  0.00  0.00    +0.000 OA
BRANCH   7   8
ATOM      8  C   UNL     1       7.972   7.942  17.856  0.00  0.00    +0.000 C 
BRANCH   8   9
ATOM      9  C   UNL     1       7.805   9.463  17.862  0.00  0.00    +0.000 C 
BRANCH   9  12
ATOM     10  C   UNL     1       9.188  11.505  17.937  0.00  0.00    +0.000 C 
ATOM     11  O   UNL     1       8.290  12.240  17.553  0.00  0.00    +0.000 OA
ATOM     12  N   UNL     1       9.059  10.155  18.104  0.00  0.00    +0.000 N 
ATOM     13  H   UNL     1       9.866   9.663  18.460  0.00  0.00    +0.000 HD
BRANCH  10  14
ATOM     14  O   UNL     1      10.442  11.897  18.265  0.00  0.00    +0.000 OA
BRANCH  14  16
ATOM     15  C   UNL     1      12.324  11.898  19.819  0.00  0.00    +0.000 C 
ATOM     16  C   UNL     1      10.837  11.613  19.622  0.00  0.00    +0.000 C 
ATOM     17  C   UNL     1      10.007  12.495  20.548  0.00  0.00    +0.000 C 
ENDBRANCH  14  16
ENDBRANCH  10  14
ENDBRANCH   9  12
ENDBRANCH   8   9
ENDBRANCH   7   8
ENDBRANCH   1   7
BRANCH   4  18
ATOM     18  O   UNL     1       4.040   3.070  17.978  0.00  0.00    +0.000 OA
BRANCH  18  19
ATOM     19  C   UNL     1       3.195   3.065  19.060  0.00  0.00    +0.000 A 
ATOM     20  C   UNL     1       1.897   3.513  18.804  0.00  0.00    +0.000 A 
ATOM     21  C   UNL     1       0.952   3.557  19.829  0.00  0.00    +0.000 A 
ATOM     22  C   UNL     1       1.305   3.149  21.115  0.00  0.00    +0.000 A 
ATOM     23  C   UNL     1       2.587   2.659  21.363  0.00  0.00    +0.000 A 
ATOM     24  C   UNL     1       3.524   2.590  20.331  0.00  0.00    +0.000 A 
ENDBRANCH  18  19
ENDBRANCH   4  18
TORSDOF 8
ENDMDL
MODEL 3
REMARK VINA RESULT:      -7.0      1.081      1.660
REMARK  Name = 
REMARK  10 active torsions:
REMARK  status: ('A' for Active; 'I' for Inactive)
REMARK    1  A    between atoms: C_1  and  C_2
REMARK    2  A    between atoms: C_2  and  C_3
REMARK    3  A    between atoms: C_2  and  O_4
REMARK    4  A    between atoms: O_4  and  C_5
REMARK    5  A    between atoms: N_7  and  C_8
REMARK    6  A    between atoms: C_8  and  C_9
REMARK    7  A    between atoms: C_9  and  O_10
REMARK    8  A    between atoms: O_10  and  C_11
REMARK    9  A    between atoms: C_14  and  O_15
REMARK   10  A    between atoms: O_15  and  C_16
REMARK                            x       y       z     vdW  Elec       q    Type
REMARK                         _______ _______ _______ _____ _____    ______ ____
ROOT
ATOM      1  C   UNL     1       6.561   6.467  16.921  0.00  0.00    +0.000 A 
ATOM      2  C   UNL     1       6.927   5.121  16.836  0.00  0.00    +0.000 A 
ATOM      3  C   UNL     1       5.979   4.116  17.038  0.00  0.00    +0.000 A 
ATOM      4  C   UNL     1       4.657   4.440  17.333  0.00  0.00    +0.000 A 
ATOM      5  C   UNL     1       4.272   5.782  17.376  0.00  0.00    +0.000 A 
ATOM      6  C   UNL     1       5.230   6.791  17.196  0.00  0.00    +0.000 A 
ENDROOT
BRANCH   1   7
ATOM      7  O   UNL     1       7.413   7.528  16.744  0.00  0.00    +0.000 OA
BRANCH   7   8
ATOM      8  C   UNL     1       8.014   8.043  17.939  0.00  0.00    +0.000 C 
BRANCH   8   9
ATOM      9  C   UNL     1       7.966   9.572  17.949  0.00  0.00    +0.000 C 
BRANCH   9  12
ATOM     10  C   UNL     1       9.527  11.481  18.047  0.00  0.00    +0.000 C 
ATOM     11  O   UNL     1       8.745  12.267  17.533  0.00  0.00    +0.000 OA
ATOM     12  N   UNL     1       9.252  10.162  18.278  0.00  0.00    +0.000 N 
ATOM     13  H   UNL     1       9.970   9.624  18.741  0.00  0.00    +0.000 HD
BRANCH  10  14
ATOM     14  O   UNL     1      10.776  11.778  18.479  0.00  0.00    +0.000 OA
BRANCH  14  16
ATOM     15  C   UNL     1      11.579  13.664  19.803  0.00  0.00    +0.000 C 
ATOM     16  C   UNL     1      11.125  13.176  18.430  0.00  0.00    +0.000 C 
ATOM     17  C   UNL     1      12.251  13.344  17.415  0.00  0.00    +0.000 C 
ENDBRANCH  14  16
ENDBRANCH  10  14
ENDBRANCH   9  12
ENDBRANCH   8   9
ENDBRANCH   7   8
ENDBRANCH   1   7
BRANCH   4  18
ATOM     18  O   UNL     1       3.811   3.367  17.478  0.00  0.00    +0.000 OA
BRANCH  18  19
ATOM     19  C   UNL     1       3.063   3.202  18.617  0.00  0.00    +0.000 A 
ATOM     20  C   UNL     1       1.679   3.232  18.431  0.00  0.00    +0.000 A 
ATOM     21  C   UNL     1       0.819   3.080  19.518  0.00  0.00    +0.000 A 
ATOM     22  C   UNL     1       1.344   2.894  20.797  0.00  0.00    +0.000 A 
ATOM     23  C   UNL     1       2.724   2.819  20.979  0.00  0.00    +0.000 A 
ATOM     24  C   UNL     1       3.584   2.945  19.887  0.00  0.00    +0.000 A 
ENDBRANCH  18  19
ENDBRANCH   4  18
TORSDOF 8
ENDMDL
MODEL 4
REMARK VINA RESULT:      -7.0      7.118      9.566
REMARK  Name = 
REMARK  10 active torsions:
REMARK  status: ('A' for Active; 'I' for Inactive)
REMARK    1  A    between atoms: C_1  and  C_2
REMARK    2  A    between atoms: C_2  and  C_3
REMARK    3  A    between atoms: C_2  and  O_4
REMARK    4  A    between atoms: O_4  and  C_5
REMARK    5  A    between atoms: N_7  and  C_8
REMARK    6  A    between atoms: C_8  and  C_9
REMARK    7  A    between atoms: C_9  and  O_10
REMARK    8  A    between atoms: O_10  and  C_11
REMARK    9  A    between atoms: C_14  and  O_15
REMARK   10  A    between atoms: O_15  and  C_16
REMARK                            x       y       z     vdW  Elec       q    Type
REMARK                         _______ _______ _______ _____ _____    ______ ____
ROOT
ATOM      1  C   UNL     1       0.822   9.879  19.061  0.00  0.00    +0.000 A 
ATOM      2  C   UNL     1       1.451   9.329  17.940  0.00  0.00    +0.000 A 
ATOM      3  C   UNL     1       2.183   8.145  18.049  0.00  0.00    +0.000 A 
ATOM      4  C   UNL     1       2.304   7.500  19.278  0.00  0.00    +0.000 A 
ATOM      5  C   UNL     1       1.643   8.018  20.394  0.00  0.00    +0.000 A 
ATOM      6  C   UNL     1       0.927   9.219  20.287  0.00  0.00    +0.000 A 
ENDROOT
BRANCH   1   7
ATOM      7  O   UNL     1       0.084  11.036  19.062  0.00  0.00    +0.000 OA
BRANCH   7   8
ATOM      8  C   UNL     1      -1.304  10.882  18.740  0.00  0.00    +0.000 C 
BRANCH   8   9
ATOM      9  C   UNL     1      -1.750  11.963  17.755  0.00  0.00    +0.000 C 
BRANCH   9  12
ATOM     10  C   UNL     1      -3.679  11.208  16.414  0.00  0.00    +0.000 C 
ATOM     11  O   UNL     1      -2.996  10.603  15.600  0.00  0.00    +0.000 OA
ATOM     12  N   UNL     1      -3.175  11.903  17.476  0.00  0.00    +0.000 N 
ATOM     13  H   UNL     1      -3.846  12.332  18.097  0.00  0.00    +0.000 HD
BRANCH  10  14
ATOM     14  O   UNL     1      -5.032  11.284  16.408  0.00  0.00    +0.000 OA
BRANCH  14  16
ATOM     15  C   UNL     1      -6.569  13.088  16.991  0.00  0.00    +0.000 C 
ATOM     16  C   UNL     1      -5.608  12.019  17.506  0.00  0.00    +0.000 C 
ATOM     17  C   UNL     1      -6.354  11.029  18.395  0.00  0.00    +0.000 C 
ENDBRANCH  14  16
ENDBRANCH  10  14
ENDBRANCH   9  12
ENDBRANCH   8   9
ENDBRANCH   7   8
ENDBRANCH   1   7
BRANCH   4  18
ATOM     18  O   UNL     1       3.020   6.328  19.253  0.00  0.00    +0.000 OA
BRANCH  18  19
ATOM     19  C   UNL     1       2.406   5.118  19.463  0.00  0.00    +0.000 A 
ATOM     20  C   UNL     1       1.831   4.537  18.330  0.00  0.00    +0.000 A 
ATOM     21  C   UNL     1       1.176   3.309  18.423  0.00  0.00    +0.000 A 
ATOM     22  C   UNL     1       1.098   2.657  19.654  0.00  0.00    +0.000 A 
ATOM     23  C   UNL     1       1.711   3.212  20.776  0.00  0.00    +0.000 A 
ATOM     24  C   UNL     1       2.389   4.428  20.677  0.00  0.00    +0.000 A 
ENDBRANCH  18  19
ENDBRANCH   4  18
TORSDOF 8
ENDMDL
MODEL 5
REMARK VINA RESULT:      -6.9      1.393      1.803
REMARK  Name = 
REMARK  10 active torsions:
REMARK  status: ('A' for Active; 'I' for Inactive)
REMARK    1  A    between atoms: C_1  and  C_2
REMARK    2  A    between atoms: C_2  and  C_3
REMARK    3  A    between atoms: C_2  and  O_4
REMARK    4  A    between atoms: O_4  and  C_5
REMARK    5  A    between atoms: N_7  and  C_8
REMARK    6  A    between atoms: C_8  and  C_9
REMARK    7  A    between atoms: C_9  and  O_10
REMARK    8  A    between atoms: O_10  and  C_11
REMARK    9  A    between atoms: C_14  and  O_15
REMARK   10  A    between atoms: O_15  and  C_16
REMARK                            x       y       z     vdW  Elec       q    Type
REMARK                         _______ _______ _______ _____ _____    ______ ____
ROOT
ATOM      1  C   UNL     1       6.768   6.677  17.056  0.00  0.00    +0.000 A 
ATOM      2  C   UNL     1       5.457   6.566  16.585  0.00  0.00    +0.000 A 
ATOM      3  C   UNL     1       4.703   5.421  16.852  0.00  0.00    +0.000 A 
ATOM      4  C   UNL     1       5.250   4.371  17.585  0.00  0.00    +0.000 A 
ATOM      5  C   UNL     1       6.543   4.490  18.098  0.00  0.00    +0.000 A 
ATOM      6  C   UNL     1       7.307   5.631  17.810  0.00  0.00    +0.000 A 
ENDROOT
BRANCH   1   7
ATOM      7  O   UNL     1       7.593   7.753  16.848  0.00  0.00    +0.000 OA
BRANCH   7   8
ATOM      8  C   UNL     1       8.259   8.255  18.013  0.00  0.00    +0.000 C 
BRANCH   8   9
ATOM      9  C   UNL     1       8.031   9.760  18.157  0.00  0.00    +0.000 C 
BRANCH   9  12
ATOM     10  C   UNL     1       9.907  11.163  18.933  0.00  0.00    +0.000 C 
ATOM     11  O   UNL     1       9.543  11.168  20.100  0.00  0.00    +0.000 OA
ATOM     12  N   UNL     1       9.242  10.527  17.923  0.00  0.00    +0.000 N 
ATOM     13  H   UNL     1       9.664  10.569  17.006  0.00  0.00    +0.000 HD
BRANCH  10  14
ATOM     14  O   UNL     1      11.018  11.768  18.450  0.00  0.00    +0.000 OA
BRANCH  14  16
ATOM     15  C   UNL     1      10.072  13.980  18.036  0.00  0.00    +0.000 C 
ATOM     16  C   UNL     1      10.780  12.767  17.438  0.00  0.00    +0.000 C 
ATOM     17  C   UNL     1      12.129  13.181  16.859  0.00  0.00    +0.000 C 
ENDBRANCH  14  16
ENDBRANCH  10  14
ENDBRANCH   9  12
ENDBRANCH   8   9
ENDBRANCH   7   8
ENDBRANCH   1   7
BRANCH   4  18
ATOM     18  O   UNL     1       4.401   3.314  17.811  0.00  0.00    +0.000 OA
BRANCH  18  19
ATOM     19  C   UNL     1       3.299   3.449  18.618  0.00  0.00    +0.000 A 
ATOM     20  C   UNL     1       2.139   2.828  18.151  0.00  0.00    +0.000 A 
ATOM     21  C   UNL     1       0.955   2.902  18.885  0.00  0.00    +0.000 A 
ATOM     22  C   UNL     1       0.932   3.599  20.094  0.00  0.00    +0.000 A 
ATOM     23  C   UNL     1       2.100   4.182  20.584  0.00  0.00    +0.000 A 
ATOM     24  C   UNL     1       3.290   4.084  19.862  0.00  0.00    +0.000 A 
ENDBRANCH  18  19
ENDBRANCH   4  18
TORSDOF 8
ENDMDL
MODEL 6
REMARK VINA RESULT:      -6.9      5.442      7.917
REMARK  Name = 
REMARK  10 active torsions:
REMARK  status: ('A' for Active; 'I' for Inactive)
REMARK    1  A    between atoms: C_1  and  C_2
REMARK    2  A    between atoms: C_2  and  C_3
REMARK    3  A    between atoms: C_2  and  O_4
REMARK    4  A    between atoms: O_4  and  C_5
REMARK    5  A    between atoms: N_7  and  C_8
REMARK    6  A    between atoms: C_8  and  C_9
REMARK    7  A    between atoms: C_9  and  O_10
REMARK    8  A    between atoms: O_10  and  C_11
REMARK    9  A    between atoms: C_14  and  O_15
REMARK   10  A    between atoms: O_15  and  C_16
REMARK                            x       y       z     vdW  Elec       q    Type
REMARK                         _______ _______ _______ _____ _____    ______ ____
ROOT
ATOM      1  C   UNL     1       2.274   7.417  19.473  0.00  0.00    +0.000 A 
ATOM      2  C   UNL     1       2.276   7.947  18.180  0.00  0.00    +0.000 A 
ATOM      3  C   UNL     1       1.531   9.090  17.882  0.00  0.00    +0.000 A 
ATOM      4  C   UNL     1       0.768   9.712  18.867  0.00  0.00    +0.000 A 
ATOM      5  C   UNL     1       0.793   9.216  20.172  0.00  0.00    +0.000 A 
ATOM      6  C   UNL     1       1.525   8.055  20.465  0.00  0.00    +0.000 A 
ENDROOT
BRANCH   1   7
ATOM      7  O   UNL     1       2.967   6.301  19.869  0.00  0.00    +0.000 OA
BRANCH   7   8
ATOM      8  C   UNL     1       2.302   5.051  19.644  0.00  0.00    +0.000 C 
BRANCH   8   9
ATOM      9  C   UNL     1       2.962   4.291  18.492  0.00  0.00    +0.000 C 
BRANCH   9  12
ATOM     10  C   UNL     1       5.367   3.969  18.941  0.00  0.00    +0.000 C 
ATOM     11  O   UNL     1       5.195   3.028  19.701  0.00  0.00    +0.000 OA
ATOM     12  N   UNL     1       4.358   4.652  18.320  0.00  0.00    +0.000 N 
ATOM     13  H   UNL     1       4.632   5.390  17.688  0.00  0.00    +0.000 HD
BRANCH  10  14
ATOM     14  O   UNL     1       6.567   4.485  18.581  0.00  0.00    +0.000 OA
BRANCH  14  16
ATOM     15  C   UNL     1       7.361   6.593  17.643  0.00  0.00    +0.000 C 
ATOM     16  C   UNL     1       6.546   5.324  17.409  0.00  0.00    +0.000 C 
ATOM     17  C   UNL     1       7.139   4.528  16.250  0.00  0.00    +0.000 C 
ENDBRANCH  14  16
ENDBRANCH  10  14
ENDBRANCH   9  12
ENDBRANCH   8   9
ENDBRANCH   7   8
ENDBRANCH   1   7
BRANCH   4  18
ATOM     18  O   UNL     1       0.105  10.845  18.463  0.00  0.00    +0.000 OA
BRANCH  18  19
ATOM     19  C   UNL     1      -1.242  10.821  18.196  0.00  0.00    +0.000 A 
ATOM     20  C   UNL     1      -2.012  11.723  18.934  0.00  0.00    +0.000 A 
ATOM     21  C   UNL     1      -3.393  11.785  18.751  0.00  0.00    +0.000 A 
ATOM     22  C   UNL     1      -4.008  10.944  17.824  0.00  0.00    +0.000 A 
ATOM     23  C   UNL     1      -3.236  10.075  17.053  0.00  0.00    +0.000 A 
ATOM     24  C   UNL     1      -1.851  10.032  17.218  0.00  0.00    +0.000 A 
ENDBRANCH  18  19
ENDBRANCH   4  18
TORSDOF 8
ENDMDL
MODEL 7
REMARK VINA RESULT:      -6.9      1.583      2.102
REMARK  Name = 
REMARK  10 active torsions:
REMARK  status: ('A' for Active; 'I' for Inactive)
REMARK    1  A    between atoms: C_1  and  C_2
REMARK    2  A    between atoms: C_2  and  C_3
REMARK    3  A    between atoms: C_2  and  O_4
REMARK    4  A    between atoms: O_4  and  C_5
REMARK    5  A    between atoms: N_7  and  C_8
REMARK    6  A    between atoms: C_8  and  C_9
REMARK    7  A    between atoms: C_9  and  O_10
REMARK    8  A    between atoms: O_10  and  C_11
REMARK    9  A    between atoms: C_14  and  O_15
REMARK   10  A    between atoms: O_15  and  C_16
REMARK                            x       y       z     vdW  Elec       q    Type
REMARK                         _______ _______ _______ _____ _____    ______ ____
ROOT
ATOM      1  C   UNL     1       6.871   6.653  17.943  0.00  0.00    +0.000 A 
ATOM      2  C   UNL     1       5.966   6.947  16.919  0.00  0.00    +0.000 A 
ATOM      3  C   UNL     1       4.810   6.182  16.754  0.00  0.00    +0.000 A 
ATOM      4  C   UNL     1       4.546   5.110  17.603  0.00  0.00    +0.000 A 
ATOM      5  C   UNL     1       5.420   4.835  18.656  0.00  0.00    +0.000 A 
ATOM      6  C   UNL     1       6.592   5.590  18.806  0.00  0.00    +0.000 A 
ENDROOT
BRANCH   1   7
ATOM      7  O   UNL     1       8.034   7.338  18.189  0.00  0.00    +0.000 OA
BRANCH   7   8
ATOM      8  C   UNL     1       8.043   8.708  17.767  0.00  0.00    +0.000 C 
BRANCH   8   9
ATOM      9  C   UNL     1       8.875   9.560  18.727  0.00  0.00    +0.000 C 
BRANCH   9  12
ATOM     10  C   UNL     1      10.052  11.723  18.572  0.00  0.00    +0.000 C 
ATOM     11  O   UNL     1      11.028  11.344  19.202  0.00  0.00    +0.000 OA
ATOM     12  N   UNL     1       8.960  10.946  18.302  0.00  0.00    +0.000 N 
ATOM     13  H   UNL     1       8.233  11.366  17.741  0.00  0.00    +0.000 HD
BRANCH  10  14
ATOM     14  O   UNL     1       9.890  12.956  18.033  0.00  0.00    +0.000 OA
BRANCH  14  16
ATOM     15  C   UNL     1      11.752  13.518  16.559  0.00  0.00    +0.000 C 
ATOM     16  C   UNL     1      11.096  13.738  17.920  0.00  0.00    +0.000 C 
ATOM     17  C   UNL     1      10.721  15.207  18.089  0.00  0.00    +0.000 C 
ENDBRANCH  14  16
ENDBRANCH  10  14
ENDBRANCH   9  12
ENDBRANCH   8   9
ENDBRANCH   7   8
ENDBRANCH   1   7
BRANCH   4  18
ATOM     18  O   UNL     1       3.363   4.453  17.362  0.00  0.00    +0.000 OA
BRANCH  18  19
ATOM     19  C   UNL     1       2.568   4.022  18.396  0.00  0.00    +0.000 A 
ATOM     20  C   UNL     1       2.427   2.637  18.500  0.00  0.00    +0.000 A 
ATOM     21  C   UNL     1       1.639   2.083  19.509  0.00  0.00    +0.000 A 
ATOM     22  C   UNL     1       0.993   2.918  20.420  0.00  0.00    +0.000 A 
ATOM     23  C   UNL     1       1.168   4.299  20.346  0.00  0.00    +0.000 A 
ATOM     24  C   UNL     1       1.978   4.851  19.352  0.00  0.00    +0.000 A 
ENDBRANCH  18  19
ENDBRANCH   4  18
TORSDOF 8
ENDMDL
MODEL 8
REMARK VINA RESULT:      -6.8      1.523      2.014
REMARK  Name = 
REMARK  10 active torsions:
REMARK  status: ('A' for Active; 'I' for Inactive)
REMARK    1  A    between atoms: C_1  and  C_2
REMARK    2  A    between atoms: C_2  and  C_3
REMARK    3  A    between atoms: C_2  and  O_4
REMARK    4  A    between atoms: O_4  and  C_5
REMARK    5  A    between atoms: N_7  and  C_8
REMARK    6  A    between atoms: C_8  and  C_9
REMARK    7  A    between atoms: C_9  and  O_10
REMARK    8  A    between atoms: O_10  and  C_11
REMARK    9  A    between atoms: C_14  and  O_15
REMARK   10  A    between atoms: O_15  and  C_16
REMARK                            x       y       z     vdW  Elec       q    Type
REMARK                         _______ _______ _______ _____ _____    ______ ____
ROOT
ATOM      1  C   UNL     1       6.902   6.398  17.862  0.00  0.00    +0.000 A 
ATOM      2  C   UNL     1       6.588   5.418  18.808  0.00  0.00    +0.000 A 
ATOM      3  C   UNL     1       5.436   4.641  18.667  0.00  0.00    +0.000 A 
ATOM      4  C   UNL     1       4.579   4.837  17.587  0.00  0.00    +0.000 A 
ATOM      5  C   UNL     1       4.906   5.783  16.613  0.00  0.00    +0.000 A 
ATOM      6  C   UNL     1       6.052   6.578  16.767  0.00  0.00    +0.000 A 
ENDROOT
BRANCH   1   7
ATOM      7  O   UNL     1       8.004   7.214  17.908  0.00  0.00    +0.000 OA
BRANCH   7   8
ATOM      8  C   UNL     1       7.745   8.610  17.718  0.00  0.00    +0.000 C 
BRANCH   8   9
ATOM      9  C   UNL     1       8.707   9.454  18.557  0.00  0.00    +0.000 C 
BRANCH   9  12
ATOM     10  C   UNL     1       9.968  11.568  18.377  0.00  0.00    +0.000 C 
ATOM     11  O   UNL     1      10.776  11.268  19.245  0.00  0.00    +0.000 OA
ATOM     12  N   UNL     1       8.930  10.770  17.984  0.00  0.00    +0.000 N 
ATOM     13  H   UNL     1       8.351  11.117  17.233  0.00  0.00    +0.000 HD
BRANCH  10  14
ATOM     14  O   UNL     1       9.967  12.718  17.663  0.00  0.00    +0.000 OA
BRANCH  14  16
ATOM     15  C   UNL     1      12.138  13.444  16.817  0.00  0.00    +0.000 C 
ATOM     16  C   UNL     1      11.084  13.595  17.911  0.00  0.00    +0.000 C 
ATOM     17  C   UNL     1      10.561  15.027  17.941  0.00  0.00    +0.000 C 
ENDBRANCH  14  16
ENDBRANCH  10  14
ENDBRANCH   9  12
ENDBRANCH   8   9
ENDBRANCH   7   8
ENDBRANCH   1   7
BRANCH   4  18
ATOM     18  O   UNL     1       3.497   3.992  17.540  0.00  0.00    +0.000 OA
BRANCH  18  19
ATOM     19  C   UNL     1       2.738   3.749  18.657  0.00  0.00    +0.000 A 
ATOM     20  C   UNL     1       2.146   4.876  19.233  0.00  0.00    +0.000 A 
ATOM     21  C   UNL     1       1.356   4.752  20.375  0.00  0.00    +0.000 A 
ATOM     22  C   UNL     1       1.154   3.494  20.944  0.00  0.00    +0.000 A 
ATOM     23  C   UNL     1       1.706   2.362  20.346  0.00  0.00    +0.000 A 
ATOM     24  C   UNL     1       2.475   2.484  19.187  0.00  0.00    +0.000 A 
ENDBRANCH  18  19
ENDBRANCH   4  18
TORSDOF 8
ENDMDL
MODEL 9
REMARK VINA RESULT:      -6.8      1.737      2.401
REMARK  Name = 
REMARK  10 active torsions:
REMARK  status: ('A' for Active; 'I' for Inactive)
REMARK    1  A    between atoms: C_1  and  C_2
REMARK    2  A    between atoms: C_2  and  C_3
REMARK    3  A    between atoms: C_2  and  O_4
REMARK    4  A    between atoms: O_4  and  C_5
REMARK    5  A    between atoms: N_7  and  C_8
REMARK    6  A    between atoms: C_8  and  C_9
REMARK    7  A    between atoms: C_9  and  O_10
REMARK    8  A    between atoms: O_10  and  C_11
REMARK    9  A    between atoms: C_14  and  O_15
REMARK   10  A    between atoms: O_15  and  C_16
REMARK                            x       y       z     vdW  Elec       q    Type
REMARK                         _______ _______ _______ _____ _____    ______ ____
ROOT
ATOM      1  C   UNL     1       7.363   6.982  17.737  0.00  0.00    +0.000 A 
ATOM      2  C   UNL     1       7.803   6.272  18.858  0.00  0.00    +0.000 A 
ATOM      3  C   UNL     1       7.053   5.207  19.360  0.00  0.00    +0.000 A 
ATOM      4  C   UNL     1       5.852   4.842  18.756  0.00  0.00    +0.000 A 
ATOM      5  C   UNL     1       5.427   5.516  17.610  0.00  0.00    +0.000 A 
ATOM      6  C   UNL     1       6.169   6.600  17.120  0.00  0.00    +0.000 A 
ENDROOT
BRANCH   1   7
ATOM      7  O   UNL     1       8.021   8.043  17.168  0.00  0.00    +0.000 OA
BRANCH   7   8
ATOM      8  C   UNL     1       7.697   9.331  17.706  0.00  0.00    +0.000 C 
BRANCH   8   9
ATOM      9  C   UNL     1       8.928   9.969  18.352  0.00  0.00    +0.000 C 
BRANCH   9  12
ATOM     10  C   UNL     1      10.212  12.012  17.832  0.00  0.00    +0.000 C 
ATOM     11  O   UNL     1      11.295  11.446  17.839  0.00  0.00    +0.000 OA
ATOM     12  N   UNL     1       9.018  11.393  18.080  0.00  0.00    +0.000 N 
ATOM     13  H   UNL     1       8.189  11.965  18.010  0.00  0.00    +0.000 HD
BRANCH  10  14
ATOM     14  O   UNL     1      10.009  13.326  17.573  0.00  0.00    +0.000 OA
BRANCH  14  16
ATOM     15  C   UNL     1      11.267  15.342  17.015  0.00  0.00    +0.000 C 
ATOM     16  C   UNL     1      11.062  14.206  18.015  0.00  0.00    +0.000 C 
ATOM     17  C   UNL     1      10.663  14.772  19.375  0.00  0.00    +0.000 C 
ENDBRANCH  14  16
ENDBRANCH  10  14
ENDBRANCH   9  12
ENDBRANCH   8   9
ENDBRANCH   7   8
ENDBRANCH   1   7
BRANCH   4  18
ATOM     18  O   UNL     1       5.222   3.759  19.320  0.00  0.00    +0.000 OA
BRANCH  18  19
ATOM     19  C   UNL     1       3.854   3.710  19.422  0.00  0.00    +0.000 A 
ATOM     20  C   UNL     1       3.241   2.669  18.721  0.00  0.00    +0.000 A 
ATOM     21  C   UNL     1       1.854   2.522  18.747  0.00  0.00    +0.000 A 
ATOM     22  C   UNL     1       1.076   3.417  19.481  0.00  0.00    +0.000 A 
ATOM     23  C   UNL     1       1.689   4.430  20.219  0.00  0.00    +0.000 A 
ATOM     24  C   UNL     1       3.078   4.560  20.213  0.00  0.00    +0.000 A 
ENDBRANCH  18  19
ENDBRANCH   4  18
TORSDOF 8
ENDMDL
