MODEL 1
REMARK VINA RESULT:      -7.7      0.000      0.000
REMARK  Name = 
REMARK  5 active torsions:
REMARK  status: ('A' for Active; 'I' for Inactive)
REMARK    1  A    between atoms: N_2  and  C_4
REMARK    2  A    between atoms: C_6  and  C_7
REMARK    3  A    between atoms: N_8  and  N_9
REMARK    4  A    between atoms: C_12  and  C_13
REMARK    5  A    between atoms: C_23  and  O_24
REMARK                            x       y       z     vdW  Elec       q    Type
REMARK                         _______ _______ _______ _____ _____    ______ ____
ROOT
ATOM      1  C   UNL     1       3.077   7.439  17.889  0.00  0.00    +0.000 C 
ATOM      2  N   UNL     1       2.513   8.515  17.425  0.00  0.00    +0.000 NA
ENDROOT
BRANCH   2   3
ATOM      3  N   UNL     1       1.240   8.825  17.812  0.00  0.00    +0.000 N 
ATOM      4  C   UNL     1       0.979   9.930  18.574  0.00  0.00    +0.000 A 
ATOM      5  N   UNL     1      -0.040  10.021  19.407  0.00  0.00    +0.000 NA
ATOM      6  C   UNL     1      -0.066  11.280  20.001  0.00  0.00    +0.000 A 
ATOM      7  C   UNL     1       0.947  12.130  19.604  0.00  0.00    +0.000 A 
ATOM      8  S   UNL     1       1.951  11.357  18.463  0.00  0.00    +0.000 S 
ATOM      9  H   UNL     1       0.657   8.031  18.076  0.00  0.00    +0.000 HD
BRANCH   6  10
ATOM     10  C   UNL     1      -1.093  11.671  20.962  0.00  0.00    +0.000 A 
ATOM     11  C   UNL     1      -2.206  12.417  20.552  0.00  0.00    +0.000 A 
ATOM     12  C   UNL     1      -3.190  12.788  21.475  0.00  0.00    +0.000 A 
ATOM     13  C   UNL     1      -3.067  12.423  22.816  0.00  0.00    +0.000 A 
ATOM     14  C   UNL     1      -1.969  11.682  23.235  0.00  0.00    +0.000 A 
ATOM     15  C   UNL     1      -0.987  11.307  22.314  0.00  0.00    +0.000 A 
ENDBRANCH   6  10
ENDBRANCH   2   3
BRANCH   1  18
ATOM     16  C   UNL     1       1.700   4.099  18.864  0.00  0.00    +0.000 A 
ATOM     17  C   UNL     1       2.259   5.137  18.108  0.00  0.00    +0.000 A 
ATOM     18  C   UNL     1       2.528   6.357  18.732  0.00  0.00    +0.000 A 
ATOM     19  C   UNL     1       2.194   6.541  20.079  0.00  0.00    +0.000 A 
ATOM     20  C   UNL     1       1.647   5.488  20.825  0.00  0.00    +0.000 A 
ATOM     21  C   UNL     1       1.404   4.256  20.217  0.00  0.00    +0.000 A 
BRANCH  16  23
ATOM     22  O   UNL     1       0.300   2.338  18.454  0.00  0.00    +0.000 OA
ATOM     23  N   UNL     1       1.389   2.858  18.185  0.00  0.00    +0.000 N 
ATOM     24  O   UNL     1       2.192   2.456  17.333  0.00  0.00    +0.000 OA
ENDBRANCH  16  23
BRANCH  21  25
ATOM     25  O   UNL     1       0.853   3.239  20.936  0.00  0.00    +0.000 OA
ATOM     26  H   UNL     1       1.461   2.959  21.643  0.00  0.00    +0.000 HD
ENDBRANCH  21  25
ENDBRANCH   1  18
TORSDOF 5
ENDMDL
MODEL 2
REMARK VINA RESULT:      -7.5      3.662      4.924
REMARK  Name = 
REMARK  5 active torsions:
REMARK  status: ('A' for Active; 'I' for Inactive)
REMARK    1  A    between atoms: N_2  and  C_4
REMARK    2  A    between atoms: C_6  and  C_7
REMARK    3  A    between atoms: N_8  and  N_9
REMARK    4  A    between atoms: C_12  and  C_13
REMARK    5  A    between atoms: C_23  and  O_24
REMARK                            x       y       z     vdW  Elec       q    Type
REMARK                         _______ _______ _______ _____ _____    ______ ____
ROOT
ATOM      1  C   UNL     1       2.938   4.531  19.238  0.00  0.00    +0.000 C 
ATOM      2  N   UNL     1       2.135   5.516  19.513  0.00  0.00    +0.000 NA
ENDROOT
BRANCH   2   3
ATOM      3  N   UNL     1       2.411   6.762  19.027  0.00  0.00    +0.000 N 
ATOM      4  C   UNL     1       1.815   7.876  19.549  0.00  0.00    +0.000 A 
ATOM      5  N   UNL     1       1.589   8.979  18.861  0.00  0.00    +0.000 NA
ATOM      6  C   UNL     1       1.014   9.949  19.677  0.00  0.00    +0.000 A 
ATOM      7  C   UNL     1       0.809   9.559  20.985  0.00  0.00    +0.000 A 
ATOM      8  S   UNL     1       1.348   7.957  21.213  0.00  0.00    +0.000 S 
ATOM      9  H   UNL     1       2.516   6.824  18.014  0.00  0.00    +0.000 HD
BRANCH   6  10
ATOM     10  C   UNL     1       0.665  11.279  19.186  0.00  0.00    +0.000 A 
ATOM     11  C   UNL     1       1.611  12.312  19.192  0.00  0.00    +0.000 A 
ATOM     12  C   UNL     1       1.273  13.585  18.719  0.00  0.00    +0.000 A 
ATOM     13  C   UNL     1      -0.013  13.837  18.241  0.00  0.00    +0.000 A 
ATOM     14  C   UNL     1      -0.960  12.819  18.227  0.00  0.00    +0.000 A 
ATOM     15  C   UNL     1      -0.624  11.547  18.697  0.00  0.00    +0.000 A 
ENDBRANCH   6  10
ENDBRANCH   2   3
BRANCH   1  18
ATOM     16  C   UNL     1       6.571   5.121  18.565  0.00  0.00    +0.000 A 
ATOM     17  C   UNL     1       5.330   5.073  19.212  0.00  0.00    +0.000 A 
ATOM     18  C   UNL     1       4.238   4.522  18.537  0.00  0.00    +0.000 A 
ATOM     19  C   UNL     1       4.386   4.074  17.219  0.00  0.00    +0.000 A 
ATOM     20  C   UNL     1       5.638   4.116  16.591  0.00  0.00    +0.000 A 
ATOM     21  C   UNL     1       6.741   4.636  17.269  0.00  0.00    +0.000 A 
BRANCH  16  23
ATOM     22  O   UNL     1       8.178   6.739  18.742  0.00  0.00    +0.000 OA
ATOM     23  N   UNL     1       7.678   5.737  19.268  0.00  0.00    +0.000 N 
ATOM     24  O   UNL     1       7.985   5.269  20.372  0.00  0.00    +0.000 OA
ENDBRANCH  16  23
BRANCH  21  25
ATOM     25  O   UNL     1       7.954   4.697  16.651  0.00  0.00    +0.000 OA
ATOM     26  H   UNL     1       8.014   4.013  15.961  0.00  0.00    +0.000 HD
ENDBRANCH  21  25
ENDBRANCH   1  18
TORSDOF 5
ENDMDL
MODEL 3
REMARK VINA RESULT:      -7.5      4.437      8.605
REMARK  Name = 
REMARK  5 active torsions:
REMARK  status: ('A' for Active; 'I' for Inactive)
REMARK    1  A    between atoms: N_2  and  C_4
REMARK    2  A    between atoms: C_6  and  C_7
REMARK    3  A    between atoms: N_8  and  N_9
REMARK    4  A    between atoms: C_12  and  C_13
REMARK    5  A    between atoms: C_23  and  O_24
REMARK                            x       y       z     vdW  Elec       q    Type
REMARK                         _______ _______ _______ _____ _____    ______ ____
ROOT
ATOM      1  C   UNL     1       0.596   9.196  21.334  0.00  0.00    +0.000 C 
ATOM      2  N   UNL     1       1.257   8.097  21.118  0.00  0.00    +0.000 NA
ENDROOT
BRANCH   2   3
ATOM      3  N   UNL     1       1.826   7.886  19.894  0.00  0.00    +0.000 N 
ATOM      4  C   UNL     1       2.493   6.726  19.612  0.00  0.00    +0.000 A 
ATOM      5  N   UNL     1       3.478   6.641  18.739  0.00  0.00    +0.000 NA
ATOM      6  C   UNL     1       3.922   5.325  18.638  0.00  0.00    +0.000 A 
ATOM      7  C   UNL     1       3.257   4.426  19.448  0.00  0.00    +0.000 A 
ATOM      8  S   UNL     1       2.051   5.225  20.350  0.00  0.00    +0.000 S 
ATOM      9  H   UNL     1       2.277   8.698  19.475  0.00  0.00    +0.000 HD
BRANCH   6  10
ATOM     10  C   UNL     1       4.999   4.928  17.736  0.00  0.00    +0.000 A 
ATOM     11  C   UNL     1       4.712   4.429  16.459  0.00  0.00    +0.000 A 
ATOM     12  C   UNL     1       5.748   4.052  15.596  0.00  0.00    +0.000 A 
ATOM     13  C   UNL     1       7.077   4.165  16.005  0.00  0.00    +0.000 A 
ATOM     14  C   UNL     1       7.374   4.662  17.269  0.00  0.00    +0.000 A 
ATOM     15  C   UNL     1       6.342   5.041  18.130  0.00  0.00    +0.000 A 
ENDBRANCH   6  10
ENDBRANCH   2   3
BRANCH   1  18
ATOM     16  C   UNL     1      -1.157  11.036  18.588  0.00  0.00    +0.000 A 
ATOM     17  C   UNL     1      -0.806  10.039  19.507  0.00  0.00    +0.000 A 
ATOM     18  C   UNL     1       0.228  10.289  20.412  0.00  0.00    +0.000 A 
ATOM     19  C   UNL     1       0.925  11.502  20.357  0.00  0.00    +0.000 A 
ATOM     20  C   UNL     1       0.552  12.495  19.441  0.00  0.00    +0.000 A 
ATOM     21  C   UNL     1      -0.500  12.265  18.554  0.00  0.00    +0.000 A 
BRANCH  16  23
ATOM     22  O   UNL     1      -2.030   9.744  16.916  0.00  0.00    +0.000 OA
ATOM     23  N   UNL     1      -2.203  10.738  17.631  0.00  0.00    +0.000 N 
ATOM     24  O   UNL     1      -3.219  11.443  17.656  0.00  0.00    +0.000 OA
ENDBRANCH  16  23
BRANCH  21  25
ATOM     25  O   UNL     1      -0.850  13.222  17.649  0.00  0.00    +0.000 OA
ATOM     26  H   UNL     1      -0.705  12.897  16.744  0.00  0.00    +0.000 HD
ENDBRANCH  21  25
ENDBRANCH   1  18
TORSDOF 5
ENDMDL
MODEL 4
REMARK VINA RESULT:      -7.4      3.685      4.864
REMARK  Name = 
REMARK  5 active torsions:
REMARK  status: ('A' for Active; 'I' for Inactive)
REMARK    1  A    between atoms: N_2  and  C_4
REMARK    2  A    between atoms: C_6  and  C_7
REMARK    3  A    between atoms: N_8  and  N_9
REMARK    4  A    between atoms: C_12  and  C_13
REMARK    5  A    between atoms: C_23  and  O_24
REMARK                            x       y       z     vdW  Elec       q    Type
REMARK                         _______ _______ _______ _____ _____    ______ ____
ROOT
ATOM      1  C   UNL     1       3.088   4.532  19.692  0.00  0.00    +0.000 C 
ATOM      2  N   UNL     1       2.371   5.517  20.148  0.00  0.00    +0.000 NA
ENDROOT
BRANCH   2   3
ATOM      3  N   UNL     1       2.616   6.786  19.706  0.00  0.00    +0.000 N 
ATOM      4  C   UNL     1       1.793   7.825  20.041  0.00  0.00    +0.000 A 
ATOM      5  N   UNL     1       1.619   8.894  19.288  0.00  0.00    +0.000 NA
ATOM      6  C   UNL     1       0.762   9.794  19.916  0.00  0.00    +0.000 A 
ATOM      7  C   UNL     1       0.295   9.384  21.149  0.00  0.00    +0.000 A 
ATOM      8  S   UNL     1       0.936   7.854  21.544  0.00  0.00    +0.000 S 
ATOM      9  H   UNL     1       2.952   6.858  18.746  0.00  0.00    +0.000 HD
BRANCH   6  10
ATOM     10  C   UNL     1       0.396  11.075  19.319  0.00  0.00    +0.000 A 
ATOM     11  C   UNL     1      -0.868  11.258  18.744  0.00  0.00    +0.000 A 
ATOM     12  C   UNL     1      -1.216  12.488  18.175  0.00  0.00    +0.000 A 
ATOM     13  C   UNL     1      -0.303  13.543  18.171  0.00  0.00    +0.000 A 
ATOM     14  C   UNL     1       0.954  13.374  18.741  0.00  0.00    +0.000 A 
ATOM     15  C   UNL     1       1.302  12.148  19.312  0.00  0.00    +0.000 A 
ENDBRANCH   6  10
ENDBRANCH   2   3
BRANCH   1  18
ATOM     16  C   UNL     1       6.571   5.166  18.481  0.00  0.00    +0.000 A 
ATOM     17  C   UNL     1       5.441   5.105  19.307  0.00  0.00    +0.000 A 
ATOM     18  C   UNL     1       4.268   4.538  18.805  0.00  0.00    +0.000 A 
ATOM     19  C   UNL     1       4.222   4.086  17.480  0.00  0.00    +0.000 A 
ATOM     20  C   UNL     1       5.365   4.142  16.671  0.00  0.00    +0.000 A 
ATOM     21  C   UNL     1       6.550   4.679  17.175  0.00  0.00    +0.000 A 
BRANCH  16  23
ATOM     22  O   UNL     1       8.398   5.159  19.855  0.00  0.00    +0.000 OA
ATOM     23  N   UNL     1       7.762   5.798  19.008  0.00  0.00    +0.000 N 
ATOM     24  O   UNL     1       8.098   6.884  18.519  0.00  0.00    +0.000 OA
ENDBRANCH  16  23
BRANCH  21  25
ATOM     25  O   UNL     1       7.655   4.752  16.381  0.00  0.00    +0.000 OA
ATOM     26  H   UNL     1       7.945   3.859  16.125  0.00  0.00    +0.000 HD
ENDBRANCH  21  25
ENDBRANCH   1  18
TORSDOF 5
ENDMDL
MODEL 5
REMARK VINA RESULT:      -7.4      0.933      1.308
REMARK  Name = 
REMARK  5 active torsions:
REMARK  status: ('A' for Active; 'I' for Inactive)
REMARK    1  A    between atoms: N_2  and  C_4
REMARK    2  A    between atoms: C_6  and  C_7
REMARK    3  A    between atoms: N_8  and  N_9
REMARK    4  A    between atoms: C_12  and  C_13
REMARK    5  A    between atoms: C_23  and  O_24
REMARK                            x       y       z     vdW  Elec       q    Type
REMARK                         _______ _______ _______ _____ _____    ______ ____
ROOT
ATOM      1  C   UNL     1       2.978   7.347  17.770  0.00  0.00    +0.000 C 
ATOM      2  N   UNL     1       2.463   8.502  17.463  0.00  0.00    +0.000 NA
ENDROOT
BRANCH   2   3
ATOM      3  N   UNL     1       1.329   8.921  18.098  0.00  0.00    +0.000 N 
ATOM      4  C   UNL     1       1.278  10.130  18.735  0.00  0.00    +0.000 A 
ATOM      5  N   UNL     1       0.498  10.382  19.769  0.00  0.00    +0.000 NA
ATOM      6  C   UNL     1       0.635  11.709  20.166  0.00  0.00    +0.000 A 
ATOM      7  C   UNL     1       1.528  12.449  19.417  0.00  0.00    +0.000 A 
ATOM      8  S   UNL     1       2.210  11.481  18.189  0.00  0.00    +0.000 S 
ATOM      9  H   UNL     1       0.820   8.199  18.607  0.00  0.00    +0.000 HD
BRANCH   6  10
ATOM     10  C   UNL     1      -0.118  12.275  21.281  0.00  0.00    +0.000 A 
ATOM     11  C   UNL     1      -1.057  11.500  21.973  0.00  0.00    +0.000 A 
ATOM     12  C   UNL     1      -1.775  12.045  23.044  0.00  0.00    +0.000 A 
ATOM     13  C   UNL     1      -1.566  13.370  23.427  0.00  0.00    +0.000 A 
ATOM     14  C   UNL     1      -0.634  14.148  22.749  0.00  0.00    +0.000 A 
ATOM     15  C   UNL     1       0.086  13.605  21.683  0.00  0.00    +0.000 A 
ENDBRANCH   6  10
ENDBRANCH   2   3
BRANCH   1  18
ATOM     16  C   UNL     1       1.694   4.016  18.889  0.00  0.00    +0.000 A 
ATOM     17  C   UNL     1       2.209   5.040  18.084  0.00  0.00    +0.000 A 
ATOM     18  C   UNL     1       2.477   6.282  18.662  0.00  0.00    +0.000 A 
ATOM     19  C   UNL     1       2.184   6.502  20.013  0.00  0.00    +0.000 A 
ATOM     20  C   UNL     1       1.682   5.462  20.809  0.00  0.00    +0.000 A 
ATOM     21  C   UNL     1       1.441   4.208  20.246  0.00  0.00    +0.000 A 
BRANCH  16  23
ATOM     22  O   UNL     1       2.302   2.201  17.638  0.00  0.00    +0.000 OA
ATOM     23  N   UNL     1       1.383   2.750  18.258  0.00  0.00    +0.000 N 
ATOM     24  O   UNL     1       0.257   2.275  18.452  0.00  0.00    +0.000 OA
ENDBRANCH  16  23
BRANCH  21  25
ATOM     25  O   UNL     1       0.933   3.204  21.014  0.00  0.00    +0.000 OA
ATOM     26  H   UNL     1       0.333   2.648  20.486  0.00  0.00    +0.000 HD
ENDBRANCH  21  25
ENDBRANCH   1  18
TORSDOF 5
ENDMDL
MODEL 6
REMARK VINA RESULT:      -7.4      0.938      1.040
REMARK  Name = 
REMARK  5 active torsions:
REMARK  status: ('A' for Active; 'I' for Inactive)
REMARK    1  A    between atoms: N_2  and  C_4
REMARK    2  A    between atoms: C_6  and  C_7
REMARK    3  A    between atoms: N_8  and  N_9
REMARK    4  A    between atoms: C_12  and  C_13
REMARK    5  A    between atoms: C_23  and  O_24
REMARK                            x       y       z     vdW  Elec       q    Type
REMARK                         _______ _______ _______ _____ _____    ______ ____
ROOT
ATOM      1  C   UNL     1       2.956   7.379  17.720  0.00  0.00    +0.000 C 
ATOM      2  N   UNL     1       2.437   8.532  17.415  0.00  0.00    +0.000 NA
ENDROOT
BRANCH   2   3
ATOM      3  N   UNL     1       1.309   8.953  18.061  0.00  0.00    +0.000 N 
ATOM      4  C   UNL     1       1.267  10.159  18.703  0.00  0.00    +0.000 A 
ATOM      5  N   UNL     1       0.496  10.409  19.744  0.00  0.00    +0.000 NA
ATOM      6  C   UNL     1       0.640  11.734  20.146  0.00  0.00    +0.000 A 
ATOM      7  C   UNL     1       1.531  12.474  19.393  0.00  0.00    +0.000 A 
ATOM      8  S   UNL     1       2.200  11.509  18.156  0.00  0.00    +0.000 S 
ATOM      9  H   UNL     1       0.801   8.230  18.570  0.00  0.00    +0.000 HD
BRANCH   6  10
ATOM     10  C   UNL     1      -0.102  12.297  21.269  0.00  0.00    +0.000 A 
ATOM     11  C   UNL     1       0.096  13.628  21.659  0.00  0.00    +0.000 A 
ATOM     12  C   UNL     1      -0.620  14.165  22.735  0.00  0.00    +0.000 A 
ATOM     13  C   UNL     1      -1.534  13.376  23.433  0.00  0.00    +0.000 A 
ATOM     14  C   UNL     1      -1.741  12.055  23.054  0.00  0.00    +0.000 A 
ATOM     15  C   UNL     1      -1.030  11.517  21.979  0.00  0.00    +0.000 A 
ENDBRANCH   6  10
ENDBRANCH   2   3
BRANCH   1  18
ATOM     16  C   UNL     1       1.675   4.054  18.861  0.00  0.00    +0.000 A 
ATOM     17  C   UNL     1       2.181   5.076  18.047  0.00  0.00    +0.000 A 
ATOM     18  C   UNL     1       2.465   6.317  18.620  0.00  0.00    +0.000 A 
ATOM     19  C   UNL     1       2.197   6.537  19.977  0.00  0.00    +0.000 A 
ATOM     20  C   UNL     1       1.703   5.500  20.781  0.00  0.00    +0.000 A 
ATOM     21  C   UNL     1       1.446   4.248  20.222  0.00  0.00    +0.000 A 
BRANCH  16  23
ATOM     22  O   UNL     1       0.225   2.328  18.477  0.00  0.00    +0.000 OA
ATOM     23  N   UNL     1       1.347   2.790  18.235  0.00  0.00    +0.000 N 
ATOM     24  O   UNL     1       2.173   2.310  17.447  0.00  0.00    +0.000 OA
ENDBRANCH  16  23
BRANCH  21  25
ATOM     25  O   UNL     1       0.946   3.246  20.998  0.00  0.00    +0.000 OA
ATOM     26  H   UNL     1       1.313   3.302  21.898  0.00  0.00    +0.000 HD
ENDBRANCH  21  25
ENDBRANCH   1  18
TORSDOF 5
ENDMDL
MODEL 7
REMARK VINA RESULT:      -7.3      3.651      5.025
REMARK  Name = 
REMARK  5 active torsions:
REMARK  status: ('A' for Active; 'I' for Inactive)
REMARK    1  A    between atoms: N_2  and  C_4
REMARK    2  A    between atoms: C_6  and  C_7
REMARK    3  A    between atoms: N_8  and  N_9
REMARK    4  A    between atoms: C_12  and  C_13
REMARK    5  A    between atoms: C_23  and  O_24
REMARK                            x       y       z     vdW  Elec       q    Type
REMARK                         _______ _______ _______ _____ _____    ______ ____
ROOT
ATOM      1  C   UNL     1       3.222   4.680  18.577  0.00  0.00    +0.000 C 
ATOM      2  N   UNL     1       2.465   5.591  19.113  0.00  0.00    +0.000 NA
ENDROOT
BRANCH   2   3
ATOM      3  N   UNL     1       2.648   6.902  18.773  0.00  0.00    +0.000 N 
ATOM      4  C   UNL     1       1.936   7.899  19.380  0.00  0.00    +0.000 A 
ATOM      5  N   UNL     1       1.641   9.046  18.801  0.00  0.00    +0.000 NA
ATOM      6  C   UNL     1       0.952   9.872  19.686  0.00  0.00    +0.000 A 
ATOM      7  C   UNL     1       0.733   9.327  20.935  0.00  0.00    +0.000 A 
ATOM      8  S   UNL     1       1.402   7.760  21.020  0.00  0.00    +0.000 S 
ATOM      9  H   UNL     1       2.785   7.081  17.779  0.00  0.00    +0.000 HD
BRANCH   6  10
ATOM     10  C   UNL     1       0.507  11.213  19.321  0.00  0.00    +0.000 A 
ATOM     11  C   UNL     1      -0.830  11.592  19.496  0.00  0.00    +0.000 A 
ATOM     12  C   UNL     1      -1.253  12.880  19.147  0.00  0.00    +0.000 A 
ATOM     13  C   UNL     1      -0.346  13.796  18.615  0.00  0.00    +0.000 A 
ATOM     14  C   UNL     1       0.984  13.432  18.438  0.00  0.00    +0.000 A 
ATOM     15  C   UNL     1       1.409  12.149  18.788  0.00  0.00    +0.000 A 
ENDBRANCH   6  10
ENDBRANCH   2   3
BRANCH   1  18
ATOM     16  C   UNL     1       6.520   5.857  17.258  0.00  0.00    +0.000 A 
ATOM     17  C   UNL     1       5.411   5.675  18.095  0.00  0.00    +0.000 A 
ATOM     18  C   UNL     1       4.393   4.811  17.686  0.00  0.00    +0.000 A 
ATOM     19  C   UNL     1       4.469   4.182  16.438  0.00  0.00    +0.000 A 
ATOM     20  C   UNL     1       5.592   4.364  15.619  0.00  0.00    +0.000 A 
ATOM     21  C   UNL     1       6.628   5.202  16.033  0.00  0.00    +0.000 A 
BRANCH  16  23
ATOM     22  O   UNL     1       7.743   7.763  16.944  0.00  0.00    +0.000 OA
ATOM     23  N   UNL     1       7.541   6.792  17.682  0.00  0.00    +0.000 N 
ATOM     24  O   UNL     1       8.075   6.596  18.782  0.00  0.00    +0.000 OA
ENDBRANCH  16  23
BRANCH  21  25
ATOM     25  O   UNL     1       7.710   5.396  15.228  0.00  0.00    +0.000 OA
ATOM     26  H   UNL     1       8.193   6.196  15.500  0.00  0.00    +0.000 HD
ENDBRANCH  21  25
ENDBRANCH   1  18
TORSDOF 5
ENDMDL
MODEL 8
REMARK VINA RESULT:      -7.3      1.566      2.234
REMARK  Name = 
REMARK  5 active torsions:
REMARK  status: ('A' for Active; 'I' for Inactive)
REMARK    1  A    between atoms: N_2  and  C_4
REMARK    2  A    between atoms: C_6  and  C_7
REMARK    3  A    between atoms: N_8  and  N_9
REMARK    4  A    between atoms: C_12  and  C_13
REMARK    5  A    between atoms: C_23  and  O_24
REMARK                            x       y       z     vdW  Elec       q    Type
REMARK                         _______ _______ _______ _____ _____    ______ ____
ROOT
ATOM      1  C   UNL     1       3.605   6.596  17.947  0.00  0.00    +0.000 C 
ATOM      2  N   UNL     1       3.092   7.791  17.976  0.00  0.00    +0.000 NA
ENDROOT
BRANCH   2   3
ATOM      3  N   UNL     1       1.843   7.973  18.498  0.00  0.00    +0.000 N 
ATOM      4  C   UNL     1       1.407   9.210  18.883  0.00  0.00    +0.000 A 
ATOM      5  N   UNL     1       0.515   9.410  19.834  0.00  0.00    +0.000 NA
ATOM      6  C   UNL     1       0.243  10.769  19.963  0.00  0.00    +0.000 A 
ATOM      7  C   UNL     1       0.945  11.586  19.098  0.00  0.00    +0.000 A 
ATOM      8  S   UNL     1       1.958  10.649  18.096  0.00  0.00    +0.000 S 
ATOM      9  H   UNL     1       1.522   7.240  19.130  0.00  0.00    +0.000 HD
BRANCH   6  10
ATOM     10  C   UNL     1      -0.717  11.287  20.933  0.00  0.00    +0.000 A 
ATOM     11  C   UNL     1      -0.628  10.931  22.285  0.00  0.00    +0.000 A 
ATOM     12  C   UNL     1      -1.550  11.432  23.212  0.00  0.00    +0.000 A 
ATOM     13  C   UNL     1      -2.571  12.286  22.795  0.00  0.00    +0.000 A 
ATOM     14  C   UNL     1      -2.668  12.649  21.456  0.00  0.00    +0.000 A 
ATOM     15  C   UNL     1      -1.748  12.153  20.530  0.00  0.00    +0.000 A 
ENDBRANCH   6  10
ENDBRANCH   2   3
BRANCH   1  18
ATOM     16  C   UNL     1       3.153   3.277  19.614  0.00  0.00    +0.000 A 
ATOM     17  C   UNL     1       3.661   4.539  19.281  0.00  0.00    +0.000 A 
ATOM     18  C   UNL     1       3.012   5.291  18.300  0.00  0.00    +0.000 A 
ATOM     19  C   UNL     1       1.901   4.759  17.634  0.00  0.00    +0.000 A 
ATOM     20  C   UNL     1       1.395   3.501  17.989  0.00  0.00    +0.000 A 
ATOM     21  C   UNL     1       2.020   2.756  18.990  0.00  0.00    +0.000 A 
BRANCH  16  23
ATOM     22  O   UNL     1       3.280   2.282  21.669  0.00  0.00    +0.000 OA
ATOM     23  N   UNL     1       3.868   2.498  20.603  0.00  0.00    +0.000 N 
ATOM     24  O   UNL     1       4.973   2.041  20.281  0.00  0.00    +0.000 OA
ENDBRANCH  16  23
BRANCH  21  25
ATOM     25  O   UNL     1       1.542   1.524  19.321  0.00  0.00    +0.000 OA
ATOM     26  H   UNL     1       0.663   1.387  18.927  0.00  0.00    +0.000 HD
ENDBRANCH  21  25
ENDBRANCH   1  18
TORSDOF 5
ENDMDL
MODEL 9
REMARK VINA RESULT:      -7.3      4.449      8.582
REMARK  Name = 
REMARK  5 active torsions:
REMARK  status: ('A' for Active; 'I' for Inactive)
REMARK    1  A    between atoms: N_2  and  C_4
REMARK    2  A    between atoms: C_6  and  C_7
REMARK    3  A    between atoms: N_8  and  N_9
REMARK    4  A    between atoms: C_12  and  C_13
REMARK    5  A    between atoms: C_23  and  O_24
REMARK                            x       y       z     vdW  Elec       q    Type
REMARK                         _______ _______ _______ _____ _____    ______ ____
ROOT
ATOM      1  C   UNL     1       0.345   9.159  21.324  0.00  0.00    +0.000 C 
ATOM      2  N   UNL     1       1.073   8.093  21.163  0.00  0.00    +0.000 NA
ENDROOT
BRANCH   2   3
ATOM      3  N   UNL     1       1.727   7.900  19.979  0.00  0.00    +0.000 N 
ATOM      4  C   UNL     1       2.431   6.753  19.736  0.00  0.00    +0.000 A 
ATOM      5  N   UNL     1       3.475   6.690  18.932  0.00  0.00    +0.000 NA
ATOM      6  C   UNL     1       3.947   5.383  18.854  0.00  0.00    +0.000 A 
ATOM      7  C   UNL     1       3.245   4.467  19.612  0.00  0.00    +0.000 A 
ATOM      8  S   UNL     1       1.966   5.240  20.434  0.00  0.00    +0.000 S 
ATOM      9  H   UNL     1       2.192   8.723  19.596  0.00  0.00    +0.000 HD
BRANCH   6  10
ATOM     10  C   UNL     1       5.089   5.011  18.025  0.00  0.00    +0.000 A 
ATOM     11  C   UNL     1       6.395   5.125  18.519  0.00  0.00    +0.000 A 
ATOM     12  C   UNL     1       7.488   4.765  17.722  0.00  0.00    +0.000 A 
ATOM     13  C   UNL     1       7.286   4.294  16.425  0.00  0.00    +0.000 A 
ATOM     14  C   UNL     1       5.994   4.173  15.925  0.00  0.00    +0.000 A 
ATOM     15  C   UNL     1       4.902   4.529  16.719  0.00  0.00    +0.000 A 
ENDBRANCH   6  10
ENDBRANCH   2   3
BRANCH   1  18
ATOM     16  C   UNL     1      -1.370  10.901  18.492  0.00  0.00    +0.000 A 
ATOM     17  C   UNL     1      -1.024   9.932  19.442  0.00  0.00    +0.000 A 
ATOM     18  C   UNL     1      -0.019  10.223  20.367  0.00  0.00    +0.000 A 
ATOM     19  C   UNL     1       0.656  11.448  20.303  0.00  0.00    +0.000 A 
ATOM     20  C   UNL     1       0.289  12.412  19.355  0.00  0.00    +0.000 A 
ATOM     21  C   UNL     1      -0.735  12.142  18.446  0.00  0.00    +0.000 A 
BRANCH  16  23
ATOM     22  O   UNL     1      -3.414  10.033  17.949  0.00  0.00    +0.000 OA
ATOM     23  N   UNL     1      -2.383  10.560  17.515  0.00  0.00    +0.000 N 
ATOM     24  O   UNL     1      -2.180  10.893  16.340  0.00  0.00    +0.000 OA
ENDBRANCH  16  23
BRANCH  21  25
ATOM     25  O   UNL     1      -1.079  13.071  17.511  0.00  0.00    +0.000 OA
ATOM     26  H   UNL     1      -1.093  12.667  16.625  0.00  0.00    +0.000 HD
ENDBRANCH  21  25
ENDBRANCH   1  18
TORSDOF 5
ENDMDL
