MODEL 1
REMARK VINA RESULT:      -8.3      0.000      0.000
REMARK  Name = 
REMARK  8 active torsions:
REMARK  status: ('A' for Active; 'I' for Inactive)
REMARK    1  A    between atoms: C_1  and  O_2
REMARK    2  A    between atoms: O_2  and  C_3
REMARK    3  A    between atoms: C_6  and  C_7
REMARK    4  A    between atoms: C_7  and  N_8
REMARK    5  A    between atoms: N_11  and  C_12
REMARK    6  A    between atoms: N_15  and  C_16
REMARK    7  A    between atoms: C_16  and  C_17
REMARK    8  A    between atoms: C_17  and  N_18
REMARK                            x       y       z     vdW  Elec       q    Type
REMARK                         _______ _______ _______ _____ _____    ______ ____
ROOT
ATOM      1  C   UNL     1      -0.157  10.045  20.300  0.00  0.00    +0.000 C 
ATOM      2  C   UNL     1       0.578   8.771  20.722  0.00  0.00    +0.000 C 
ATOM      3  C   UNL     1       1.797   8.454  19.846  0.00  0.00    +0.000 C 
ATOM      4  N   UNL     1       1.497   8.499  18.402  0.00  0.00    +0.000 NA
ATOM      5  C   UNL     1       0.931   9.806  18.039  0.00  0.00    +0.000 C 
ATOM      6  C   UNL     1      -0.383  10.010  18.784  0.00  0.00    +0.000 C 
ENDROOT
BRANCH   1  10
ATOM      7  N   UNL     1      -1.046  11.983  22.237  0.00  0.00    +0.000 N 
ATOM      8  C   UNL     1       0.145  12.212  21.614  0.00  0.00    +0.000 C 
ATOM      9  O   UNL     1       0.814  13.226  21.774  0.00  0.00    +0.000 OA
ATOM     10  N   UNL     1       0.547  11.251  20.744  0.00  0.00    +0.000 N 
ATOM     11  H   UNL     1      -1.263  11.019  22.426  0.00  0.00    +0.000 HD
ATOM     12  H   UNL     1       1.455  11.460  20.341  0.00  0.00    +0.000 HD
BRANCH   7  13
ATOM     13  C   UNL     1      -1.600  12.961  23.141  0.00  0.00    +0.000 C 
BRANCH  13  17
ATOM     14  C   UNL     1      -5.920  12.778  23.336  0.00  0.00    +0.000 A 
ATOM     15  C   UNL     1      -5.148  12.623  24.486  0.00  0.00    +0.000 A 
ATOM     16  C   UNL     1      -3.752  12.678  24.418  0.00  0.00    +0.000 A 
ATOM     17  C   UNL     1      -3.105  12.878  23.192  0.00  0.00    +0.000 A 
ATOM     18  C   UNL     1      -3.887  13.003  22.034  0.00  0.00    +0.000 A 
ATOM     19  C   UNL     1      -5.287  12.955  22.106  0.00  0.00    +0.000 A 
BRANCH  14  21
ATOM     20  C   UNL     1      -7.857  13.762  24.278  0.00  0.00    +0.000 C 
ATOM     21  O   UNL     1      -7.273  12.695  23.535  0.00  0.00    +0.000 OA
ENDBRANCH  14  21
ENDBRANCH  13  17
ENDBRANCH   7  13
ENDBRANCH   1  10
BRANCH   4  22
ATOM     22  C   UNL     1       2.701   8.229  17.585  0.00  0.00    +0.000 C 
BRANCH  22  23
ATOM     23  C   UNL     1       3.675   7.269  18.288  0.00  0.00    +0.000 C 
BRANCH  23  24
ATOM     24  N   UNL     1       3.874   6.008  17.579  0.00  0.00    +0.000 N 
ATOM     25  C   UNL     1       4.857   5.983  16.591  0.00  0.00    +0.000 A 
ATOM     26  O   UNL     1       5.443   6.981  16.175  0.00  0.00    +0.000 OA
ATOM     27  C   UNL     1       5.233   4.657  16.045  0.00  0.00    +0.000 A 
ATOM     28  C   UNL     1       4.629   3.534  16.447  0.00  0.00    +0.000 A 
ATOM     29  C   UNL     1       3.536   3.594  17.405  0.00  0.00    +0.000 A 
ATOM     30  N   UNL     1       2.950   2.410  17.704  0.00  0.00    +0.000 NA
ATOM     31  C   UNL     1       1.914   2.459  18.573  0.00  0.00    +0.000 A 
ATOM     32  C   UNL     1       1.447   3.633  19.135  0.00  0.00    +0.000 A 
ATOM     33  F   UNL     1       0.398   3.616  19.968  0.00  0.00    +0.000 F 
ATOM     34  C   UNL     1       2.071   4.835  18.826  0.00  0.00    +0.000 A 
ATOM     35  C   UNL     1       3.155   4.832  17.947  0.00  0.00    +0.000 A 
ENDBRANCH  23  24
ENDBRANCH  22  23
ENDBRANCH   4  22
TORSDOF 7
ENDMDL
MODEL 2
REMARK VINA RESULT:      -7.9      4.052     10.252
REMARK  Name = 
REMARK  8 active torsions:
REMARK  status: ('A' for Active; 'I' for Inactive)
REMARK    1  A    between atoms: C_1  and  O_2
REMARK    2  A    between atoms: O_2  and  C_3
REMARK    3  A    between atoms: C_6  and  C_7
REMARK    4  A    between atoms: C_7  and  N_8
REMARK    5  A    between atoms: N_11  and  C_12
REMARK    6  A    between atoms: N_15  and  C_16
REMARK    7  A    between atoms: C_16  and  C_17
REMARK    8  A    between atoms: C_17  and  N_18
REMARK                            x       y       z     vdW  Elec       q    Type
REMARK                         _______ _______ _______ _____ _____    ______ ____
ROOT
ATOM      1  C   UNL     1       3.370   2.621  17.953  0.00  0.00    +0.000 C 
ATOM      2  C   UNL     1       1.889   2.461  18.304  0.00  0.00    +0.000 C 
ATOM      3  C   UNL     1       1.270   3.724  18.917  0.00  0.00    +0.000 C 
ATOM      4  N   UNL     1       2.073   4.282  20.023  0.00  0.00    +0.000 NA
ATOM      5  C   UNL     1       3.445   4.551  19.572  0.00  0.00    +0.000 C 
ATOM      6  C   UNL     1       4.101   3.242  19.149  0.00  0.00    +0.000 C 
ENDROOT
BRANCH   1  10
ATOM      7  N   UNL     1       5.847   3.574  16.831  0.00  0.00    +0.000 N 
ATOM      8  C   UNL     1       4.693   3.888  16.177  0.00  0.00    +0.000 C 
ATOM      9  O   UNL     1       4.646   4.613  15.189  0.00  0.00    +0.000 OA
ATOM     10  N   UNL     1       3.555   3.381  16.713  0.00  0.00    +0.000 N 
ATOM     11  H   UNL     1       5.866   2.671  17.275  0.00  0.00    +0.000 HD
ATOM     12  H   UNL     1       2.736   3.619  16.162  0.00  0.00    +0.000 HD
BRANCH   7  13
ATOM     13  C   UNL     1       7.111   4.102  16.383  0.00  0.00    +0.000 C 
BRANCH  13  17
ATOM     14  C   UNL     1       8.117   7.727  18.523  0.00  0.00    +0.000 A 
ATOM     15  C   UNL     1       7.718   7.775  17.188  0.00  0.00    +0.000 A 
ATOM     16  C   UNL     1       7.398   6.601  16.499  0.00  0.00    +0.000 A 
ATOM     17  C   UNL     1       7.485   5.356  17.134  0.00  0.00    +0.000 A 
ATOM     18  C   UNL     1       7.916   5.312  18.468  0.00  0.00    +0.000 A 
ATOM     19  C   UNL     1       8.228   6.492  19.159  0.00  0.00    +0.000 A 
BRANCH  14  21
ATOM     20  C   UNL     1       8.711   9.991  18.161  0.00  0.00    +0.000 C 
ATOM     21  O   UNL     1       8.410   8.944  19.080  0.00  0.00    +0.000 OA
ENDBRANCH  14  21
ENDBRANCH  13  17
ENDBRANCH   7  13
ENDBRANCH   1  10
BRANCH   4  22
ATOM     22  C   UNL     1       1.470   5.521  20.564  0.00  0.00    +0.000 C 
BRANCH  22  23
ATOM     23  C   UNL     1       2.450   6.706  20.525  0.00  0.00    +0.000 C 
BRANCH  23  24
ATOM     24  N   UNL     1       1.902   7.902  19.892  0.00  0.00    +0.000 N 
ATOM     25  C   UNL     1       2.145   8.069  18.529  0.00  0.00    +0.000 A 
ATOM     26  O   UNL     1       2.914   7.368  17.875  0.00  0.00    +0.000 OA
ATOM     27  C   UNL     1       1.391   9.140  17.834  0.00  0.00    +0.000 A 
ATOM     28  C   UNL     1       0.546   9.942  18.488  0.00  0.00    +0.000 A 
ATOM     29  C   UNL     1       0.384   9.818  19.928  0.00  0.00    +0.000 A 
ATOM     30  N   UNL     1      -0.450  10.715  20.507  0.00  0.00    +0.000 NA
ATOM     31  C   UNL     1      -0.585  10.624  21.850  0.00  0.00    +0.000 A 
ATOM     32  C   UNL     1       0.080   9.688  22.621  0.00  0.00    +0.000 A 
ATOM     33  F   UNL     1      -0.077   9.670  23.951  0.00  0.00    +0.000 F 
ATOM     34  C   UNL     1       0.920   8.768  22.006  0.00  0.00    +0.000 A 
ATOM     35  C   UNL     1       1.078   8.812  20.620  0.00  0.00    +0.000 A 
ENDBRANCH  23  24
ENDBRANCH  22  23
ENDBRANCH   4  22
TORSDOF 7
ENDMDL
MODEL 3
REMARK VINA RESULT:      -7.9      3.345     11.257
REMARK  Name = 
REMARK  8 active torsions:
REMARK  status: ('A' for Active; 'I' for Inactive)
REMARK    1  A    between atoms: C_1  and  O_2
REMARK    2  A    between atoms: O_2  and  C_3
REMARK    3  A    between atoms: C_6  and  C_7
REMARK    4  A    between atoms: C_7  and  N_8
REMARK    5  A    between atoms: N_11  and  C_12
REMARK    6  A    between atoms: N_15  and  C_16
REMARK    7  A    between atoms: C_16  and  C_17
REMARK    8  A    between atoms: C_17  and  N_18
REMARK                            x       y       z     vdW  Elec       q    Type
REMARK                         _______ _______ _______ _____ _____    ______ ____
ROOT
ATOM      1  C   UNL     1       2.994   4.838  19.127  0.00  0.00    +0.000 C 
ATOM      2  C   UNL     1       2.715   6.069  18.261  0.00  0.00    +0.000 C 
ATOM      3  C   UNL     1       2.489   7.347  19.078  0.00  0.00    +0.000 C 
ATOM      4  N   UNL     1       1.511   7.170  20.169  0.00  0.00    +0.000 NA
ATOM      5  C   UNL     1       1.921   6.067  21.048  0.00  0.00    +0.000 C 
ATOM      6  C   UNL     1       1.950   4.770  20.247  0.00  0.00    +0.000 C 
ENDROOT
BRANCH   1  10
ATOM      7  N   UNL     1       5.388   5.568  17.698  0.00  0.00    +0.000 N 
ATOM      8  C   UNL     1       5.526   5.115  18.976  0.00  0.00    +0.000 C 
ATOM      9  O   UNL     1       6.609   4.930  19.520  0.00  0.00    +0.000 OA
ATOM     10  N   UNL     1       4.371   4.827  19.628  0.00  0.00    +0.000 N 
ATOM     11  H   UNL     1       4.563   6.116  17.515  0.00  0.00    +0.000 HD
ATOM     12  H   UNL     1       4.538   4.531  20.584  0.00  0.00    +0.000 HD
BRANCH   7  13
ATOM     13  C   UNL     1       6.547   5.853  16.891  0.00  0.00    +0.000 C 
BRANCH  13  17
ATOM     14  C   UNL     1       6.287   3.881  13.048  0.00  0.00    +0.000 A 
ATOM     15  C   UNL     1       5.318   3.665  14.026  0.00  0.00    +0.000 A 
ATOM     16  C   UNL     1       5.408   4.301  15.268  0.00  0.00    +0.000 A 
ATOM     17  C   UNL     1       6.479   5.155  15.555  0.00  0.00    +0.000 A 
ATOM     18  C   UNL     1       7.467   5.344  14.577  0.00  0.00    +0.000 A 
ATOM     19  C   UNL     1       7.370   4.712  13.329  0.00  0.00    +0.000 A 
BRANCH  14  21
ATOM     20  C   UNL     1       4.728   2.989  11.504  0.00  0.00    +0.000 C 
ATOM     21  O   UNL     1       6.088   3.193  11.879  0.00  0.00    +0.000 OA
ENDBRANCH  14  21
ENDBRANCH  13  17
ENDBRANCH   7  13
ENDBRANCH   1  10
BRANCH   4  22
ATOM     22  C   UNL     1       1.347   8.409  20.962  0.00  0.00    +0.000 C 
BRANCH  22  23
ATOM     23  C   UNL     1      -0.111   8.631  21.396  0.00  0.00    +0.000 C 
BRANCH  23  24
ATOM     24  N   UNL     1      -0.542  10.024  21.325  0.00  0.00    +0.000 N 
ATOM     25  C   UNL     1      -0.461  10.775  22.496  0.00  0.00    +0.000 A 
ATOM     26  O   UNL     1      -0.208  10.304  23.602  0.00  0.00    +0.000 OA
ATOM     27  C   UNL     1      -0.658  12.240  22.374  0.00  0.00    +0.000 A 
ATOM     28  C   UNL     1      -0.945  12.816  21.203  0.00  0.00    +0.000 A 
ATOM     29  C   UNL     1      -1.126  12.001  20.012  0.00  0.00    +0.000 A 
ATOM     30  N   UNL     1      -1.472  12.671  18.887  0.00  0.00    +0.000 NA
ATOM     31  C   UNL     1      -1.670  11.918  17.780  0.00  0.00    +0.000 A 
ATOM     32  C   UNL     1      -1.544  10.541  17.763  0.00  0.00    +0.000 A 
ATOM     33  F   UNL     1      -1.781   9.851  16.640  0.00  0.00    +0.000 F 
ATOM     34  C   UNL     1      -1.174   9.874  18.924  0.00  0.00    +0.000 A 
ATOM     35  C   UNL     1      -0.942  10.611  20.088  0.00  0.00    +0.000 A 
ENDBRANCH  23  24
ENDBRANCH  22  23
ENDBRANCH   4  22
TORSDOF 7
ENDMDL
MODEL 4
REMARK VINA RESULT:      -7.8      4.024     11.165
REMARK  Name = 
REMARK  8 active torsions:
REMARK  status: ('A' for Active; 'I' for Inactive)
REMARK    1  A    between atoms: C_1  and  O_2
REMARK    2  A    between atoms: O_2  and  C_3
REMARK    3  A    between atoms: C_6  and  C_7
REMARK    4  A    between atoms: C_7  and  N_8
REMARK    5  A    between atoms: N_11  and  C_12
REMARK    6  A    between atoms: N_15  and  C_16
REMARK    7  A    between atoms: C_16  and  C_17
REMARK    8  A    between atoms: C_17  and  N_18
REMARK                            x       y       z     vdW  Elec       q    Type
REMARK                         _______ _______ _______ _____ _____    ______ ____
ROOT
ATOM      1  C   UNL     1       4.499   2.972  18.908  0.00  0.00    +0.000 C 
ATOM      2  C   UNL     1       3.608   3.591  17.829  0.00  0.00    +0.000 C 
ATOM      3  C   UNL     1       2.795   4.792  18.329  0.00  0.00    +0.000 C 
ATOM      4  N   UNL     1       2.077   4.520  19.589  0.00  0.00    +0.000 NA
ATOM      5  C   UNL     1       3.017   4.071  20.625  0.00  0.00    +0.000 C 
ATOM      6  C   UNL     1       3.670   2.767  20.181  0.00  0.00    +0.000 C 
ENDROOT
BRANCH   1  10
ATOM      7  N   UNL     1       6.178   4.221  16.927  0.00  0.00    +0.000 N 
ATOM      8  C   UNL     1       6.552   4.329  18.234  0.00  0.00    +0.000 C 
ATOM      9  O   UNL     1       7.595   4.857  18.602  0.00  0.00    +0.000 OA
ATOM     10  N   UNL     1       5.709   3.767  19.136  0.00  0.00    +0.000 N 
ATOM     11  H   UNL     1       5.187   4.229  16.754  0.00  0.00    +0.000 HD
ATOM     12  H   UNL     1       6.023   3.911  20.091  0.00  0.00    +0.000 HD
BRANCH   7  13
ATOM     13  C   UNL     1       7.023   4.733  15.878  0.00  0.00    +0.000 C 
BRANCH  13  17
ATOM     14  C   UNL     1       5.582   3.539  11.976  0.00  0.00    +0.000 A 
ATOM     15  C   UNL     1       4.769   3.422  13.102  0.00  0.00    +0.000 A 
ATOM     16  C   UNL     1       5.240   3.805  14.361  0.00  0.00    +0.000 A 
ATOM     17  C   UNL     1       6.540   4.300  14.516  0.00  0.00    +0.000 A 
ATOM     18  C   UNL     1       7.363   4.387  13.383  0.00  0.00    +0.000 A 
ATOM     19  C   UNL     1       6.886   4.010  12.120  0.00  0.00    +0.000 A 
BRANCH  14  21
ATOM     20  C   UNL     1       3.590   3.262  10.725  0.00  0.00    +0.000 C 
ATOM     21  O   UNL     1       5.006   3.122  10.804  0.00  0.00    +0.000 OA
ENDBRANCH  14  21
ENDBRANCH  13  17
ENDBRANCH   7  13
ENDBRANCH   1  10
BRANCH   4  22
ATOM     22  C   UNL     1       1.337   5.709  20.064  0.00  0.00    +0.000 C 
BRANCH  22  23
ATOM     23  C   UNL     1       2.259   6.922  20.269  0.00  0.00    +0.000 C 
BRANCH  23  24
ATOM     24  N   UNL     1       1.676   8.187  19.830  0.00  0.00    +0.000 N 
ATOM     25  C   UNL     1       1.814   8.517  18.482  0.00  0.00    +0.000 A 
ATOM     26  O   UNL     1       2.522   7.899  17.690  0.00  0.00    +0.000 OA
ATOM     27  C   UNL     1       1.019   9.664  17.983  0.00  0.00    +0.000 A 
ATOM     28  C   UNL     1       0.236  10.383  18.793  0.00  0.00    +0.000 A 
ATOM     29  C   UNL     1       0.186  10.085  20.216  0.00  0.00    +0.000 A 
ATOM     30  N   UNL     1      -0.590  10.907  20.963  0.00  0.00    +0.000 NA
ATOM     31  C   UNL     1      -0.621  10.655  22.291  0.00  0.00    +0.000 A 
ATOM     32  C   UNL     1       0.094   9.632  22.890  0.00  0.00    +0.000 A 
ATOM     33  F   UNL     1       0.041   9.453  24.216  0.00  0.00    +0.000 F 
ATOM     34  C   UNL     1       0.872   8.792  22.104  0.00  0.00    +0.000 A 
ATOM     35  C   UNL     1       0.922   9.003  20.725  0.00  0.00    +0.000 A 
ENDBRANCH  23  24
ENDBRANCH  22  23
ENDBRANCH   4  22
TORSDOF 7
ENDMDL
MODEL 5
REMARK VINA RESULT:      -7.7      3.882     10.159
REMARK  Name = 
REMARK  8 active torsions:
REMARK  status: ('A' for Active; 'I' for Inactive)
REMARK    1  A    between atoms: C_1  and  O_2
REMARK    2  A    between atoms: O_2  and  C_3
REMARK    3  A    between atoms: C_6  and  C_7
REMARK    4  A    between atoms: C_7  and  N_8
REMARK    5  A    between atoms: N_11  and  C_12
REMARK    6  A    between atoms: N_15  and  C_16
REMARK    7  A    between atoms: C_16  and  C_17
REMARK    8  A    between atoms: C_17  and  N_18
REMARK                            x       y       z     vdW  Elec       q    Type
REMARK                         _______ _______ _______ _____ _____    ______ ____
ROOT
ATOM      1  C   UNL     1       2.800   2.413  19.867  0.00  0.00    +0.000 C 
ATOM      2  C   UNL     1       1.532   2.577  20.708  0.00  0.00    +0.000 C 
ATOM      3  C   UNL     1       0.963   4.001  20.677  0.00  0.00    +0.000 C 
ATOM      4  N   UNL     1       1.979   5.036  20.951  0.00  0.00    +0.000 NA
ATOM      5  C   UNL     1       3.100   4.912  20.008  0.00  0.00    +0.000 C 
ATOM      6  C   UNL     1       3.768   3.555  20.197  0.00  0.00    +0.000 C 
ENDROOT
BRANCH   1  10
ATOM      7  N   UNL     1       4.427   3.303  17.662  0.00  0.00    +0.000 N 
ATOM      8  C   UNL     1       3.207   2.768  17.373  0.00  0.00    +0.000 C 
ATOM      9  O   UNL     1       2.736   2.717  16.242  0.00  0.00    +0.000 OA
ATOM     10  N   UNL     1       2.494   2.319  18.436  0.00  0.00    +0.000 N 
ATOM     11  H   UNL     1       4.908   2.897  18.447  0.00  0.00    +0.000 HD
ATOM     12  H   UNL     1       1.613   1.901  18.154  0.00  0.00    +0.000 HD
BRANCH   7  13
ATOM     13  C   UNL     1       5.249   3.861  16.617  0.00  0.00    +0.000 C 
BRANCH  13  17
ATOM     14  C   UNL     1       7.719   7.107  18.062  0.00  0.00    +0.000 A 
ATOM     15  C   UNL     1       7.763   5.854  18.670  0.00  0.00    +0.000 A 
ATOM     16  C   UNL     1       6.960   4.809  18.203  0.00  0.00    +0.000 A 
ATOM     17  C   UNL     1       6.089   5.006  17.125  0.00  0.00    +0.000 A 
ATOM     18  C   UNL     1       6.028   6.278  16.536  0.00  0.00    +0.000 A 
ATOM     19  C   UNL     1       6.840   7.323  17.002  0.00  0.00    +0.000 A 
BRANCH  14  21
ATOM     20  C   UNL     1       8.389   9.378  18.134  0.00  0.00    +0.000 C 
ATOM     21  O   UNL     1       8.548   8.047  18.619  0.00  0.00    +0.000 OA
ENDBRANCH  14  21
ENDBRANCH  13  17
ENDBRANCH   7  13
ENDBRANCH   1  10
BRANCH   4  22
ATOM     22  C   UNL     1       1.407   6.398  20.873  0.00  0.00    +0.000 C 
BRANCH  22  23
ATOM     23  C   UNL     1       2.218   7.315  19.942  0.00  0.00    +0.000 C 
BRANCH  23  24
ATOM     24  N   UNL     1       1.566   8.590  19.656  0.00  0.00    +0.000 N 
ATOM     25  C   UNL     1       1.624   9.054  18.344  0.00  0.00    +0.000 A 
ATOM     26  O   UNL     1       2.316   8.547  17.463  0.00  0.00    +0.000 OA
ATOM     27  C   UNL     1       0.762  10.209  17.997  0.00  0.00    +0.000 A 
ATOM     28  C   UNL     1      -0.007  10.812  18.908  0.00  0.00    +0.000 A 
ATOM     29  C   UNL     1       0.024  10.376  20.295  0.00  0.00    +0.000 A 
ATOM     30  N   UNL     1      -0.745  11.087  21.154  0.00  0.00    +0.000 NA
ATOM     31  C   UNL     1      -0.701  10.706  22.451  0.00  0.00    +0.000 A 
ATOM     32  C   UNL     1       0.081   9.662  22.913  0.00  0.00    +0.000 A 
ATOM     33  F   UNL     1       0.101   9.354  24.216  0.00  0.00    +0.000 F 
ATOM     34  C   UNL     1       0.852   8.937  22.013  0.00  0.00    +0.000 A 
ATOM     35  C   UNL     1       0.825   9.282  20.661  0.00  0.00    +0.000 A 
ENDBRANCH  23  24
ENDBRANCH  22  23
ENDBRANCH   4  22
TORSDOF 7
ENDMDL
MODEL 6
REMARK VINA RESULT:      -7.7      2.104      2.873
REMARK  Name = 
REMARK  8 active torsions:
REMARK  status: ('A' for Active; 'I' for Inactive)
REMARK    1  A    between atoms: C_1  and  O_2
REMARK    2  A    between atoms: O_2  and  C_3
REMARK    3  A    between atoms: C_6  and  C_7
REMARK    4  A    between atoms: C_7  and  N_8
REMARK    5  A    between atoms: N_11  and  C_12
REMARK    6  A    between atoms: N_15  and  C_16
REMARK    7  A    between atoms: C_16  and  C_17
REMARK    8  A    between atoms: C_17  and  N_18
REMARK                            x       y       z     vdW  Elec       q    Type
REMARK                         _______ _______ _______ _____ _____    ______ ____
ROOT
ATOM      1  C   UNL     1      -0.256  10.513  20.227  0.00  0.00    +0.000 C 
ATOM      2  C   UNL     1       0.129   9.205  20.920  0.00  0.00    +0.000 C 
ATOM      3  C   UNL     1       1.387   8.553  20.332  0.00  0.00    +0.000 C 
ATOM      4  N   UNL     1       1.346   8.440  18.862  0.00  0.00    +0.000 NA
ATOM      5  C   UNL     1       1.121   9.759  18.255  0.00  0.00    +0.000 C 
ATOM      6  C   UNL     1      -0.230  10.299  18.709  0.00  0.00    +0.000 C 
ENDROOT
BRANCH   1  10
ATOM      7  N   UNL     1      -0.882  12.539  22.178  0.00  0.00    +0.000 N 
ATOM      8  C   UNL     1       0.318  12.627  21.536  0.00  0.00    +0.000 C 
ATOM      9  O   UNL     1       1.104  13.556  21.686  0.00  0.00    +0.000 OA
ATOM     10  N   UNL     1       0.591  11.628  20.660  0.00  0.00    +0.000 N 
ATOM     11  H   UNL     1      -1.208  11.606  22.370  0.00  0.00    +0.000 HD
ATOM     12  H   UNL     1       1.511  11.730  20.242  0.00  0.00    +0.000 HD
BRANCH   7  13
ATOM     13  C   UNL     1      -1.303  13.573  23.090  0.00  0.00    +0.000 C 
BRANCH  13  17
ATOM     14  C   UNL     1      -5.569  13.372  23.791  0.00  0.00    +0.000 A 
ATOM     15  C   UNL     1      -5.023  14.391  23.013  0.00  0.00    +0.000 A 
ATOM     16  C   UNL     1      -3.643  14.455  22.793  0.00  0.00    +0.000 A 
ATOM     17  C   UNL     1      -2.786  13.504  23.359  0.00  0.00    +0.000 A 
ATOM     18  C   UNL     1      -3.339  12.498  24.166  0.00  0.00    +0.000 A 
ATOM     19  C   UNL     1      -4.724  12.432  24.379  0.00  0.00    +0.000 A 
BRANCH  14  21
ATOM     20  C   UNL     1      -7.661  12.352  23.351  0.00  0.00    +0.000 C 
ATOM     21  O   UNL     1      -6.931  13.426  23.938  0.00  0.00    +0.000 OA
ENDBRANCH  14  21
ENDBRANCH  13  17
ENDBRANCH   7  13
ENDBRANCH   1  10
BRANCH   4  22
ATOM     22  C   UNL     1       2.590   7.846  18.324  0.00  0.00    +0.000 C 
BRANCH  22  23
ATOM     23  C   UNL     1       3.125   6.715  19.219  0.00  0.00    +0.000 C 
BRANCH  23  24
ATOM     24  N   UNL     1       3.417   5.480  18.496  0.00  0.00    +0.000 N 
ATOM     25  C   UNL     1       2.449   4.478  18.534  0.00  0.00    +0.000 A 
ATOM     26  O   UNL     1       1.456   4.505  19.257  0.00  0.00    +0.000 OA
ATOM     27  C   UNL     1       2.627   3.333  17.609  0.00  0.00    +0.000 A 
ATOM     28  C   UNL     1       3.688   3.237  16.803  0.00  0.00    +0.000 A 
ATOM     29  C   UNL     1       4.737   4.244  16.853  0.00  0.00    +0.000 A 
ATOM     30  N   UNL     1       5.799   4.028  16.040  0.00  0.00    +0.000 NA
ATOM     31  C   UNL     1       6.793   4.944  16.101  0.00  0.00    +0.000 A 
ATOM     32  C   UNL     1       6.765   6.044  16.938  0.00  0.00    +0.000 A 
ATOM     33  F   UNL     1       7.795   6.899  16.970  0.00  0.00    +0.000 F 
ATOM     34  C   UNL     1       5.660   6.255  17.753  0.00  0.00    +0.000 A 
ATOM     35  C   UNL     1       4.602   5.345  17.713  0.00  0.00    +0.000 A 
ENDBRANCH  23  24
ENDBRANCH  22  23
ENDBRANCH   4  22
TORSDOF 7
ENDMDL
MODEL 7
REMARK VINA RESULT:      -7.7      0.942      1.032
REMARK  Name = 
REMARK  8 active torsions:
REMARK  status: ('A' for Active; 'I' for Inactive)
REMARK    1  A    between atoms: C_1  and  O_2
REMARK    2  A    between atoms: O_2  and  C_3
REMARK    3  A    between atoms: C_6  and  C_7
REMARK    4  A    between atoms: C_7  and  N_8
REMARK    5  A    between atoms: N_11  and  C_12
REMARK    6  A    between atoms: N_15  and  C_16
REMARK    7  A    between atoms: C_16  and  C_17
REMARK    8  A    between atoms: C_17  and  N_18
REMARK                            x       y       z     vdW  Elec       q    Type
REMARK                         _______ _______ _______ _____ _____    ______ ____
ROOT
ATOM      1  C   UNL     1      -0.335  10.654  20.258  0.00  0.00    +0.000 C 
ATOM      2  C   UNL     1       0.184   9.350  20.870  0.00  0.00    +0.000 C 
ATOM      3  C   UNL     1       1.372   8.752  20.107  0.00  0.00    +0.000 C 
ATOM      4  N   UNL     1       1.136   8.658  18.653  0.00  0.00    +0.000 NA
ATOM      5  C   UNL     1       0.788   9.976  18.106  0.00  0.00    +0.000 C 
ATOM      6  C   UNL     1      -0.507  10.461  18.748  0.00  0.00    +0.000 C 
ENDROOT
BRANCH   1  10
ATOM      7  N   UNL     1      -0.747  12.616  22.327  0.00  0.00    +0.000 N 
ATOM      8  C   UNL     1       0.344  12.763  21.524  0.00  0.00    +0.000 C 
ATOM      9  O   UNL     1       1.110  13.718  21.583  0.00  0.00    +0.000 OA
ATOM     10  N   UNL     1       0.526  11.792  20.594  0.00  0.00    +0.000 N 
ATOM     11  H   UNL     1      -1.009  11.668  22.541  0.00  0.00    +0.000 HD
ATOM     12  H   UNL     1       1.373  11.937  20.053  0.00  0.00    +0.000 HD
BRANCH   7  13
ATOM     13  C   UNL     1      -1.071  13.616  23.315  0.00  0.00    +0.000 C 
BRANCH  13  17
ATOM     14  C   UNL     1      -5.351  14.104  23.726  0.00  0.00    +0.000 A 
ATOM     15  C   UNL     1      -4.504  15.210  23.740  0.00  0.00    +0.000 A 
ATOM     16  C   UNL     1      -3.120  15.048  23.611  0.00  0.00    +0.000 A 
ATOM     17  C   UNL     1      -2.562  13.771  23.479  0.00  0.00    +0.000 A 
ATOM     18  C   UNL     1      -3.418  12.659  23.495  0.00  0.00    +0.000 A 
ATOM     19  C   UNL     1      -4.806  12.826  23.617  0.00  0.00    +0.000 A 
BRANCH  14  21
ATOM     20  C   UNL     1      -7.537  13.287  24.128  0.00  0.00    +0.000 C 
ATOM     21  O   UNL     1      -6.682  14.397  23.868  0.00  0.00    +0.000 OA
ENDBRANCH  14  21
ENDBRANCH  13  17
ENDBRANCH   7  13
ENDBRANCH   1  10
BRANCH   4  22
ATOM     22  C   UNL     1       2.315   8.115  17.942  0.00  0.00    +0.000 C 
BRANCH  22  23
ATOM     23  C   UNL     1       3.040   7.034  18.762  0.00  0.00    +0.000 C 
BRANCH  23  24
ATOM     24  N   UNL     1       3.496   5.898  17.966  0.00  0.00    +0.000 N 
ATOM     25  C   UNL     1       4.580   6.111  17.117  0.00  0.00    +0.000 A 
ATOM     26  O   UNL     1       5.064   7.215  16.880  0.00  0.00    +0.000 OA
ATOM     27  C   UNL     1       5.200   4.913  16.499  0.00  0.00    +0.000 A 
ATOM     28  C   UNL     1       4.718   3.685  16.709  0.00  0.00    +0.000 A 
ATOM     29  C   UNL     1       3.523   3.496  17.517  0.00  0.00    +0.000 A 
ATOM     30  N   UNL     1       3.079   2.220  17.621  0.00  0.00    +0.000 NA
ATOM     31  C   UNL     1       1.953   2.038  18.348  0.00  0.00    +0.000 A 
ATOM     32  C   UNL     1       1.262   3.071  18.956  0.00  0.00    +0.000 A 
ATOM     33  F   UNL     1       0.137   2.826  19.639  0.00  0.00    +0.000 F 
ATOM     34  C   UNL     1       1.742   4.370  18.848  0.00  0.00    +0.000 A 
ATOM     35  C   UNL     1       2.912   4.605  18.122  0.00  0.00    +0.000 A 
ENDBRANCH  23  24
ENDBRANCH  22  23
ENDBRANCH   4  22
TORSDOF 7
ENDMDL
MODEL 8
REMARK VINA RESULT:      -7.7      3.153     10.870
REMARK  Name = 
REMARK  8 active torsions:
REMARK  status: ('A' for Active; 'I' for Inactive)
REMARK    1  A    between atoms: C_1  and  O_2
REMARK    2  A    between atoms: O_2  and  C_3
REMARK    3  A    between atoms: C_6  and  C_7
REMARK    4  A    between atoms: C_7  and  N_8
REMARK    5  A    between atoms: N_11  and  C_12
REMARK    6  A    between atoms: N_15  and  C_16
REMARK    7  A    between atoms: C_16  and  C_17
REMARK    8  A    between atoms: C_17  and  N_18
REMARK                            x       y       z     vdW  Elec       q    Type
REMARK                         _______ _______ _______ _____ _____    ______ ____
ROOT
ATOM      1  C   UNL     1       1.791   8.496  20.790  0.00  0.00    +0.000 C 
ATOM      2  C   UNL     1       1.704   9.206  22.143  0.00  0.00    +0.000 C 
ATOM      3  C   UNL     1       0.319   9.798  22.430  0.00  0.00    +0.000 C 
ATOM      4  N   UNL     1      -0.206  10.608  21.314  0.00  0.00    +0.000 NA
ATOM      5  C   UNL     1      -0.234   9.816  20.077  0.00  0.00    +0.000 C 
ATOM      6  C   UNL     1       1.187   9.403  19.712  0.00  0.00    +0.000 C 
ENDROOT
BRANCH   1  10
ATOM      7  N   UNL     1       3.006   5.969  20.125  0.00  0.00    +0.000 N 
ATOM      8  C   UNL     1       1.691   5.964  20.482  0.00  0.00    +0.000 C 
ATOM      9  O   UNL     1       0.983   4.964  20.461  0.00  0.00    +0.000 OA
ATOM     10  N   UNL     1       1.172   7.168  20.832  0.00  0.00    +0.000 N 
ATOM     11  H   UNL     1       3.586   6.642  20.599  0.00  0.00    +0.000 HD
ATOM     12  H   UNL     1       0.201   7.094  21.122  0.00  0.00    +0.000 HD
BRANCH   7  13
ATOM     13  C   UNL     1       3.650   4.758  19.682  0.00  0.00    +0.000 C 
BRANCH  13  17
ATOM     14  C   UNL     1       6.358   5.433  16.375  0.00  0.00    +0.000 A 
ATOM     15  C   UNL     1       6.784   4.757  17.517  0.00  0.00    +0.000 A 
ATOM     16  C   UNL     1       5.907   4.544  18.585  0.00  0.00    +0.000 A 
ATOM     17  C   UNL     1       4.591   5.018  18.532  0.00  0.00    +0.000 A 
ATOM     18  C   UNL     1       4.178   5.725  17.392  0.00  0.00    +0.000 A 
ATOM     19  C   UNL     1       5.057   5.929  16.319  0.00  0.00    +0.000 A 
BRANCH  14  21
ATOM     20  C   UNL     1       7.078   4.881  14.187  0.00  0.00    +0.000 C 
ATOM     21  O   UNL     1       7.315   5.583  15.405  0.00  0.00    +0.000 OA
ENDBRANCH  14  21
ENDBRANCH  13  17
ENDBRANCH   7  13
ENDBRANCH   1  10
BRANCH   4  22
ATOM     22  C   UNL     1      -1.559  11.130  21.607  0.00  0.00    +0.000 C 
BRANCH  22  23
ATOM     23  C   UNL     1      -1.917  12.339  20.726  0.00  0.00    +0.000 C 
BRANCH  23  24
ATOM     24  N   UNL     1      -3.289  12.317  20.224  0.00  0.00    +0.000 N 
ATOM     25  C   UNL     1      -4.283  12.806  21.069  0.00  0.00    +0.000 A 
ATOM     26  O   UNL     1      -4.103  13.099  22.249  0.00  0.00    +0.000 OA
ATOM     27  C   UNL     1      -5.627  13.016  20.479  0.00  0.00    +0.000 A 
ATOM     28  C   UNL     1      -5.892  12.710  19.206  0.00  0.00    +0.000 A 
ATOM     29  C   UNL     1      -4.867  12.105  18.370  0.00  0.00    +0.000 A 
ATOM     30  N   UNL     1      -5.250  11.777  17.113  0.00  0.00    +0.000 NA
ATOM     31  C   UNL     1      -4.311  11.189  16.337  0.00  0.00    +0.000 A 
ATOM     32  C   UNL     1      -3.027  10.913  16.772  0.00  0.00    +0.000 A 
ATOM     33  F   UNL     1      -2.152  10.302  15.962  0.00  0.00    +0.000 F 
ATOM     34  C   UNL     1      -2.650  11.270  18.061  0.00  0.00    +0.000 A 
ATOM     35  C   UNL     1      -3.580  11.896  18.893  0.00  0.00    +0.000 A 
ENDBRANCH  23  24
ENDBRANCH  22  23
ENDBRANCH   4  22
TORSDOF 7
ENDMDL
MODEL 9
REMARK VINA RESULT:      -7.7      2.885     10.526
REMARK  Name = 
REMARK  8 active torsions:
REMARK  status: ('A' for Active; 'I' for Inactive)
REMARK    1  A    between atoms: C_1  and  O_2
REMARK    2  A    between atoms: O_2  and  C_3
REMARK    3  A    between atoms: C_6  and  C_7
REMARK    4  A    between atoms: C_7  and  N_8
REMARK    5  A    between atoms: N_11  and  C_12
REMARK    6  A    between atoms: N_15  and  C_16
REMARK    7  A    between atoms: C_16  and  C_17
REMARK    8  A    between atoms: C_17  and  N_18
REMARK                            x       y       z     vdW  Elec       q    Type
REMARK                         _______ _______ _______ _____ _____    ______ ____
ROOT
ATOM      1  C   UNL     1       0.719  10.869  21.053  0.00  0.00    +0.000 C 
ATOM      2  C   UNL     1       0.101  10.206  22.287  0.00  0.00    +0.000 C 
ATOM      3  C   UNL     1      -1.143  10.936  22.809  0.00  0.00    +0.000 C 
ATOM      4  N   UNL     1      -0.936  12.387  22.972  0.00  0.00    +0.000 NA
ATOM      5  C   UNL     1      -0.486  12.984  21.707  0.00  0.00    +0.000 C 
ATOM      6  C   UNL     1       0.854  12.374  21.311  0.00  0.00    +0.000 C 
ENDROOT
BRANCH   1  10
ATOM      7  N   UNL     1       1.577   9.290  18.800  0.00  0.00    +0.000 N 
ATOM      8  C   UNL     1       0.344   9.869  18.735  0.00  0.00    +0.000 C 
ATOM      9  O   UNL     1      -0.381   9.819  17.748  0.00  0.00    +0.000 OA
ATOM     10  N   UNL     1      -0.038  10.564  19.836  0.00  0.00    +0.000 N 
ATOM     11  H   UNL     1       1.866   8.977  19.712  0.00  0.00    +0.000 HD
ATOM     12  H   UNL     1      -0.977  10.939  19.741  0.00  0.00    +0.000 HD
BRANCH   7  13
ATOM     13  C   UNL     1       2.111   8.573  17.669  0.00  0.00    +0.000 C 
BRANCH  13  17
ATOM     14  C   UNL     1       4.500   5.186  18.915  0.00  0.00    +0.000 A 
ATOM     15  C   UNL     1       3.401   5.598  19.667  0.00  0.00    +0.000 A 
ATOM     16  C   UNL     1       2.634   6.695  19.263  0.00  0.00    +0.000 A 
ATOM     17  C   UNL     1       2.964   7.408  18.104  0.00  0.00    +0.000 A 
ATOM     18  C   UNL     1       4.090   7.007  17.368  0.00  0.00    +0.000 A 
ATOM     19  C   UNL     1       4.852   5.901  17.771  0.00  0.00    +0.000 A 
BRANCH  14  21
ATOM     20  C   UNL     1       4.394   2.926  19.615  0.00  0.00    +0.000 C 
ATOM     21  O   UNL     1       5.172   4.105  19.422  0.00  0.00    +0.000 OA
ENDBRANCH  14  21
ENDBRANCH  13  17
ENDBRANCH   7  13
ENDBRANCH   1  10
BRANCH   4  22
ATOM     22  C   UNL     1      -2.166  13.066  23.437  0.00  0.00    +0.000 C 
BRANCH  22  23
ATOM     23  C   UNL     1      -2.908  13.772  22.289  0.00  0.00    +0.000 C 
BRANCH  23  24
ATOM     24  N   UNL     1      -4.188  13.157  21.950  0.00  0.00    +0.000 N 
ATOM     25  C   UNL     1      -5.207  13.247  22.896  0.00  0.00    +0.000 A 
ATOM     26  O   UNL     1      -5.049  13.661  24.043  0.00  0.00    +0.000 OA
ATOM     27  C   UNL     1      -6.568  12.849  22.463  0.00  0.00    +0.000 A 
ATOM     28  C   UNL     1      -6.807  12.382  21.234  0.00  0.00    +0.000 A 
ATOM     29  C   UNL     1      -5.711  12.201  20.295  0.00  0.00    +0.000 A 
ATOM     30  N   UNL     1      -6.045  11.667  19.096  0.00  0.00    +0.000 NA
ATOM     31  C   UNL     1      -5.029  11.469  18.226  0.00  0.00    +0.000 A 
ATOM     32  C   UNL     1      -3.710  11.773  18.513  0.00  0.00    +0.000 A 
ATOM     33  F   UNL     1      -2.746  11.526  17.617  0.00  0.00    +0.000 F 
ATOM     34  C   UNL     1      -3.390  12.332  19.744  0.00  0.00    +0.000 A 
ATOM     35  C   UNL     1      -4.409  12.571  20.668  0.00  0.00    +0.000 A 
ENDBRANCH  23  24
ENDBRANCH  22  23
ENDBRANCH   4  22
TORSDOF 7
ENDMDL
