MODEL 1
REMARK VINA RESULT:      -6.1      0.000      0.000
REMARK  Name = 
REMARK  6 active torsions:
REMARK  status: ('A' for Active; 'I' for Inactive)
REMARK    1  A    between atoms: C_1  and  C_2
REMARK    2  A    between atoms: C_6  and  C_8
REMARK    3  A    between atoms: C_8  and  S_9
REMARK    4  A    between atoms: S_9  and  C_10
REMARK    5  A    between atoms: C_10  and  C_11
REMARK    6  A    between atoms: C_11  and  N_12
REMARK                            x       y       z     vdW  Elec       q    Type
REMARK                         _______ _______ _______ _____ _____    ______ ____
ROOT
ATOM      1  C   UNL     1       7.515   6.554  18.441  0.00  0.00    +0.000 C 
ENDROOT
BRANCH   1   7
ATOM      2  C   UNL     1       1.814   3.690  18.286  0.00  0.00    +0.000 C 
ATOM      3  C   UNL     1       2.873   4.499  17.541  0.00  0.00    +0.000 C 
ATOM      4  C   UNL     1       3.990   3.581  17.021  0.00  0.00    +0.000 C 
ATOM      5  C   UNL     1       5.095   4.385  16.344  0.00  0.00    +0.000 C 
ATOM      6  N   UNL     1       5.612   5.413  17.257  0.00  0.00    +0.000 N 
ATOM      7  C   UNL     1       6.982   5.479  17.495  0.00  0.00    +0.000 C 
ATOM      8  O   UNL     1       7.769   4.674  16.980  0.00  0.00    +0.000 OA
ATOM      9  C   UNL     1       4.600   6.346  17.746  0.00  0.00    +0.000 C 
ATOM     10  C   UNL     1       3.461   5.601  18.438  0.00  0.00    +0.000 C 
ENDBRANCH   1   7
BRANCH   1  11
ATOM     11  S   UNL     1       7.722   8.131  17.542  0.00  0.00    +0.000 S 
BRANCH  11  12
ATOM     12  C   UNL     1       8.704   9.085  18.770  0.00  0.00    +0.000 C 
BRANCH  12  13
ATOM     13  C   UNL     1       9.057  10.467  18.165  0.00  0.00    +0.000 C 
BRANCH  13  14
ATOM     14  N   UNL     1       9.961  11.321  18.961  0.00  0.00    +0.000 NA
ATOM     15  C   UNL     1       9.348  12.542  19.520  0.00  0.00    +0.000 C 
ATOM     16  C   UNL     1       9.161  13.715  18.538  0.00  0.00    +0.000 C 
ATOM     17  O   UNL     1      10.370  14.034  17.844  0.00  0.00    +0.000 OA
ATOM     18  C   UNL     1      10.907  12.888  17.179  0.00  0.00    +0.000 C 
ATOM     19  C   UNL     1      11.151  11.731  18.172  0.00  0.00    +0.000 C 
ENDBRANCH  13  14
ENDBRANCH  12  13
ENDBRANCH  11  12
ENDBRANCH   1  11
TORSDOF 5
ENDMDL
MODEL 2
REMARK VINA RESULT:      -6.1      5.311      8.536
REMARK  Name = 
REMARK  6 active torsions:
REMARK  status: ('A' for Active; 'I' for Inactive)
REMARK    1  A    between atoms: C_1  and  C_2
REMARK    2  A    between atoms: C_6  and  C_8
REMARK    3  A    between atoms: C_8  and  S_9
REMARK    4  A    between atoms: S_9  and  C_10
REMARK    5  A    between atoms: C_10  and  C_11
REMARK    6  A    between atoms: C_11  and  N_12
REMARK                            x       y       z     vdW  Elec       q    Type
REMARK                         _______ _______ _______ _____ _____    ______ ____
ROOT
ATOM      1  C   UNL     1       3.016   6.231  18.539  0.00  0.00    +0.000 C 
ENDROOT
BRANCH   1   7
ATOM      2  C   UNL     1       7.053   4.180  14.042  0.00  0.00    +0.000 C 
ATOM      3  C   UNL     1       6.746   5.206  15.131  0.00  0.00    +0.000 C 
ATOM      4  C   UNL     1       7.100   4.646  16.517  0.00  0.00    +0.000 C 
ATOM      5  C   UNL     1       6.725   5.629  17.621  0.00  0.00    +0.000 C 
ATOM      6  N   UNL     1       5.304   5.990  17.523  0.00  0.00    +0.000 N 
ATOM      7  C   UNL     1       4.492   5.849  18.644  0.00  0.00    +0.000 C 
ATOM      8  O   UNL     1       4.931   5.400  19.712  0.00  0.00    +0.000 OA
ATOM      9  C   UNL     1       4.919   6.573  16.240  0.00  0.00    +0.000 C 
ATOM     10  C   UNL     1       5.269   5.633  15.088  0.00  0.00    +0.000 C 
ENDBRANCH   1   7
BRANCH   1  11
ATOM     11  S   UNL     1       2.422   6.877  20.141  0.00  0.00    +0.000 S 
BRANCH  11  12
ATOM     12  C   UNL     1       1.597   5.378  20.816  0.00  0.00    +0.000 C 
BRANCH  12  13
ATOM     13  C   UNL     1       1.254   4.423  19.646  0.00  0.00    +0.000 C 
BRANCH  13  14
ATOM     14  N   UNL     1       1.301   2.977  19.941  0.00  0.00    +0.000 NA
ATOM     15  C   UNL     1       2.485   2.524  20.696  0.00  0.00    +0.000 C 
ATOM     16  C   UNL     1       3.785   2.363  19.882  0.00  0.00    +0.000 C 
ATOM     17  O   UNL     1       3.594   1.557  18.717  0.00  0.00    +0.000 OA
ATOM     18  C   UNL     1       2.536   2.064  17.900  0.00  0.00    +0.000 C 
ATOM     19  C   UNL     1       1.217   2.168  18.698  0.00  0.00    +0.000 C 
ENDBRANCH  13  14
ENDBRANCH  12  13
ENDBRANCH  11  12
ENDBRANCH   1  11
TORSDOF 5
ENDMDL
MODEL 3
REMARK VINA RESULT:      -6.1      4.430      6.648
REMARK  Name = 
REMARK  6 active torsions:
REMARK  status: ('A' for Active; 'I' for Inactive)
REMARK    1  A    between atoms: C_1  and  C_2
REMARK    2  A    between atoms: C_6  and  C_8
REMARK    3  A    between atoms: C_8  and  S_9
REMARK    4  A    between atoms: S_9  and  C_10
REMARK    5  A    between atoms: C_10  and  C_11
REMARK    6  A    between atoms: C_11  and  N_12
REMARK                            x       y       z     vdW  Elec       q    Type
REMARK                         _______ _______ _______ _____ _____    ______ ____
ROOT
ATOM      1  C   UNL     1       2.698   6.150  19.661  0.00  0.00    +0.000 C 
ENDROOT
BRANCH   1   7
ATOM      2  C   UNL     1      -1.633  10.808  19.149  0.00  0.00    +0.000 C 
ATOM      3  C   UNL     1      -0.162  10.422  19.282  0.00  0.00    +0.000 C 
ATOM      4  C   UNL     1       0.420  10.028  17.916  0.00  0.00    +0.000 C 
ATOM      5  C   UNL     1       1.867   9.563  18.045  0.00  0.00    +0.000 C 
ATOM      6  N   UNL     1       1.967   8.468  19.020  0.00  0.00    +0.000 N 
ATOM      7  C   UNL     1       2.591   7.283  18.643  0.00  0.00    +0.000 C 
ATOM      8  O   UNL     1       3.037   7.120  17.499  0.00  0.00    +0.000 OA
ATOM      9  C   UNL     1       1.472   8.803  20.353  0.00  0.00    +0.000 C 
ATOM     10  C   UNL     1       0.021   9.277  20.292  0.00  0.00    +0.000 C 
ENDBRANCH   1   7
BRANCH   1  11
ATOM     11  S   UNL     1       2.733   4.538  18.802  0.00  0.00    +0.000 S 
BRANCH  11  12
ATOM     12  C   UNL     1       4.423   3.964  19.243  0.00  0.00    +0.000 C 
BRANCH  12  13
ATOM     13  C   UNL     1       5.388   5.175  19.213  0.00  0.00    +0.000 C 
BRANCH  13  14
ATOM     14  N   UNL     1       6.759   4.912  18.731  0.00  0.00    +0.000 NA
ATOM     15  C   UNL     1       7.701   6.041  18.856  0.00  0.00    +0.000 C 
ATOM     16  C   UNL     1       7.576   7.146  17.787  0.00  0.00    +0.000 C 
ATOM     17  O   UNL     1       7.601   6.615  16.459  0.00  0.00    +0.000 OA
ATOM     18  C   UNL     1       6.599   5.612  16.280  0.00  0.00    +0.000 C 
ATOM     19  C   UNL     1       6.760   4.474  17.312  0.00  0.00    +0.000 C 
ENDBRANCH  13  14
ENDBRANCH  12  13
ENDBRANCH  11  12
ENDBRANCH   1  11
TORSDOF 5
ENDMDL
MODEL 4
REMARK VINA RESULT:      -6.0      4.528      7.287
REMARK  Name = 
REMARK  6 active torsions:
REMARK  status: ('A' for Active; 'I' for Inactive)
REMARK    1  A    between atoms: C_1  and  C_2
REMARK    2  A    between atoms: C_6  and  C_8
REMARK    3  A    between atoms: C_8  and  S_9
REMARK    4  A    between atoms: S_9  and  C_10
REMARK    5  A    between atoms: C_10  and  C_11
REMARK    6  A    between atoms: C_11  and  N_12
REMARK                            x       y       z     vdW  Elec       q    Type
REMARK                         _______ _______ _______ _____ _____    ______ ____
ROOT
ATOM      1  C   UNL     1       2.602   6.803  19.370  0.00  0.00    +0.000 C 
ENDROOT
BRANCH   1   7
ATOM      2  C   UNL     1       1.999  13.119  18.682  0.00  0.00    +0.000 C 
ATOM      3  C   UNL     1       1.319  11.752  18.702  0.00  0.00    +0.000 C 
ATOM      4  C   UNL     1       1.047  11.304  20.146  0.00  0.00    +0.000 C 
ATOM      5  C   UNL     1       0.440   9.905  20.185  0.00  0.00    +0.000 C 
ATOM      6  N   UNL     1       1.303   8.954  19.470  0.00  0.00    +0.000 N 
ATOM      7  C   UNL     1       1.710   7.792  20.119  0.00  0.00    +0.000 C 
ATOM      8  O   UNL     1       1.386   7.555  21.291  0.00  0.00    +0.000 OA
ATOM      9  C   UNL     1       1.558   9.305  18.075  0.00  0.00    +0.000 C 
ATOM     10  C   UNL     1       2.168  10.700  17.967  0.00  0.00    +0.000 C 
ENDBRANCH   1   7
BRANCH   1  11
ATOM     11  S   UNL     1       2.428   5.134  20.091  0.00  0.00    +0.000 S 
BRANCH  11  12
ATOM     12  C   UNL     1       3.911   4.310  19.380  0.00  0.00    +0.000 C 
BRANCH  12  13
ATOM     13  C   UNL     1       5.052   5.351  19.256  0.00  0.00    +0.000 C 
BRANCH  13  14
ATOM     14  N   UNL     1       6.352   4.846  18.771  0.00  0.00    +0.000 NA
ATOM     15  C   UNL     1       7.494   5.763  18.956  0.00  0.00    +0.000 C 
ATOM     16  C   UNL     1       7.604   6.918  17.940  0.00  0.00    +0.000 C 
ATOM     17  O   UNL     1       7.546   6.455  16.589  0.00  0.00    +0.000 OA
ATOM     18  C   UNL     1       6.370   5.676  16.355  0.00  0.00    +0.000 C 
ATOM     19  C   UNL     1       6.289   4.483  17.332  0.00  0.00    +0.000 C 
ENDBRANCH  13  14
ENDBRANCH  12  13
ENDBRANCH  11  12
ENDBRANCH   1  11
TORSDOF 5
ENDMDL
MODEL 5
REMARK VINA RESULT:      -5.9      1.382      1.739
REMARK  Name = 
REMARK  6 active torsions:
REMARK  status: ('A' for Active; 'I' for Inactive)
REMARK    1  A    between atoms: C_1  and  C_2
REMARK    2  A    between atoms: C_6  and  C_8
REMARK    3  A    between atoms: C_8  and  S_9
REMARK    4  A    between atoms: S_9  and  C_10
REMARK    5  A    between atoms: C_10  and  C_11
REMARK    6  A    between atoms: C_11  and  N_12
REMARK                            x       y       z     vdW  Elec       q    Type
REMARK                         _______ _______ _______ _____ _____    ______ ____
ROOT
ATOM      1  C   UNL     1       7.585   5.888  17.676  0.00  0.00    +0.000 C 
ENDROOT
BRANCH   1   7
ATOM      2  C   UNL     1       1.422   4.230  17.692  0.00  0.00    +0.000 C 
ATOM      3  C   UNL     1       2.876   3.799  17.874  0.00  0.00    +0.000 C 
ATOM      4  C   UNL     1       3.375   4.161  19.281  0.00  0.00    +0.000 C 
ATOM      5  C   UNL     1       4.850   3.808  19.451  0.00  0.00    +0.000 C 
ATOM      6  N   UNL     1       5.653   4.451  18.402  0.00  0.00    +0.000 N 
ATOM      7  C   UNL     1       6.749   5.226  18.770  0.00  0.00    +0.000 C 
ATOM      8  O   UNL     1       7.044   5.410  19.959  0.00  0.00    +0.000 OA
ATOM      9  C   UNL     1       5.253   4.104  17.041  0.00  0.00    +0.000 C 
ATOM     10  C   UNL     1       3.780   4.435  16.805  0.00  0.00    +0.000 C 
ENDBRANCH   1   7
BRANCH   1  11
ATOM     11  S   UNL     1       7.170   7.664  17.561  0.00  0.00    +0.000 S 
BRANCH  11  12
ATOM     12  C   UNL     1       8.525   8.386  18.573  0.00  0.00    +0.000 C 
BRANCH  12  13
ATOM     13  C   UNL     1       8.628   9.900  18.267  0.00  0.00    +0.000 C 
BRANCH  13  14
ATOM     14  N   UNL     1       9.845  10.587  18.746  0.00  0.00    +0.000 NA
ATOM     15  C   UNL     1       9.745  11.187  20.091  0.00  0.00    +0.000 C 
ATOM     16  C   UNL     1       8.995  12.531  20.177  0.00  0.00    +0.000 C 
ATOM     17  O   UNL     1       9.493  13.487  19.238  0.00  0.00    +0.000 OA
ATOM     18  C   UNL     1       9.468  12.969  17.905  0.00  0.00    +0.000 C 
ATOM     19  C   UNL     1      10.270  11.653  17.804  0.00  0.00    +0.000 C 
ENDBRANCH  13  14
ENDBRANCH  12  13
ENDBRANCH  11  12
ENDBRANCH   1  11
TORSDOF 5
ENDMDL
MODEL 6
REMARK VINA RESULT:      -5.9      6.610      8.003
REMARK  Name = 
REMARK  6 active torsions:
REMARK  status: ('A' for Active; 'I' for Inactive)
REMARK    1  A    between atoms: C_1  and  C_2
REMARK    2  A    between atoms: C_6  and  C_8
REMARK    3  A    between atoms: C_8  and  S_9
REMARK    4  A    between atoms: S_9  and  C_10
REMARK    5  A    between atoms: C_10  and  C_11
REMARK    6  A    between atoms: C_11  and  N_12
REMARK                            x       y       z     vdW  Elec       q    Type
REMARK                         _______ _______ _______ _____ _____    ______ ____
ROOT
ATOM      1  C   UNL     1       1.964   8.576  18.103  0.00  0.00    +0.000 C 
ENDROOT
BRANCH   1   7
ATOM      2  C   UNL     1       0.747   2.350  18.793  0.00  0.00    +0.000 C 
ATOM      3  C   UNL     1       1.734   3.501  18.978  0.00  0.00    +0.000 C 
ATOM      4  C   UNL     1       1.408   4.293  20.253  0.00  0.00    +0.000 C 
ATOM      5  C   UNL     1       2.337   5.494  20.409  0.00  0.00    +0.000 C 
ATOM      6  N   UNL     1       2.282   6.340  19.209  0.00  0.00    +0.000 N 
ATOM      7  C   UNL     1       2.014   7.699  19.353  0.00  0.00    +0.000 C 
ATOM      8  O   UNL     1       1.793   8.203  20.462  0.00  0.00    +0.000 OA
ATOM      9  C   UNL     1       2.629   5.650  17.970  0.00  0.00    +0.000 C 
ATOM     10  C   UNL     1       1.732   4.433  17.754  0.00  0.00    +0.000 C 
ENDBRANCH   1   7
BRANCH   1  11
ATOM     11  S   UNL     1       1.596  10.304  18.568  0.00  0.00    +0.000 S 
BRANCH  11  12
ATOM     12  C   UNL     1      -0.243  10.259  18.580  0.00  0.00    +0.000 C 
BRANCH  12  13
ATOM     13  C   UNL     1      -0.757  11.094  19.779  0.00  0.00    +0.000 C 
BRANCH  13  14
ATOM     14  N   UNL     1       0.173  11.256  20.915  0.00  0.00    +0.000 NA
ATOM     15  C   UNL     1      -0.193  10.521  22.142  0.00  0.00    +0.000 C 
ATOM     16  C   UNL     1      -1.302  11.157  23.004  0.00  0.00    +0.000 C 
ATOM     17  O   UNL     1      -1.032  12.529  23.303  0.00  0.00    +0.000 OA
ATOM     18  C   UNL     1      -0.809  13.287  22.112  0.00  0.00    +0.000 C 
ATOM     19  C   UNL     1       0.342  12.687  21.276  0.00  0.00    +0.000 C 
ENDBRANCH  13  14
ENDBRANCH  12  13
ENDBRANCH  11  12
ENDBRANCH   1  11
TORSDOF 5
ENDMDL
MODEL 7
REMARK VINA RESULT:      -5.8      5.271      8.476
REMARK  Name = 
REMARK  6 active torsions:
REMARK  status: ('A' for Active; 'I' for Inactive)
REMARK    1  A    between atoms: C_1  and  C_2
REMARK    2  A    between atoms: C_6  and  C_8
REMARK    3  A    between atoms: C_8  and  S_9
REMARK    4  A    between atoms: S_9  and  C_10
REMARK    5  A    between atoms: C_10  and  C_11
REMARK    6  A    between atoms: C_11  and  N_12
REMARK                            x       y       z     vdW  Elec       q    Type
REMARK                         _______ _______ _______ _____ _____    ______ ____
ROOT
ATOM      1  C   UNL     1       4.549   4.204  19.399  0.00  0.00    +0.000 C 
ENDROOT
BRANCH   1   7
ATOM      2  C   UNL     1       6.628   4.107  13.367  0.00  0.00    +0.000 C 
ATOM      3  C   UNL     1       6.292   4.938  14.603  0.00  0.00    +0.000 C 
ATOM      4  C   UNL     1       7.452   4.904  15.610  0.00  0.00    +0.000 C 
ATOM      5  C   UNL     1       7.099   5.664  16.885  0.00  0.00    +0.000 C 
ATOM      6  N   UNL     1       5.856   5.138  17.464  0.00  0.00    +0.000 N 
ATOM      7  C   UNL     1       5.846   4.744  18.799  0.00  0.00    +0.000 C 
ATOM      8  O   UNL     1       6.866   4.797  19.499  0.00  0.00    +0.000 OA
ATOM      9  C   UNL     1       4.705   5.190  16.566  0.00  0.00    +0.000 C 
ATOM     10  C   UNL     1       4.995   4.445  15.265  0.00  0.00    +0.000 C 
ENDBRANCH   1   7
BRANCH   1  11
ATOM     11  S   UNL     1       4.790   2.483  19.965  0.00  0.00    +0.000 S 
BRANCH  11  12
ATOM     12  C   UNL     1       3.597   1.606  18.875  0.00  0.00    +0.000 C 
BRANCH  12  13
ATOM     13  C   UNL     1       3.084   2.592  17.796  0.00  0.00    +0.000 C 
BRANCH  13  14
ATOM     14  N   UNL     1       1.638   2.894  17.814  0.00  0.00    +0.000 NA
ATOM     15  C   UNL     1       1.292   4.328  17.862  0.00  0.00    +0.000 C 
ATOM     16  C   UNL     1       1.414   5.006  19.241  0.00  0.00    +0.000 C 
ATOM     17  O   UNL     1       0.714   4.286  20.259  0.00  0.00    +0.000 OA
ATOM     18  C   UNL     1       1.139   2.923  20.319  0.00  0.00    +0.000 C 
ATOM     19  C   UNL     1       0.960   2.224  18.953  0.00  0.00    +0.000 C 
ENDBRANCH  13  14
ENDBRANCH  12  13
ENDBRANCH  11  12
ENDBRANCH   1  11
TORSDOF 5
ENDMDL
MODEL 8
REMARK VINA RESULT:      -5.8      7.012      9.324
REMARK  Name = 
REMARK  6 active torsions:
REMARK  status: ('A' for Active; 'I' for Inactive)
REMARK    1  A    between atoms: C_1  and  C_2
REMARK    2  A    between atoms: C_6  and  C_8
REMARK    3  A    between atoms: C_8  and  S_9
REMARK    4  A    between atoms: S_9  and  C_10
REMARK    5  A    between atoms: C_10  and  C_11
REMARK    6  A    between atoms: C_11  and  N_12
REMARK                            x       y       z     vdW  Elec       q    Type
REMARK                         _______ _______ _______ _____ _____    ______ ____
ROOT
ATOM      1  C   UNL     1       1.294   9.107  19.349  0.00  0.00    +0.000 C 
ENDROOT
BRANCH   1   7
ATOM      2  C   UNL     1       1.436   2.811  18.321  0.00  0.00    +0.000 C 
ATOM      3  C   UNL     1       2.147   4.046  18.871  0.00  0.00    +0.000 C 
ATOM      4  C   UNL     1       1.632   4.385  20.278  0.00  0.00    +0.000 C 
ATOM      5  C   UNL     1       2.275   5.663  20.808  0.00  0.00    +0.000 C 
ATOM      6  N   UNL     1       2.063   6.770  19.865  0.00  0.00    +0.000 N 
ATOM      7  C   UNL     1       1.506   7.957  20.331  0.00  0.00    +0.000 C 
ATOM      8  O   UNL     1       1.158   8.091  21.512  0.00  0.00    +0.000 OA
ATOM      9  C   UNL     1       2.578   6.521  18.521  0.00  0.00    +0.000 C 
ATOM     10  C   UNL     1       1.970   5.250  17.931  0.00  0.00    +0.000 C 
ENDBRANCH   1   7
BRANCH   1  11
ATOM     11  S   UNL     1      -0.071  10.177  19.924  0.00  0.00    +0.000 S 
BRANCH  11  12
ATOM     12  C   UNL     1      -0.004  11.509  18.658  0.00  0.00    +0.000 C 
BRANCH  12  13
ATOM     13  C   UNL     1      -1.437  11.777  18.135  0.00  0.00    +0.000 C 
BRANCH  13  14
ATOM     14  N   UNL     1      -2.314  10.598  17.985  0.00  0.00    +0.000 NA
ATOM     15  C   UNL     1      -2.116   9.816  16.749  0.00  0.00    +0.000 C 
ATOM     16  C   UNL     1      -2.746  10.403  15.470  0.00  0.00    +0.000 C 
ATOM     17  O   UNL     1      -4.130  10.719  15.648  0.00  0.00    +0.000 OA
ATOM     18  C   UNL     1      -4.325  11.591  16.764  0.00  0.00    +0.000 C 
ATOM     19  C   UNL     1      -3.748  10.977  18.058  0.00  0.00    +0.000 C 
ENDBRANCH  13  14
ENDBRANCH  12  13
ENDBRANCH  11  12
ENDBRANCH   1  11
TORSDOF 5
ENDMDL
MODEL 9
REMARK VINA RESULT:      -5.7      1.098      1.504
REMARK  Name = 
REMARK  6 active torsions:
REMARK  status: ('A' for Active; 'I' for Inactive)
REMARK    1  A    between atoms: C_1  and  C_2
REMARK    2  A    between atoms: C_6  and  C_8
REMARK    3  A    between atoms: C_8  and  S_9
REMARK    4  A    between atoms: S_9  and  C_10
REMARK    5  A    between atoms: C_10  and  C_11
REMARK    6  A    between atoms: C_11  and  N_12
REMARK                            x       y       z     vdW  Elec       q    Type
REMARK                         _______ _______ _______ _____ _____    ______ ____
ROOT
ATOM      1  C   UNL     1       7.772   7.056  18.211  0.00  0.00    +0.000 C 
ENDROOT
BRANCH   1   7
ATOM      2  C   UNL     1       3.353   2.458  17.996  0.00  0.00    +0.000 C 
ATOM      3  C   UNL     1       3.770   3.867  17.583  0.00  0.00    +0.000 C 
ATOM      4  C   UNL     1       4.707   3.819  16.366  0.00  0.00    +0.000 C 
ATOM      5  C   UNL     1       5.196   5.215  15.991  0.00  0.00    +0.000 C 
ATOM      6  N   UNL     1       5.833   5.860  17.147  0.00  0.00    +0.000 N 
ATOM      7  C   UNL     1       7.117   6.380  17.008  0.00  0.00    +0.000 C 
ATOM      8  O   UNL     1       7.744   6.284  15.945  0.00  0.00    +0.000 OA
ATOM      9  C   UNL     1       4.971   5.977  18.321  0.00  0.00    +0.000 C 
ATOM     10  C   UNL     1       4.446   4.609  18.749  0.00  0.00    +0.000 C 
ENDBRANCH   1   7
BRANCH   1  11
ATOM     11  S   UNL     1       8.148   8.801  17.820  0.00  0.00    +0.000 S 
BRANCH  11  12
ATOM     12  C   UNL     1       8.996   9.312  19.370  0.00  0.00    +0.000 C 
BRANCH  12  13
ATOM     13  C   UNL     1       9.349  10.817  19.275  0.00  0.00    +0.000 C 
BRANCH  13  14
ATOM     14  N   UNL     1       9.575  11.356  17.919  0.00  0.00    +0.000 NA
ATOM     15  C   UNL     1      10.906  11.951  17.688  0.00  0.00    +0.000 C 
ATOM     16  C   UNL     1      11.118  13.371  18.250  0.00  0.00    +0.000 C 
ATOM     17  O   UNL     1      10.088  14.272  17.836  0.00  0.00    +0.000 OA
ATOM     18  C   UNL     1       8.792  13.774  18.177  0.00  0.00    +0.000 C 
ATOM     19  C   UNL     1       8.555  12.375  17.564  0.00  0.00    +0.000 C 
ENDBRANCH  13  14
ENDBRANCH  12  13
ENDBRANCH  11  12
ENDBRANCH   1  11
TORSDOF 5
ENDMDL
