MODEL 1
REMARK VINA RESULT:      -8.5      0.000      0.000
REMARK  Name = 
REMARK  5 active torsions:
REMARK  status: ('A' for Active; 'I' for Inactive)
REMARK    1  A    between atoms: N_1  and  C_2
REMARK    2  A    between atoms: N_5  and  C_6
REMARK    3  A    between atoms: C_6  and  C_7
REMARK    4  A    between atoms: C_7  and  C_8
REMARK    5  A    between atoms: C_19  and  C_20
REMARK                            x       y       z     vdW  Elec       q    Type
REMARK                         _______ _______ _______ _____ _____    ______ ____
ROOT
ATOM      1  C   UNL     1       0.807   9.739  19.143  0.00  0.00    +0.000 A 
ATOM      2  N   UNL     1       1.566   8.638  19.023  0.00  0.00    +0.000 NA
ATOM      3  C   UNL     1       1.848   7.892  20.121  0.00  0.00    +0.000 A 
ATOM      4  N   UNL     1       2.523   6.690  19.949  0.00  0.00    +0.000 N 
ATOM      5  N   UNL     1       1.452   8.205  21.367  0.00  0.00    +0.000 NA
ATOM      6  C   UNL     1       0.717   9.332  21.420  0.00  0.00    +0.000 A 
ATOM      7  C   UNL     1       0.368  10.100  20.365  0.00  0.00    +0.000 A 
ATOM      8  N   UNL     1      -0.421  11.212  20.758  0.00  0.00    +0.000 N 
ATOM      9  O   UNL     1      -0.799  12.119  19.952  0.00  0.00    +0.000 OA
ATOM     10  C   UNL     1      -0.617  11.191  22.059  0.00  0.00    +0.000 C 
ATOM     11  C   UNL     1       0.120   9.983  22.595  0.00  0.00    +0.000 C 
ATOM     12  O   UNL     1       0.184   9.687  23.761  0.00  0.00    +0.000 OA
ATOM     13  H   UNL     1       2.760   6.300  20.851  0.00  0.00    +0.000 HD
ENDROOT
BRANCH  10  14
ATOM     14  C   UNL     1      -1.386  12.187  22.808  0.00  0.00    +0.000 A 
ATOM     15  C   UNL     1      -2.683  11.894  23.254  0.00  0.00    +0.000 A 
ATOM     16  C   UNL     1      -3.443  12.856  23.924  0.00  0.00    +0.000 A 
ATOM     17  C   UNL     1      -2.909  14.119  24.161  0.00  0.00    +0.000 A 
ATOM     18  C   UNL     1      -1.615  14.415  23.738  0.00  0.00    +0.000 A 
ATOM     19  C   UNL     1      -0.848  13.453  23.065  0.00  0.00    +0.000 A 
ENDBRANCH  10  14
BRANCH   1  20
ATOM     20  N   UNL     1       0.386  10.361  17.983  0.00  0.00    +0.000 N 
ATOM     21  H   UNL     1      -0.084  11.243  18.171  0.00  0.00    +0.000 HD
ATOM     22  H   UNL     1      -0.072   9.753  17.307  0.00  0.00    +0.000 HD
ENDBRANCH   1  20
BRANCH   4  23
ATOM     23  C   UNL     1       3.554   6.677  18.909  0.00  0.00    +0.000 C 
BRANCH  23  24
ATOM     24  C   UNL     1       3.166   5.729  17.764  0.00  0.00    +0.000 C 
BRANCH  24  25
ATOM     25  C   UNL     1       2.750   4.354  18.240  0.00  0.00    +0.000 A 
ATOM     26  C   UNL     1       3.688   3.450  18.761  0.00  0.00    +0.000 A 
ATOM     27  C   UNL     1       3.286   2.186  19.208  0.00  0.00    +0.000 A 
ATOM     28  C   UNL     1       1.948   1.810  19.138  0.00  0.00    +0.000 A 
ATOM     29  C   UNL     1       1.007   2.696  18.616  0.00  0.00    +0.000 A 
ATOM     30  C   UNL     1       1.405   3.957  18.168  0.00  0.00    +0.000 A 
ENDBRANCH  24  25
ENDBRANCH  23  24
ENDBRANCH   4  23
TORSDOF 5
ENDMDL
MODEL 2
REMARK VINA RESULT:      -8.5      0.113      1.316
REMARK  Name = 
REMARK  5 active torsions:
REMARK  status: ('A' for Active; 'I' for Inactive)
REMARK    1  A    between atoms: N_1  and  C_2
REMARK    2  A    between atoms: N_5  and  C_6
REMARK    3  A    between atoms: C_6  and  C_7
REMARK    4  A    between atoms: C_7  and  C_8
REMARK    5  A    between atoms: C_19  and  C_20
REMARK                            x       y       z     vdW  Elec       q    Type
REMARK                         _______ _______ _______ _____ _____    ______ ____
ROOT
ATOM      1  C   UNL     1       0.742   9.792  19.177  0.00  0.00    +0.000 A 
ATOM      2  N   UNL     1       1.501   8.689  19.073  0.00  0.00    +0.000 NA
ATOM      3  C   UNL     1       1.776   7.955  20.181  0.00  0.00    +0.000 A 
ATOM      4  N   UNL     1       2.451   6.751  20.027  0.00  0.00    +0.000 N 
ATOM      5  N   UNL     1       1.374   8.284  21.422  0.00  0.00    +0.000 NA
ATOM      6  C   UNL     1       0.640   9.411  21.457  0.00  0.00    +0.000 A 
ATOM      7  C   UNL     1       0.297  10.167  20.392  0.00  0.00    +0.000 A 
ATOM      8  N   UNL     1      -0.493  11.285  20.767  0.00  0.00    +0.000 N 
ATOM      9  O   UNL     1      -0.865  12.182  19.949  0.00  0.00    +0.000 OA
ATOM     10  C   UNL     1      -0.696  11.279  22.068  0.00  0.00    +0.000 C 
ATOM     11  C   UNL     1       0.038  10.077  22.622  0.00  0.00    +0.000 C 
ATOM     12  O   UNL     1       0.095   9.795  23.792  0.00  0.00    +0.000 OA
ATOM     13  H   UNL     1       2.683   6.371  20.935  0.00  0.00    +0.000 HD
ENDROOT
BRANCH  10  14
ATOM     14  C   UNL     1      -1.468  12.285  22.801  0.00  0.00    +0.000 A 
ATOM     15  C   UNL     1      -0.895  13.523  23.123  0.00  0.00    +0.000 A 
ATOM     16  C   UNL     1      -1.606  14.468  23.867  0.00  0.00    +0.000 A 
ATOM     17  C   UNL     1      -2.901  14.185  24.290  0.00  0.00    +0.000 A 
ATOM     18  C   UNL     1      -3.486  12.965  23.959  0.00  0.00    +0.000 A 
ATOM     19  C   UNL     1      -2.777  12.014  23.213  0.00  0.00    +0.000 A 
ENDBRANCH  10  14
BRANCH   1  20
ATOM     20  N   UNL     1       0.328  10.400  18.006  0.00  0.00    +0.000 N 
ATOM     21  H   UNL     1       1.107  10.790  17.482  0.00  0.00    +0.000 HD
ATOM     22  H   UNL     1      -0.489  11.001  18.096  0.00  0.00    +0.000 HD
ENDBRANCH   1  20
BRANCH   4  23
ATOM     23  C   UNL     1       3.488   6.725  18.993  0.00  0.00    +0.000 C 
BRANCH  23  24
ATOM     24  C   UNL     1       3.080   5.805  17.832  0.00  0.00    +0.000 C 
BRANCH  24  25
ATOM     25  C   UNL     1       2.705   4.408  18.279  0.00  0.00    +0.000 A 
ATOM     26  C   UNL     1       1.389   3.936  18.165  0.00  0.00    +0.000 A 
ATOM     27  C   UNL     1       1.061   2.638  18.572  0.00  0.00    +0.000 A 
ATOM     28  C   UNL     1       2.039   1.799  19.099  0.00  0.00    +0.000 A 
ATOM     29  C   UNL     1       3.348   2.258  19.224  0.00  0.00    +0.000 A 
ATOM     30  C   UNL     1       3.679   3.553  18.820  0.00  0.00    +0.000 A 
ENDBRANCH  24  25
ENDBRANCH  23  24
ENDBRANCH   4  23
TORSDOF 5
ENDMDL
MODEL 3
REMARK VINA RESULT:      -8.4      1.610      2.393
REMARK  Name = 
REMARK  5 active torsions:
REMARK  status: ('A' for Active; 'I' for Inactive)
REMARK    1  A    between atoms: N_1  and  C_2
REMARK    2  A    between atoms: N_5  and  C_6
REMARK    3  A    between atoms: C_6  and  C_7
REMARK    4  A    between atoms: C_7  and  C_8
REMARK    5  A    between atoms: C_19  and  C_20
REMARK                            x       y       z     vdW  Elec       q    Type
REMARK                         _______ _______ _______ _____ _____    ______ ____
ROOT
ATOM      1  C   UNL     1       0.816   9.641  19.185  0.00  0.00    +0.000 A 
ATOM      2  N   UNL     1       1.547   8.517  19.117  0.00  0.00    +0.000 NA
ATOM      3  C   UNL     1       1.787   7.801  20.245  0.00  0.00    +0.000 A 
ATOM      4  N   UNL     1       2.432   6.577  20.127  0.00  0.00    +0.000 N 
ATOM      5  N   UNL     1       1.376   8.167  21.472  0.00  0.00    +0.000 NA
ATOM      6  C   UNL     1       0.671   9.314  21.472  0.00  0.00    +0.000 A 
ATOM      7  C   UNL     1       0.364  10.055  20.386  0.00  0.00    +0.000 A 
ATOM      8  N   UNL     1      -0.401  11.201  20.724  0.00  0.00    +0.000 N 
ATOM      9  O   UNL     1      -0.739  12.089  19.881  0.00  0.00    +0.000 OA
ATOM     10  C   UNL     1      -0.623  11.230  22.022  0.00  0.00    +0.000 C 
ATOM     11  C   UNL     1       0.071  10.022  22.612  0.00  0.00    +0.000 C 
ATOM     12  O   UNL     1       0.104   9.764  23.789  0.00  0.00    +0.000 OA
ATOM     13  H   UNL     1       2.641   6.211  21.047  0.00  0.00    +0.000 HD
ENDROOT
BRANCH  10  14
ATOM     14  C   UNL     1      -1.378  12.271  22.721  0.00  0.00    +0.000 A 
ATOM     15  C   UNL     1      -0.796  13.522  22.974  0.00  0.00    +0.000 A 
ATOM     16  C   UNL     1      -1.490  14.502  23.686  0.00  0.00    +0.000 A 
ATOM     17  C   UNL     1      -2.778  14.244  24.146  0.00  0.00    +0.000 A 
ATOM     18  C   UNL     1      -3.372  13.012  23.884  0.00  0.00    +0.000 A 
ATOM     19  C   UNL     1      -2.680  12.024  23.170  0.00  0.00    +0.000 A 
ENDBRANCH  10  14
BRANCH   1  20
ATOM     20  N   UNL     1       0.434  10.233  17.996  0.00  0.00    +0.000 N 
ATOM     21  H   UNL     1       0.944  11.095  17.818  0.00  0.00    +0.000 HD
ATOM     22  H   UNL     1      -0.570  10.273  17.834  0.00  0.00    +0.000 HD
ENDBRANCH   1  20
BRANCH   4  23
ATOM     23  C   UNL     1       3.482   6.500  19.109  0.00  0.00    +0.000 C 
BRANCH  23  24
ATOM     24  C   UNL     1       4.270   5.186  19.233  0.00  0.00    +0.000 C 
BRANCH  24  25
ATOM     25  C   UNL     1       5.146   4.899  18.032  0.00  0.00    +0.000 A 
ATOM     26  C   UNL     1       6.544   4.872  18.141  0.00  0.00    +0.000 A 
ATOM     27  C   UNL     1       7.339   4.594  17.023  0.00  0.00    +0.000 A 
ATOM     28  C   UNL     1       6.750   4.343  15.787  0.00  0.00    +0.000 A 
ATOM     29  C   UNL     1       5.362   4.374  15.664  0.00  0.00    +0.000 A 
ATOM     30  C   UNL     1       4.566   4.652  16.777  0.00  0.00    +0.000 A 
ENDBRANCH  24  25
ENDBRANCH  23  24
ENDBRANCH   4  23
TORSDOF 5
ENDMDL
MODEL 4
REMARK VINA RESULT:      -8.3      1.627      2.418
REMARK  Name = 
REMARK  5 active torsions:
REMARK  status: ('A' for Active; 'I' for Inactive)
REMARK    1  A    between atoms: N_1  and  C_2
REMARK    2  A    between atoms: N_5  and  C_6
REMARK    3  A    between atoms: C_6  and  C_7
REMARK    4  A    between atoms: C_7  and  C_8
REMARK    5  A    between atoms: C_19  and  C_20
REMARK                            x       y       z     vdW  Elec       q    Type
REMARK                         _______ _______ _______ _____ _____    ______ ____
ROOT
ATOM      1  C   UNL     1       0.862   9.592  19.169  0.00  0.00    +0.000 A 
ATOM      2  N   UNL     1       1.580   8.460  19.093  0.00  0.00    +0.000 NA
ATOM      3  C   UNL     1       1.813   7.735  20.216  0.00  0.00    +0.000 A 
ATOM      4  N   UNL     1       2.444   6.504  20.090  0.00  0.00    +0.000 N 
ATOM      5  N   UNL     1       1.409   8.099  21.446  0.00  0.00    +0.000 NA
ATOM      6  C   UNL     1       0.718   9.255  21.454  0.00  0.00    +0.000 A 
ATOM      7  C   UNL     1       0.418  10.005  20.372  0.00  0.00    +0.000 A 
ATOM      8  N   UNL     1      -0.333  11.158  20.719  0.00  0.00    +0.000 N 
ATOM      9  O   UNL     1      -0.662  12.055  19.881  0.00  0.00    +0.000 OA
ATOM     10  C   UNL     1      -0.552  11.182  22.017  0.00  0.00    +0.000 C 
ATOM     11  C   UNL     1       0.128   9.963  22.600  0.00  0.00    +0.000 C 
ATOM     12  O   UNL     1       0.161   9.698  23.775  0.00  0.00    +0.000 OA
ATOM     13  H   UNL     1       2.650   6.130  21.007  0.00  0.00    +0.000 HD
ENDROOT
BRANCH  10  14
ATOM     14  C   UNL     1      -1.294  12.228  22.723  0.00  0.00    +0.000 A 
ATOM     15  C   UNL     1      -2.599  11.990  23.177  0.00  0.00    +0.000 A 
ATOM     16  C   UNL     1      -3.333  12.999  23.806  0.00  0.00    +0.000 A 
ATOM     17  C   UNL     1      -2.764  14.255  23.994  0.00  0.00    +0.000 A 
ATOM     18  C   UNL     1      -1.461  14.497  23.563  0.00  0.00    +0.000 A 
ATOM     19  C   UNL     1      -0.721  13.487  22.931  0.00  0.00    +0.000 A 
ENDBRANCH  10  14
BRANCH   1  20
ATOM     20  N   UNL     1       0.486  10.196  17.984  0.00  0.00    +0.000 N 
ATOM     21  H   UNL     1       0.628   9.586  17.182  0.00  0.00    +0.000 HD
ATOM     22  H   UNL     1       0.799  11.157  17.868  0.00  0.00    +0.000 HD
ENDBRANCH   1  20
BRANCH   4  23
ATOM     23  C   UNL     1       3.491   6.421  19.070  0.00  0.00    +0.000 C 
BRANCH  23  24
ATOM     24  C   UNL     1       3.965   4.970  18.888  0.00  0.00    +0.000 C 
BRANCH  24  25
ATOM     25  C   UNL     1       5.027   4.818  17.821  0.00  0.00    +0.000 A 
ATOM     26  C   UNL     1       4.688   4.752  16.461  0.00  0.00    +0.000 A 
ATOM     27  C   UNL     1       5.684   4.622  15.485  0.00  0.00    +0.000 A 
ATOM     28  C   UNL     1       7.024   4.553  15.854  0.00  0.00    +0.000 A 
ATOM     29  C   UNL     1       7.373   4.610  17.203  0.00  0.00    +0.000 A 
ATOM     30  C   UNL     1       6.383   4.739  18.178  0.00  0.00    +0.000 A 
ENDBRANCH  24  25
ENDBRANCH  23  24
ENDBRANCH   4  23
TORSDOF 5
ENDMDL
MODEL 5
REMARK VINA RESULT:      -8.3      1.967      2.731
REMARK  Name = 
REMARK  5 active torsions:
REMARK  status: ('A' for Active; 'I' for Inactive)
REMARK    1  A    between atoms: N_1  and  C_2
REMARK    2  A    between atoms: N_5  and  C_6
REMARK    3  A    between atoms: C_6  and  C_7
REMARK    4  A    between atoms: C_7  and  C_8
REMARK    5  A    between atoms: C_19  and  C_20
REMARK                            x       y       z     vdW  Elec       q    Type
REMARK                         _______ _______ _______ _____ _____    ______ ____
ROOT
ATOM      1  C   UNL     1       0.045  10.520  18.832  0.00  0.00    +0.000 A 
ATOM      2  N   UNL     1       0.873   9.512  18.517  0.00  0.00    +0.000 NA
ATOM      3  C   UNL     1       1.375   8.721  19.499  0.00  0.00    +0.000 A 
ATOM      4  N   UNL     1       2.123   7.608  19.137  0.00  0.00    +0.000 N 
ATOM      5  N   UNL     1       1.138   8.906  20.810  0.00  0.00    +0.000 NA
ATOM      6  C   UNL     1       0.321   9.947  21.057  0.00  0.00    +0.000 A 
ATOM      7  C   UNL     1      -0.243  10.749  20.129  0.00  0.00    +0.000 A 
ATOM      8  N   UNL     1      -1.062  11.746  20.717  0.00  0.00    +0.000 N 
ATOM      9  O   UNL     1      -1.631  12.666  20.049  0.00  0.00    +0.000 OA
ATOM     10  C   UNL     1      -1.066  11.615  22.027  0.00  0.00    +0.000 C 
ATOM     11  C   UNL     1      -0.154  10.452  22.354  0.00  0.00    +0.000 C 
ATOM     12  O   UNL     1       0.104  10.082  23.471  0.00  0.00    +0.000 OA
ATOM     13  H   UNL     1       2.521   7.181  19.962  0.00  0.00    +0.000 HD
ENDROOT
BRANCH  10  14
ATOM     14  C   UNL     1      -1.803  12.474  22.955  0.00  0.00    +0.000 A 
ATOM     15  C   UNL     1      -3.078  12.103  23.406  0.00  0.00    +0.000 A 
ATOM     16  C   UNL     1      -3.810  12.942  24.250  0.00  0.00    +0.000 A 
ATOM     17  C   UNL     1      -3.270  14.157  24.657  0.00  0.00    +0.000 A 
ATOM     18  C   UNL     1      -1.997  14.528  24.230  0.00  0.00    +0.000 A 
ATOM     19  C   UNL     1      -1.258  13.690  23.382  0.00  0.00    +0.000 A 
ENDBRANCH  10  14
BRANCH   1  20
ATOM     20  N   UNL     1      -0.593  11.177  17.796  0.00  0.00    +0.000 N 
ATOM     21  H   UNL     1       0.025  11.828  17.319  0.00  0.00    +0.000 HD
ATOM     22  H   UNL     1      -1.523  11.529  18.014  0.00  0.00    +0.000 HD
ENDBRANCH   1  20
BRANCH   4  23
ATOM     23  C   UNL     1       2.990   7.771  17.968  0.00  0.00    +0.000 C 
BRANCH  23  24
ATOM     24  C   UNL     1       3.616   6.428  17.560  0.00  0.00    +0.000 C 
BRANCH  24  25
ATOM     25  C   UNL     1       5.075   6.307  17.945  0.00  0.00    +0.000 A 
ATOM     26  C   UNL     1       5.478   5.515  19.030  0.00  0.00    +0.000 A 
ATOM     27  C   UNL     1       6.832   5.404  19.366  0.00  0.00    +0.000 A 
ATOM     28  C   UNL     1       7.797   6.083  18.628  0.00  0.00    +0.000 A 
ATOM     29  C   UNL     1       7.409   6.880  17.552  0.00  0.00    +0.000 A 
ATOM     30  C   UNL     1       6.059   6.993  17.215  0.00  0.00    +0.000 A 
ENDBRANCH  24  25
ENDBRANCH  23  24
ENDBRANCH   4  23
TORSDOF 5
ENDMDL
MODEL 6
REMARK VINA RESULT:      -8.2      1.966      2.886
REMARK  Name = 
REMARK  5 active torsions:
REMARK  status: ('A' for Active; 'I' for Inactive)
REMARK    1  A    between atoms: N_1  and  C_2
REMARK    2  A    between atoms: N_5  and  C_6
REMARK    3  A    between atoms: C_6  and  C_7
REMARK    4  A    between atoms: C_7  and  C_8
REMARK    5  A    between atoms: C_19  and  C_20
REMARK                            x       y       z     vdW  Elec       q    Type
REMARK                         _______ _______ _______ _____ _____    ______ ____
ROOT
ATOM      1  C   UNL     1      -0.015  10.546  18.829  0.00  0.00    +0.000 A 
ATOM      2  N   UNL     1       0.823   9.541  18.528  0.00  0.00    +0.000 NA
ATOM      3  C   UNL     1       1.337   8.773  19.522  0.00  0.00    +0.000 A 
ATOM      4  N   UNL     1       2.095   7.662  19.175  0.00  0.00    +0.000 N 
ATOM      5  N   UNL     1       1.102   8.977  20.830  0.00  0.00    +0.000 NA
ATOM      6  C   UNL     1       0.276  10.013  21.063  0.00  0.00    +0.000 A 
ATOM      7  C   UNL     1      -0.300  10.793  20.123  0.00  0.00    +0.000 A 
ATOM      8  N   UNL     1      -1.128  11.792  20.698  0.00  0.00    +0.000 N 
ATOM      9  O   UNL     1      -1.709  12.694  20.017  0.00  0.00    +0.000 OA
ATOM     10  C   UNL     1      -1.125  11.682  22.010  0.00  0.00    +0.000 C 
ATOM     11  C   UNL     1      -0.201  10.535  22.352  0.00  0.00    +0.000 C 
ATOM     12  O   UNL     1       0.065  10.187  23.475  0.00  0.00    +0.000 OA
ATOM     13  H   UNL     1       2.501   7.252  20.005  0.00  0.00    +0.000 HD
ENDROOT
BRANCH  10  14
ATOM     14  C   UNL     1      -1.869  12.549  22.926  0.00  0.00    +0.000 A 
ATOM     15  C   UNL     1      -1.305  13.750  23.382  0.00  0.00    +0.000 A 
ATOM     16  C   UNL     1      -1.986  14.558  24.296  0.00  0.00    +0.000 A 
ATOM     17  C   UNL     1      -3.241  14.175  24.759  0.00  0.00    +0.000 A 
ATOM     18  C   UNL     1      -3.818  12.993  24.299  0.00  0.00    +0.000 A 
ATOM     19  C   UNL     1      -3.139  12.179  23.381  0.00  0.00    +0.000 A 
ENDBRANCH  10  14
BRANCH   1  20
ATOM     20  N   UNL     1      -0.663  11.178  17.785  0.00  0.00    +0.000 N 
ATOM     21  H   UNL     1      -0.107  11.933  17.392  0.00  0.00    +0.000 HD
ATOM     22  H   UNL     1      -1.644  11.393  17.951  0.00  0.00    +0.000 HD
ENDBRANCH   1  20
BRANCH   4  23
ATOM     23  C   UNL     1       2.956   7.814  18.000  0.00  0.00    +0.000 C 
BRANCH  23  24
ATOM     24  C   UNL     1       3.548   6.461  17.576  0.00  0.00    +0.000 C 
BRANCH  24  25
ATOM     25  C   UNL     1       5.015   6.315  17.920  0.00  0.00    +0.000 A 
ATOM     26  C   UNL     1       6.005   6.974  17.177  0.00  0.00    +0.000 A 
ATOM     27  C   UNL     1       7.357   6.838  17.515  0.00  0.00    +0.000 A 
ATOM     28  C   UNL     1       7.734   6.043  18.594  0.00  0.00    +0.000 A 
ATOM     29  C   UNL     1       6.760   5.378  19.335  0.00  0.00    +0.000 A 
ATOM     30  C   UNL     1       5.411   5.510  19.000  0.00  0.00    +0.000 A 
ENDBRANCH  24  25
ENDBRANCH  23  24
ENDBRANCH   4  23
TORSDOF 5
ENDMDL
MODEL 7
REMARK VINA RESULT:      -8.2      0.704      1.175
REMARK  Name = 
REMARK  5 active torsions:
REMARK  status: ('A' for Active; 'I' for Inactive)
REMARK    1  A    between atoms: N_1  and  C_2
REMARK    2  A    between atoms: N_5  and  C_6
REMARK    3  A    between atoms: C_6  and  C_7
REMARK    4  A    between atoms: C_7  and  C_8
REMARK    5  A    between atoms: C_19  and  C_20
REMARK                            x       y       z     vdW  Elec       q    Type
REMARK                         _______ _______ _______ _____ _____    ______ ____
ROOT
ATOM      1  C   UNL     1       0.354  10.010  19.179  0.00  0.00    +0.000 A 
ATOM      2  N   UNL     1       1.156   8.945  19.021  0.00  0.00    +0.000 NA
ATOM      3  C   UNL     1       1.540   8.226  20.106  0.00  0.00    +0.000 A 
ATOM      4  N   UNL     1       2.261   7.056  19.904  0.00  0.00    +0.000 N 
ATOM      5  N   UNL     1       1.207   8.535  21.372  0.00  0.00    +0.000 NA
ATOM      6  C   UNL     1       0.424   9.626  21.460  0.00  0.00    +0.000 A 
ATOM      7  C   UNL     1      -0.026  10.364  20.423  0.00  0.00    +0.000 A 
ATOM      8  N   UNL     1      -0.842  11.442  20.853  0.00  0.00    +0.000 N 
ATOM      9  O   UNL     1      -1.312  12.320  20.064  0.00  0.00    +0.000 OA
ATOM     10  C   UNL     1      -0.956  11.427  22.164  0.00  0.00    +0.000 C 
ATOM     11  C   UNL     1      -0.130  10.263  22.664  0.00  0.00    +0.000 C 
ATOM     12  O   UNL     1       0.020   9.984  23.827  0.00  0.00    +0.000 OA
ATOM     13  H   UNL     1       2.572   6.688  20.793  0.00  0.00    +0.000 HD
ENDROOT
BRANCH  10  14
ATOM     14  C   UNL     1      -1.725  12.395  22.951  0.00  0.00    +0.000 A 
ATOM     15  C   UNL     1      -1.163  13.630  23.302  0.00  0.00    +0.000 A 
ATOM     16  C   UNL     1      -1.869  14.537  24.096  0.00  0.00    +0.000 A 
ATOM     17  C   UNL     1      -3.149  14.220  24.540  0.00  0.00    +0.000 A 
ATOM     18  C   UNL     1      -3.724  13.003  24.181  0.00  0.00    +0.000 A 
ATOM     19  C   UNL     1      -3.019  12.089  23.385  0.00  0.00    +0.000 A 
ENDBRANCH  10  14
BRANCH   1  20
ATOM     20  N   UNL     1      -0.167  10.597  18.041  0.00  0.00    +0.000 N 
ATOM     21  H   UNL     1      -0.167  11.612  18.101  0.00  0.00    +0.000 HD
ATOM     22  H   UNL     1      -1.025  10.176  17.690  0.00  0.00    +0.000 HD
ENDBRANCH   1  20
BRANCH   4  23
ATOM     23  C   UNL     1       3.226   7.080  18.802  0.00  0.00    +0.000 C 
BRANCH  23  24
ATOM     24  C   UNL     1       3.866   5.697  18.605  0.00  0.00    +0.000 C 
BRANCH  24  25
ATOM     25  C   UNL     1       2.937   4.552  18.949  0.00  0.00    +0.000 A 
ATOM     26  C   UNL     1       3.002   3.911  20.195  0.00  0.00    +0.000 A 
ATOM     27  C   UNL     1       2.127   2.861  20.501  0.00  0.00    +0.000 A 
ATOM     28  C   UNL     1       1.183   2.440  19.570  0.00  0.00    +0.000 A 
ATOM     29  C   UNL     1       1.113   3.065  18.326  0.00  0.00    +0.000 A 
ATOM     30  C   UNL     1       1.984   4.110  18.017  0.00  0.00    +0.000 A 
ENDBRANCH  24  25
ENDBRANCH  23  24
ENDBRANCH   4  23
TORSDOF 5
ENDMDL
MODEL 8
REMARK VINA RESULT:      -7.8      2.035      9.074
REMARK  Name = 
REMARK  5 active torsions:
REMARK  status: ('A' for Active; 'I' for Inactive)
REMARK    1  A    between atoms: N_1  and  C_2
REMARK    2  A    between atoms: N_5  and  C_6
REMARK    3  A    between atoms: C_6  and  C_7
REMARK    4  A    between atoms: C_7  and  C_8
REMARK    5  A    between atoms: C_19  and  C_20
REMARK                            x       y       z     vdW  Elec       q    Type
REMARK                         _______ _______ _______ _____ _____    ______ ____
ROOT
ATOM      1  C   UNL     1       1.086  10.353  19.179  0.00  0.00    +0.000 A 
ATOM      2  N   UNL     1       0.429  10.906  20.212  0.00  0.00    +0.000 NA
ATOM      3  C   UNL     1       0.237  10.188  21.347  0.00  0.00    +0.000 A 
ATOM      4  N   UNL     1      -0.327  10.825  22.445  0.00  0.00    +0.000 N 
ATOM      5  N   UNL     1       0.623   8.910  21.506  0.00  0.00    +0.000 NA
ATOM      6  C   UNL     1       1.251   8.410  20.426  0.00  0.00    +0.000 A 
ATOM      7  C   UNL     1       1.510   9.078  19.281  0.00  0.00    +0.000 A 
ATOM      8  N   UNL     1       2.199   8.270  18.340  0.00  0.00    +0.000 N 
ATOM      9  O   UNL     1       2.478   8.654  17.161  0.00  0.00    +0.000 OA
ATOM     10  C   UNL     1       2.419   7.074  18.845  0.00  0.00    +0.000 C 
ATOM     11  C   UNL     1       1.805   7.062  20.228  0.00  0.00    +0.000 C 
ATOM     12  O   UNL     1       1.788   6.103  20.958  0.00  0.00    +0.000 OA
ATOM     13  H   UNL     1      -0.512  10.150  23.175  0.00  0.00    +0.000 HD
ENDROOT
BRANCH  10  14
ATOM     14  C   UNL     1       3.104   5.982  18.151  0.00  0.00    +0.000 A 
ATOM     15  C   UNL     1       2.417   4.803  17.829  0.00  0.00    +0.000 A 
ATOM     16  C   UNL     1       3.077   3.737  17.213  0.00  0.00    +0.000 A 
ATOM     17  C   UNL     1       4.430   3.843  16.907  0.00  0.00    +0.000 A 
ATOM     18  C   UNL     1       5.118   5.016  17.207  0.00  0.00    +0.000 A 
ATOM     19  C   UNL     1       4.460   6.090  17.825  0.00  0.00    +0.000 A 
ENDBRANCH  10  14
BRANCH   1  20
ATOM     20  N   UNL     1       1.428  11.174  18.121  0.00  0.00    +0.000 N 
ATOM     21  H   UNL     1       1.240  10.736  17.222  0.00  0.00    +0.000 HD
ATOM     22  H   UNL     1       2.330  11.637  18.205  0.00  0.00    +0.000 HD
ENDBRANCH   1  20
BRANCH   4  23
ATOM     23  C   UNL     1      -1.370  11.810  22.149  0.00  0.00    +0.000 C 
BRANCH  23  24
ATOM     24  C   UNL     1      -2.057  12.286  23.439  0.00  0.00    +0.000 C 
BRANCH  24  25
ATOM     25  C   UNL     1      -3.545  12.511  23.277  0.00  0.00    +0.000 A 
ATOM     26  C   UNL     1      -4.115  12.726  22.013  0.00  0.00    +0.000 A 
ATOM     27  C   UNL     1      -5.494  12.922  21.879  0.00  0.00    +0.000 A 
ATOM     28  C   UNL     1      -6.318  12.909  23.001  0.00  0.00    +0.000 A 
ATOM     29  C   UNL     1      -5.762  12.704  24.263  0.00  0.00    +0.000 A 
ATOM     30  C   UNL     1      -4.387  12.509  24.400  0.00  0.00    +0.000 A 
ENDBRANCH  24  25
ENDBRANCH  23  24
ENDBRANCH   4  23
TORSDOF 5
ENDMDL
MODEL 9
REMARK VINA RESULT:      -7.8      1.555      2.366
REMARK  Name = 
REMARK  5 active torsions:
REMARK  status: ('A' for Active; 'I' for Inactive)
REMARK    1  A    between atoms: N_1  and  C_2
REMARK    2  A    between atoms: N_5  and  C_6
REMARK    3  A    between atoms: C_6  and  C_7
REMARK    4  A    between atoms: C_7  and  C_8
REMARK    5  A    between atoms: C_19  and  C_20
REMARK                            x       y       z     vdW  Elec       q    Type
REMARK                         _______ _______ _______ _____ _____    ______ ____
ROOT
ATOM      1  C   UNL     1       1.366   9.412  19.025  0.00  0.00    +0.000 A 
ATOM      2  N   UNL     1       1.928   8.197  19.136  0.00  0.00    +0.000 NA
ATOM      3  C   UNL     1       1.785   7.492  20.287  0.00  0.00    +0.000 A 
ATOM      4  N   UNL     1       2.262   6.189  20.328  0.00  0.00    +0.000 N 
ATOM      5  N   UNL     1       1.144   7.951  21.376  0.00  0.00    +0.000 NA
ATOM      6  C   UNL     1       0.627   9.182  21.206  0.00  0.00    +0.000 A 
ATOM      7  C   UNL     1       0.698   9.922  20.079  0.00  0.00    +0.000 A 
ATOM      8  N   UNL     1       0.041  11.171  20.222  0.00  0.00    +0.000 N 
ATOM      9  O   UNL     1       0.045  12.069  19.324  0.00  0.00    +0.000 OA
ATOM     10  C   UNL     1      -0.482  11.271  21.426  0.00  0.00    +0.000 C 
ATOM     11  C   UNL     1      -0.128  10.000  22.167  0.00  0.00    +0.000 C 
ATOM     12  O   UNL     1      -0.416   9.779  23.315  0.00  0.00    +0.000 OA
ATOM     13  H   UNL     1       2.189   5.828  21.270  0.00  0.00    +0.000 HD
ENDROOT
BRANCH  10  14
ATOM     14  C   UNL     1      -1.232  12.427  21.921  0.00  0.00    +0.000 A 
ATOM     15  C   UNL     1      -2.613  12.527  21.698  0.00  0.00    +0.000 A 
ATOM     16  C   UNL     1      -3.327  13.651  22.122  0.00  0.00    +0.000 A 
ATOM     17  C   UNL     1      -2.666  14.684  22.780  0.00  0.00    +0.000 A 
ATOM     18  C   UNL     1      -1.298  14.587  23.022  0.00  0.00    +0.000 A 
ATOM     19  C   UNL     1      -0.577  13.461  22.599  0.00  0.00    +0.000 A 
ENDBRANCH  10  14
BRANCH   1  20
ATOM     20  N   UNL     1       1.370  10.012  17.780  0.00  0.00    +0.000 N 
ATOM     21  H   UNL     1       1.383  11.026  17.845  0.00  0.00    +0.000 HD
ATOM     22  H   UNL     1       0.713   9.621  17.108  0.00  0.00    +0.000 HD
ENDBRANCH   1  20
BRANCH   4  23
ATOM     23  C   UNL     1       3.507   5.938  19.598  0.00  0.00    +0.000 C 
BRANCH  23  24
ATOM     24  C   UNL     1       3.320   4.814  18.567  0.00  0.00    +0.000 C 
BRANCH  24  25
ATOM     25  C   UNL     1       4.183   4.983  17.334  0.00  0.00    +0.000 A 
ATOM     26  C   UNL     1       4.694   3.873  16.646  0.00  0.00    +0.000 A 
ATOM     27  C   UNL     1       5.481   4.046  15.501  0.00  0.00    +0.000 A 
ATOM     28  C   UNL     1       5.769   5.326  15.034  0.00  0.00    +0.000 A 
ATOM     29  C   UNL     1       5.273   6.437  15.714  0.00  0.00    +0.000 A 
ATOM     30  C   UNL     1       4.489   6.267  16.856  0.00  0.00    +0.000 A 
ENDBRANCH  24  25
ENDBRANCH  23  24
ENDBRANCH   4  23
TORSDOF 5
ENDMDL
