MODEL 1
REMARK VINA RESULT:      -7.5      0.000      0.000
REMARK  Name = 
REMARK  8 active torsions:
REMARK  status: ('A' for Active; 'I' for Inactive)
REMARK    1  A    between atoms: C_2  and  O_3
REMARK    2  A    between atoms: C_2  and  C_4
REMARK    3  A    between atoms: C_4  and  O_5
REMARK    4  A    between atoms: O_5  and  C_6
REMARK    5  A    between atoms: C_18  and  O_19
REMARK    6  A    between atoms: O_19  and  C_20
REMARK    7  A    between atoms: C_20  and  C_21
REMARK    8  A    between atoms: C_21  and  O_23
REMARK                            x       y       z     vdW  Elec       q    Type
REMARK                         _______ _______ _______ _____ _____    ______ ____
ROOT
ATOM      1  C   UNL     1       4.360   4.190  17.366  0.00  0.00    +0.000 A 
ATOM      2  C   UNL     1       4.370   2.875  17.835  0.00  0.00    +0.000 A 
ATOM      3  C   UNL     1       3.712   2.555  19.010  0.00  0.00    +0.000 A 
ATOM      4  C   UNL     1       3.022   3.547  19.711  0.00  0.00    +0.000 A 
ATOM      5  C   UNL     1       2.943   4.884  19.249  0.00  0.00    +0.000 A 
ATOM      6  C   UNL     1       3.608   5.207  18.040  0.00  0.00    +0.000 A 
ATOM      7  N   UNL     1       3.503   6.532  17.560  0.00  0.00    +0.000 N 
ATOM      8  O   UNL     1       4.110   6.879  16.471  0.00  0.00    +0.000 OA
ATOM      9  C   UNL     1       2.745   7.505  18.263  0.00  0.00    +0.000 A 
ATOM     10  C   UNL     1       2.630   8.799  17.713  0.00  0.00    +0.000 A 
ATOM     11  C   UNL     1       1.895   9.796  18.332  0.00  0.00    +0.000 A 
ATOM     12  C   UNL     1       1.285   9.536  19.546  0.00  0.00    +0.000 A 
ATOM     13  C   UNL     1       1.429   8.291  20.185  0.00  0.00    +0.000 A 
ATOM     14  C   UNL     1       2.117   7.216  19.508  0.00  0.00    +0.000 A 
ATOM     15  N   UNL     1       2.224   5.879  19.990  0.00  0.00    +0.000 N 
ATOM     16  O   UNL     1       1.663   5.536  21.095  0.00  0.00    +0.000 OA
ENDROOT
BRANCH   1  17
ATOM     17  O   UNL     1       5.047   4.523  16.222  0.00  0.00    +0.000 OA
BRANCH  17  18
ATOM     18  C   UNL     1       6.406   4.080  16.154  0.00  0.00    +0.000 C 
BRANCH  18  20
ATOM     19  O   UNL     1       7.848   4.527  18.041  0.00  0.00    +0.000 OA
ATOM     20  C   UNL     1       7.296   4.941  17.036  0.00  0.00    +0.000 C 
BRANCH  20  21
ATOM     21  O   UNL     1       7.402   6.222  16.612  0.00  0.00    +0.000 OA
ATOM     22  H   UNL     1       8.162   6.354  15.988  0.00  0.00    +0.000 HD
ENDBRANCH  20  21
ENDBRANCH  18  20
ENDBRANCH  17  18
ENDBRANCH   1  17
BRANCH  13  23
ATOM     23  O   UNL     1       0.940   8.109  21.475  0.00  0.00    +0.000 OA
BRANCH  23  24
ATOM     24  C   UNL     1      -0.270   8.825  21.770  0.00  0.00    +0.000 C 
BRANCH  24  25
ATOM     25  C   UNL     1      -0.284   9.719  23.001  0.00  0.00    +0.000 C 
ATOM     26  O   UNL     1       0.523   9.603  23.918  0.00  0.00    +0.000 OA
BRANCH  25  27
ATOM     27  O   UNL     1      -1.250  10.659  22.991  0.00  0.00    +0.000 OA
ATOM     28  H   UNL     1      -1.584  10.824  22.079  0.00  0.00    +0.000 HD
ENDBRANCH  25  27
ENDBRANCH  24  25
ENDBRANCH  23  24
ENDBRANCH  13  23
TORSDOF 8
ENDMDL
MODEL 2
REMARK VINA RESULT:      -7.4      2.626      4.722
REMARK  Name = 
REMARK  8 active torsions:
REMARK  status: ('A' for Active; 'I' for Inactive)
REMARK    1  A    between atoms: C_2  and  O_3
REMARK    2  A    between atoms: C_2  and  C_4
REMARK    3  A    between atoms: C_4  and  O_5
REMARK    4  A    between atoms: O_5  and  C_6
REMARK    5  A    between atoms: C_18  and  O_19
REMARK    6  A    between atoms: O_19  and  C_20
REMARK    7  A    between atoms: C_20  and  C_21
REMARK    8  A    between atoms: C_21  and  O_23
REMARK                            x       y       z     vdW  Elec       q    Type
REMARK                         _______ _______ _______ _____ _____    ______ ____
ROOT
ATOM      1  C   UNL     1       3.432   5.061  19.032  0.00  0.00    +0.000 A 
ATOM      2  C   UNL     1       4.298   4.852  17.958  0.00  0.00    +0.000 A 
ATOM      3  C   UNL     1       4.463   5.839  17.001  0.00  0.00    +0.000 A 
ATOM      4  C   UNL     1       3.777   7.050  17.127  0.00  0.00    +0.000 A 
ATOM      5  C   UNL     1       2.926   7.326  18.225  0.00  0.00    +0.000 A 
ATOM      6  C   UNL     1       2.767   6.319  19.210  0.00  0.00    +0.000 A 
ATOM      7  N   UNL     1       1.945   6.604  20.323  0.00  0.00    +0.000 N 
ATOM      8  O   UNL     1       1.753   5.709  21.237  0.00  0.00    +0.000 OA
ATOM      9  C   UNL     1       1.307   7.866  20.455  0.00  0.00    +0.000 A 
ATOM     10  C   UNL     1       0.539   8.118  21.611  0.00  0.00    +0.000 A 
ATOM     11  C   UNL     1      -0.099   9.330  21.817  0.00  0.00    +0.000 A 
ATOM     12  C   UNL     1      -0.019  10.313  20.848  0.00  0.00    +0.000 A 
ATOM     13  C   UNL     1       0.664  10.095  19.638  0.00  0.00    +0.000 A 
ATOM     14  C   UNL     1       1.408   8.870  19.449  0.00  0.00    +0.000 A 
ATOM     15  N   UNL     1       2.239   8.580  18.328  0.00  0.00    +0.000 N 
ATOM     16  O   UNL     1       2.397   9.446  17.391  0.00  0.00    +0.000 OA
ENDROOT
BRANCH   1  17
ATOM     17  O   UNL     1       3.231   4.069  19.964  0.00  0.00    +0.000 OA
BRANCH  17  18
ATOM     18  C   UNL     1       2.788   2.808  19.452  0.00  0.00    +0.000 C 
BRANCH  18  20
ATOM     19  O   UNL     1       0.670   2.468  18.340  0.00  0.00    +0.000 OA
ATOM     20  C   UNL     1       1.271   2.771  19.357  0.00  0.00    +0.000 C 
BRANCH  20  21
ATOM     21  O   UNL     1       0.648   3.126  20.504  0.00  0.00    +0.000 OA
ATOM     22  H   UNL     1       0.085   2.397  20.872  0.00  0.00    +0.000 HD
ENDBRANCH  20  21
ENDBRANCH  18  20
ENDBRANCH  17  18
ENDBRANCH   1  17
BRANCH  13  23
ATOM     23  O   UNL     1       0.594  11.038  18.618  0.00  0.00    +0.000 OA
BRANCH  23  24
ATOM     24  C   UNL     1       0.985  12.368  18.996  0.00  0.00    +0.000 C 
BRANCH  24  25
ATOM     25  C   UNL     1       2.270  12.926  18.400  0.00  0.00    +0.000 C 
ATOM     26  O   UNL     1       2.881  13.867  18.897  0.00  0.00    +0.000 OA
BRANCH  25  27
ATOM     27  O   UNL     1       2.687  12.287  17.289  0.00  0.00    +0.000 OA
ATOM     28  H   UNL     1       3.127  12.905  16.661  0.00  0.00    +0.000 HD
ENDBRANCH  25  27
ENDBRANCH  24  25
ENDBRANCH  23  24
ENDBRANCH  13  23
TORSDOF 8
ENDMDL
MODEL 3
REMARK VINA RESULT:      -7.3      0.691      7.484
REMARK  Name = 
REMARK  8 active torsions:
REMARK  status: ('A' for Active; 'I' for Inactive)
REMARK    1  A    between atoms: C_2  and  O_3
REMARK    2  A    between atoms: C_2  and  C_4
REMARK    3  A    between atoms: C_4  and  O_5
REMARK    4  A    between atoms: O_5  and  C_6
REMARK    5  A    between atoms: C_18  and  O_19
REMARK    6  A    between atoms: O_19  and  C_20
REMARK    7  A    between atoms: C_20  and  C_21
REMARK    8  A    between atoms: C_21  and  O_23
REMARK                            x       y       z     vdW  Elec       q    Type
REMARK                         _______ _______ _______ _____ _____    ______ ____
ROOT
ATOM      1  C   UNL     1       1.274   8.503  20.033  0.00  0.00    +0.000 A 
ATOM      2  C   UNL     1       1.112   9.702  19.337  0.00  0.00    +0.000 A 
ATOM      3  C   UNL     1       1.795   9.911  18.151  0.00  0.00    +0.000 A 
ATOM      4  C   UNL     1       2.628   8.909  17.645  0.00  0.00    +0.000 A 
ATOM      5  C   UNL     1       2.786   7.659  18.290  0.00  0.00    +0.000 A 
ATOM      6  C   UNL     1       2.077   7.442  19.498  0.00  0.00    +0.000 A 
ATOM      7  N   UNL     1       2.207   6.183  20.127  0.00  0.00    +0.000 N 
ATOM      8  O   UNL     1       1.595   5.946  21.241  0.00  0.00    +0.000 OA
ATOM      9  C   UNL     1       3.014   5.163  19.557  0.00  0.00    +0.000 A 
ATOM     10  C   UNL     1       3.068   3.907  20.198  0.00  0.00    +0.000 A 
ATOM     11  C   UNL     1       3.820   2.859  19.693  0.00  0.00    +0.000 A 
ATOM     12  C   UNL     1       4.576   3.053  18.551  0.00  0.00    +0.000 A 
ATOM     13  C   UNL     1       4.627   4.305  17.912  0.00  0.00    +0.000 A 
ATOM     14  C   UNL     1       3.779   5.379  18.375  0.00  0.00    +0.000 A 
ATOM     15  N   UNL     1       3.646   6.650  17.743  0.00  0.00    +0.000 N 
ATOM     16  O   UNL     1       4.287   6.910  16.660  0.00  0.00    +0.000 OA
ENDROOT
BRANCH   1  17
ATOM     17  O   UNL     1       0.632   8.306  21.233  0.00  0.00    +0.000 OA
BRANCH  17  18
ATOM     18  C   UNL     1      -0.472   9.176  21.505  0.00  0.00    +0.000 C 
BRANCH  18  20
ATOM     19  O   UNL     1      -0.053  11.263  22.648  0.00  0.00    +0.000 OA
ATOM     20  C   UNL     1      -0.180  10.052  22.712  0.00  0.00    +0.000 C 
BRANCH  20  21
ATOM     21  O   UNL     1      -0.052   9.358  23.867  0.00  0.00    +0.000 OA
ATOM     22  H   UNL     1       0.188   8.408  23.714  0.00  0.00    +0.000 HD
ENDBRANCH  20  21
ENDBRANCH  18  20
ENDBRANCH  17  18
ENDBRANCH   1  17
BRANCH  13  23
ATOM     23  O   UNL     1       5.517   4.516  16.862  0.00  0.00    +0.000 OA
BRANCH  23  24
ATOM     24  C   UNL     1       6.899   4.591  17.247  0.00  0.00    +0.000 C 
BRANCH  24  25
ATOM     25  C   UNL     1       7.455   5.955  17.629  0.00  0.00    +0.000 C 
ATOM     26  O   UNL     1       7.846   6.222  18.762  0.00  0.00    +0.000 OA
BRANCH  25  27
ATOM     27  O   UNL     1       7.496   6.840  16.613  0.00  0.00    +0.000 OA
ATOM     28  H   UNL     1       7.889   6.442  15.803  0.00  0.00    +0.000 HD
ENDBRANCH  25  27
ENDBRANCH  24  25
ENDBRANCH  23  24
ENDBRANCH  13  23
TORSDOF 8
ENDMDL
MODEL 4
REMARK VINA RESULT:      -7.2      2.726      4.289
REMARK  Name = 
REMARK  8 active torsions:
REMARK  status: ('A' for Active; 'I' for Inactive)
REMARK    1  A    between atoms: C_2  and  O_3
REMARK    2  A    between atoms: C_2  and  C_4
REMARK    3  A    between atoms: C_4  and  O_5
REMARK    4  A    between atoms: O_5  and  C_6
REMARK    5  A    between atoms: C_18  and  O_19
REMARK    6  A    between atoms: O_19  and  C_20
REMARK    7  A    between atoms: C_20  and  C_21
REMARK    8  A    between atoms: C_21  and  O_23
REMARK                            x       y       z     vdW  Elec       q    Type
REMARK                         _______ _______ _______ _____ _____    ______ ____
ROOT
ATOM      1  C   UNL     1       3.727   5.168  18.709  0.00  0.00    +0.000 A 
ATOM      2  C   UNL     1       4.580   5.056  17.610  0.00  0.00    +0.000 A 
ATOM      3  C   UNL     1       4.668   6.090  16.694  0.00  0.00    +0.000 A 
ATOM      4  C   UNL     1       3.917   7.253  16.887  0.00  0.00    +0.000 A 
ATOM      5  C   UNL     1       3.075   7.431  18.012  0.00  0.00    +0.000 A 
ATOM      6  C   UNL     1       2.996   6.376  18.955  0.00  0.00    +0.000 A 
ATOM      7  N   UNL     1       2.184   6.565  20.095  0.00  0.00    +0.000 N 
ATOM      8  O   UNL     1       2.064   5.622  20.972  0.00  0.00    +0.000 OA
ATOM      9  C   UNL     1       1.477   7.781  20.295  0.00  0.00    +0.000 A 
ATOM     10  C   UNL     1       0.722   7.937  21.476  0.00  0.00    +0.000 A 
ATOM     11  C   UNL     1       0.021   9.101  21.748  0.00  0.00    +0.000 A 
ATOM     12  C   UNL     1       0.022  10.127  20.821  0.00  0.00    +0.000 A 
ATOM     13  C   UNL     1       0.691  10.001  19.590  0.00  0.00    +0.000 A 
ATOM     14  C   UNL     1       1.499   8.831  19.333  0.00  0.00    +0.000 A 
ATOM     15  N   UNL     1       2.320   8.638  18.184  0.00  0.00    +0.000 N 
ATOM     16  O   UNL     1       2.408   9.552  17.284  0.00  0.00    +0.000 OA
ENDROOT
BRANCH   1  17
ATOM     17  O   UNL     1       3.605   4.127  19.600  0.00  0.00    +0.000 OA
BRANCH  17  18
ATOM     18  C   UNL     1       3.245   2.860  19.039  0.00  0.00    +0.000 C 
BRANCH  18  20
ATOM     19  O   UNL     1       4.976   1.878  20.411  0.00  0.00    +0.000 OA
ATOM     20  C   UNL     1       4.256   1.794  19.430  0.00  0.00    +0.000 C 
BRANCH  20  21
ATOM     21  O   UNL     1       4.297   0.747  18.574  0.00  0.00    +0.000 OA
ATOM     22  H   UNL     1       3.408   0.535  18.189  0.00  0.00    +0.000 HD
ENDBRANCH  20  21
ENDBRANCH  18  20
ENDBRANCH  17  18
ENDBRANCH   1  17
BRANCH  13  23
ATOM     23  O   UNL     1       0.544  10.982  18.614  0.00  0.00    +0.000 OA
BRANCH  23  24
ATOM     24  C   UNL     1       0.881  12.313  19.038  0.00  0.00    +0.000 C 
BRANCH  24  25
ATOM     25  C   UNL     1       2.184  12.911  18.529  0.00  0.00    +0.000 C 
ATOM     26  O   UNL     1       2.780  13.808  19.117  0.00  0.00    +0.000 OA
BRANCH  25  27
ATOM     27  O   UNL     1       2.635  12.360  17.385  0.00  0.00    +0.000 OA
ATOM     28  H   UNL     1       1.904  12.213  16.742  0.00  0.00    +0.000 HD
ENDBRANCH  25  27
ENDBRANCH  24  25
ENDBRANCH  23  24
ENDBRANCH  13  23
TORSDOF 8
ENDMDL
MODEL 5
REMARK VINA RESULT:      -7.2      2.620      4.663
REMARK  Name = 
REMARK  8 active torsions:
REMARK  status: ('A' for Active; 'I' for Inactive)
REMARK    1  A    between atoms: C_2  and  O_3
REMARK    2  A    between atoms: C_2  and  C_4
REMARK    3  A    between atoms: C_4  and  O_5
REMARK    4  A    between atoms: O_5  and  C_6
REMARK    5  A    between atoms: C_18  and  O_19
REMARK    6  A    between atoms: O_19  and  C_20
REMARK    7  A    between atoms: C_20  and  C_21
REMARK    8  A    between atoms: C_21  and  O_23
REMARK                            x       y       z     vdW  Elec       q    Type
REMARK                         _______ _______ _______ _____ _____    ______ ____
ROOT
ATOM      1  C   UNL     1       3.429   5.179  19.006  0.00  0.00    +0.000 A 
ATOM      2  C   UNL     1       4.283   4.996  17.917  0.00  0.00    +0.000 A 
ATOM      3  C   UNL     1       4.412   5.994  16.965  0.00  0.00    +0.000 A 
ATOM      4  C   UNL     1       3.702   7.188  17.111  0.00  0.00    +0.000 A 
ATOM      5  C   UNL     1       2.862   7.437  18.224  0.00  0.00    +0.000 A 
ATOM      6  C   UNL     1       2.740   6.421  19.203  0.00  0.00    +0.000 A 
ATOM      7  N   UNL     1       1.929   6.679  20.331  0.00  0.00    +0.000 N 
ATOM      8  O   UNL     1       1.771   5.774  21.241  0.00  0.00    +0.000 OA
ATOM      9  C   UNL     1       1.266   7.926  20.482  0.00  0.00    +0.000 A 
ATOM     10  C   UNL     1       0.510   8.152  21.652  0.00  0.00    +0.000 A 
ATOM     11  C   UNL     1      -0.151   9.349  21.877  0.00  0.00    +0.000 A 
ATOM     12  C   UNL     1      -0.107  10.340  20.914  0.00  0.00    +0.000 A 
ATOM     13  C   UNL     1       0.562  10.146  19.692  0.00  0.00    +0.000 A 
ATOM     14  C   UNL     1       1.330   8.939  19.483  0.00  0.00    +0.000 A 
ATOM     15  N   UNL     1       2.149   8.675  18.347  0.00  0.00    +0.000 N 
ATOM     16  O   UNL     1       2.274   9.552  17.415  0.00  0.00    +0.000 OA
ENDROOT
BRANCH   1  17
ATOM     17  O   UNL     1       3.265   4.176  19.933  0.00  0.00    +0.000 OA
BRANCH  17  18
ATOM     18  C   UNL     1       2.830   2.912  19.420  0.00  0.00    +0.000 C 
BRANCH  18  20
ATOM     19  O   UNL     1       0.702   2.537  18.339  0.00  0.00    +0.000 OA
ATOM     20  C   UNL     1       1.313   2.857  19.345  0.00  0.00    +0.000 C 
BRANCH  20  21
ATOM     21  O   UNL     1       0.700   3.216  20.497  0.00  0.00    +0.000 OA
ATOM     22  H   UNL     1       1.124   2.809  21.296  0.00  0.00    +0.000 HD
ENDBRANCH  20  21
ENDBRANCH  18  20
ENDBRANCH  17  18
ENDBRANCH   1  17
BRANCH  13  23
ATOM     23  O   UNL     1       0.456  11.095  18.680  0.00  0.00    +0.000 OA
BRANCH  23  24
ATOM     24  C   UNL     1      -0.849  11.678  18.533  0.00  0.00    +0.000 C 
BRANCH  24  25
ATOM     25  C   UNL     1      -1.800  11.044  17.528  0.00  0.00    +0.000 C 
ATOM     26  O   UNL     1      -1.733   9.863  17.202  0.00  0.00    +0.000 OA
BRANCH  25  27
ATOM     27  O   UNL     1      -2.730  11.888  17.039  0.00  0.00    +0.000 OA
ATOM     28  H   UNL     1      -3.456  12.040  17.686  0.00  0.00    +0.000 HD
ENDBRANCH  25  27
ENDBRANCH  24  25
ENDBRANCH  23  24
ENDBRANCH  13  23
TORSDOF 8
ENDMDL
MODEL 6
REMARK VINA RESULT:      -7.2      0.991      7.911
REMARK  Name = 
REMARK  8 active torsions:
REMARK  status: ('A' for Active; 'I' for Inactive)
REMARK    1  A    between atoms: C_2  and  O_3
REMARK    2  A    between atoms: C_2  and  C_4
REMARK    3  A    between atoms: C_4  and  O_5
REMARK    4  A    between atoms: O_5  and  C_6
REMARK    5  A    between atoms: C_18  and  O_19
REMARK    6  A    between atoms: O_19  and  C_20
REMARK    7  A    between atoms: C_20  and  C_21
REMARK    8  A    between atoms: C_21  and  O_23
REMARK                            x       y       z     vdW  Elec       q    Type
REMARK                         _______ _______ _______ _____ _____    ______ ____
ROOT
ATOM      1  C   UNL     1       1.211   8.420  20.014  0.00  0.00    +0.000 A 
ATOM      2  C   UNL     1       1.000   9.625  19.341  0.00  0.00    +0.000 A 
ATOM      3  C   UNL     1       1.705   9.904  18.183  0.00  0.00    +0.000 A 
ATOM      4  C   UNL     1       2.611   8.966  17.679  0.00  0.00    +0.000 A 
ATOM      5  C   UNL     1       2.822   7.711  18.300  0.00  0.00    +0.000 A 
ATOM      6  C   UNL     1       2.091   7.422  19.479  0.00  0.00    +0.000 A 
ATOM      7  N   UNL     1       2.275   6.158  20.082  0.00  0.00    +0.000 N 
ATOM      8  O   UNL     1       1.645   5.857  21.170  0.00  0.00    +0.000 OA
ATOM      9  C   UNL     1       3.158   5.201  19.514  0.00  0.00    +0.000 A 
ATOM     10  C   UNL     1       3.267   3.934  20.126  0.00  0.00    +0.000 A 
ATOM     11  C   UNL     1       4.094   2.945  19.621  0.00  0.00    +0.000 A 
ATOM     12  C   UNL     1       4.872   3.212  18.509  0.00  0.00    +0.000 A 
ATOM     13  C   UNL     1       4.869   4.481  17.901  0.00  0.00    +0.000 A 
ATOM     14  C   UNL     1       3.945   5.491  18.362  0.00  0.00    +0.000 A 
ATOM     15  N   UNL     1       3.756   6.768  17.757  0.00  0.00    +0.000 N 
ATOM     16  O   UNL     1       4.414   7.093  16.701  0.00  0.00    +0.000 OA
ENDROOT
BRANCH   1  17
ATOM     17  O   UNL     1       0.545   8.156  21.188  0.00  0.00    +0.000 OA
BRANCH  17  18
ATOM     18  C   UNL     1      -0.424   9.128  21.592  0.00  0.00    +0.000 C 
BRANCH  18  20
ATOM     19  O   UNL     1       1.052   9.571  23.453  0.00  0.00    +0.000 OA
ATOM     20  C   UNL     1      -0.018   9.777  22.905  0.00  0.00    +0.000 C 
BRANCH  20  21
ATOM     21  O   UNL     1      -0.966  10.591  23.424  0.00  0.00    +0.000 OA
ATOM     22  H   UNL     1      -1.461  11.091  22.724  0.00  0.00    +0.000 HD
ENDBRANCH  20  21
ENDBRANCH  18  20
ENDBRANCH  17  18
ENDBRANCH   1  17
BRANCH  13  23
ATOM     23  O   UNL     1       5.776   4.769  16.886  0.00  0.00    +0.000 OA
BRANCH  23  24
ATOM     24  C   UNL     1       5.703   3.899  15.745  0.00  0.00    +0.000 C 
BRANCH  24  25
ATOM     25  C   UNL     1       6.583   4.225  14.547  0.00  0.00    +0.000 C 
ATOM     26  O   UNL     1       7.410   5.132  14.555  0.00  0.00    +0.000 OA
BRANCH  25  27
ATOM     27  O   UNL     1       6.385   3.424  13.482  0.00  0.00    +0.000 OA
ATOM     28  H   UNL     1       5.909   2.600  13.733  0.00  0.00    +0.000 HD
ENDBRANCH  25  27
ENDBRANCH  24  25
ENDBRANCH  23  24
ENDBRANCH  13  23
TORSDOF 8
ENDMDL
MODEL 7
REMARK VINA RESULT:      -7.2      1.033      8.004
REMARK  Name = 
REMARK  8 active torsions:
REMARK  status: ('A' for Active; 'I' for Inactive)
REMARK    1  A    between atoms: C_2  and  O_3
REMARK    2  A    between atoms: C_2  and  C_4
REMARK    3  A    between atoms: C_4  and  O_5
REMARK    4  A    between atoms: O_5  and  C_6
REMARK    5  A    between atoms: C_18  and  O_19
REMARK    6  A    between atoms: O_19  and  C_20
REMARK    7  A    between atoms: C_20  and  C_21
REMARK    8  A    between atoms: C_21  and  O_23
REMARK                            x       y       z     vdW  Elec       q    Type
REMARK                         _______ _______ _______ _____ _____    ______ ____
ROOT
ATOM      1  C   UNL     1       1.178   8.617  20.264  0.00  0.00    +0.000 A 
ATOM      2  C   UNL     1       0.898   9.879  19.735  0.00  0.00    +0.000 A 
ATOM      3  C   UNL     1       1.440  10.254  18.517  0.00  0.00    +0.000 A 
ATOM      4  C   UNL     1       2.248   9.358  17.812  0.00  0.00    +0.000 A 
ATOM      5  C   UNL     1       2.519   8.050  18.285  0.00  0.00    +0.000 A 
ATOM      6  C   UNL     1       1.954   7.664  19.526  0.00  0.00    +0.000 A 
ATOM      7  N   UNL     1       2.195   6.350  19.984  0.00  0.00    +0.000 N 
ATOM      8  O   UNL     1       1.718   5.958  21.121  0.00  0.00    +0.000 OA
ATOM      9  C   UNL     1       2.971   5.440  19.217  0.00  0.00    +0.000 A 
ATOM     10  C   UNL     1       3.139   4.124  19.696  0.00  0.00    +0.000 A 
ATOM     11  C   UNL     1       3.868   3.177  18.995  0.00  0.00    +0.000 A 
ATOM     12  C   UNL     1       4.488   3.536  17.812  0.00  0.00    +0.000 A 
ATOM     13  C   UNL     1       4.425   4.853  17.323  0.00  0.00    +0.000 A 
ATOM     14  C   UNL     1       3.595   5.826  17.996  0.00  0.00    +0.000 A 
ATOM     15  N   UNL     1       3.349   7.153  17.536  0.00  0.00    +0.000 N 
ATOM     16  O   UNL     1       3.859   7.565  16.430  0.00  0.00    +0.000 OA
ENDROOT
BRANCH   1  17
ATOM     17  O   UNL     1       0.676   8.255  21.492  0.00  0.00    +0.000 OA
BRANCH  17  18
ATOM     18  C   UNL     1      -0.536   8.902  21.892  0.00  0.00    +0.000 C 
BRANCH  18  20
ATOM     19  O   UNL     1      -1.038  10.733  23.385  0.00  0.00    +0.000 OA
ATOM     20  C   UNL     1      -0.287   9.825  23.074  0.00  0.00    +0.000 C 
BRANCH  20  21
ATOM     21  O   UNL     1       0.860   9.556  23.739  0.00  0.00    +0.000 OA
ATOM     22  H   UNL     1       0.748   9.598  24.723  0.00  0.00    +0.000 HD
ENDBRANCH  20  21
ENDBRANCH  18  20
ENDBRANCH  17  18
ENDBRANCH   1  17
BRANCH  13  23
ATOM     23  O   UNL     1       5.187   5.224  16.219  0.00  0.00    +0.000 OA
BRANCH  23  24
ATOM     24  C   UNL     1       6.050   4.196  15.707  0.00  0.00    +0.000 C 
BRANCH  24  25
ATOM     25  C   UNL     1       6.695   4.423  14.348  0.00  0.00    +0.000 C 
ATOM     26  O   UNL     1       6.396   3.773  13.351  0.00  0.00    +0.000 OA
BRANCH  25  27
ATOM     27  O   UNL     1       7.613   5.410  14.330  0.00  0.00    +0.000 OA
ATOM     28  H   UNL     1       7.271   6.229  14.757  0.00  0.00    +0.000 HD
ENDBRANCH  25  27
ENDBRANCH  24  25
ENDBRANCH  23  24
ENDBRANCH  13  23
TORSDOF 8
ENDMDL
MODEL 8
REMARK VINA RESULT:      -7.2      2.741      6.903
REMARK  Name = 
REMARK  8 active torsions:
REMARK  status: ('A' for Active; 'I' for Inactive)
REMARK    1  A    between atoms: C_2  and  O_3
REMARK    2  A    between atoms: C_2  and  C_4
REMARK    3  A    between atoms: C_4  and  O_5
REMARK    4  A    between atoms: O_5  and  C_6
REMARK    5  A    between atoms: C_18  and  O_19
REMARK    6  A    between atoms: O_19  and  C_20
REMARK    7  A    between atoms: C_20  and  C_21
REMARK    8  A    between atoms: C_21  and  O_23
REMARK                            x       y       z     vdW  Elec       q    Type
REMARK                         _______ _______ _______ _____ _____    ______ ____
ROOT
ATOM      1  C   UNL     1       0.672  10.076  19.541  0.00  0.00    +0.000 A 
ATOM      2  C   UNL     1      -0.072  10.310  20.699  0.00  0.00    +0.000 A 
ATOM      3  C   UNL     1      -0.135   9.342  21.688  0.00  0.00    +0.000 A 
ATOM      4  C   UNL     1       0.564   8.143  21.530  0.00  0.00    +0.000 A 
ATOM      5  C   UNL     1       1.370   7.881  20.395  0.00  0.00    +0.000 A 
ATOM      6  C   UNL     1       1.444   8.877  19.390  0.00  0.00    +0.000 A 
ATOM      7  N   UNL     1       2.273   8.633  18.273  0.00  0.00    +0.000 N 
ATOM      8  O   UNL     1       2.356   9.504  17.320  0.00  0.00    +0.000 OA
ATOM      9  C   UNL     1       3.020   7.429  18.167  0.00  0.00    +0.000 A 
ATOM     10  C   UNL     1       3.873   7.257  17.057  0.00  0.00    +0.000 A 
ATOM     11  C   UNL     1       4.643   6.118  16.895  0.00  0.00    +0.000 A 
ATOM     12  C   UNL     1       4.550   5.097  17.822  0.00  0.00    +0.000 A 
ATOM     13  C   UNL     1       3.659   5.173  18.908  0.00  0.00    +0.000 A 
ATOM     14  C   UNL     1       2.917   6.392  19.138  0.00  0.00    +0.000 A 
ATOM     15  N   UNL     1       2.079   6.642  20.264  0.00  0.00    +0.000 N 
ATOM     16  O   UNL     1       1.955   5.761  21.193  0.00  0.00    +0.000 OA
ENDROOT
BRANCH   1  17
ATOM     17  O   UNL     1       0.705  11.016  18.537  0.00  0.00    +0.000 OA
BRANCH  17  18
ATOM     18  C   UNL     1       0.813  12.380  18.958  0.00  0.00    +0.000 C 
BRANCH  18  20
ATOM     19  O   UNL     1       2.407  14.162  18.611  0.00  0.00    +0.000 OA
ATOM     20  C   UNL     1       2.016  13.047  18.311  0.00  0.00    +0.000 C 
BRANCH  20  21
ATOM     21  O   UNL     1       2.602  12.294  17.351  0.00  0.00    +0.000 OA
ATOM     22  H   UNL     1       3.016  12.843  16.637  0.00  0.00    +0.000 HD
ENDBRANCH  20  21
ENDBRANCH  18  20
ENDBRANCH  17  18
ENDBRANCH   1  17
BRANCH  13  23
ATOM     23  O   UNL     1       3.469   4.069  19.733  0.00  0.00    +0.000 OA
BRANCH  23  24
ATOM     24  C   UNL     1       4.144   2.874  19.309  0.00  0.00    +0.000 C 
BRANCH  24  25
ATOM     25  C   UNL     1       3.305   1.768  18.686  0.00  0.00    +0.000 C 
ATOM     26  O   UNL     1       2.088   1.851  18.550  0.00  0.00    +0.000 OA
BRANCH  25  27
ATOM     27  O   UNL     1       4.015   0.695  18.284  0.00  0.00    +0.000 OA
ATOM     28  H   UNL     1       3.564   0.218  17.550  0.00  0.00    +0.000 HD
ENDBRANCH  25  27
ENDBRANCH  24  25
ENDBRANCH  23  24
ENDBRANCH  13  23
TORSDOF 8
ENDMDL
MODEL 9
REMARK VINA RESULT:      -7.1      2.621      6.830
REMARK  Name = 
REMARK  8 active torsions:
REMARK  status: ('A' for Active; 'I' for Inactive)
REMARK    1  A    between atoms: C_2  and  O_3
REMARK    2  A    between atoms: C_2  and  C_4
REMARK    3  A    between atoms: C_4  and  O_5
REMARK    4  A    between atoms: O_5  and  C_6
REMARK    5  A    between atoms: C_18  and  O_19
REMARK    6  A    between atoms: O_19  and  C_20
REMARK    7  A    between atoms: C_20  and  C_21
REMARK    8  A    between atoms: C_21  and  O_23
REMARK                            x       y       z     vdW  Elec       q    Type
REMARK                         _______ _______ _______ _____ _____    ______ ____
ROOT
ATOM      1  C   UNL     1       0.866   9.892  19.684  0.00  0.00    +0.000 A 
ATOM      2  C   UNL     1       0.162  10.141  20.863  0.00  0.00    +0.000 A 
ATOM      3  C   UNL     1       0.059   9.153  21.828  0.00  0.00    +0.000 A 
ATOM      4  C   UNL     1       0.680   7.918  21.626  0.00  0.00    +0.000 A 
ATOM      5  C   UNL     1       1.446   7.638  20.468  0.00  0.00    +0.000 A 
ATOM      6  C   UNL     1       1.560   8.653  19.486  0.00  0.00    +0.000 A 
ATOM      7  N   UNL     1       2.351   8.388  18.346  0.00  0.00    +0.000 N 
ATOM      8  O   UNL     1       2.468   9.277  17.414  0.00  0.00    +0.000 OA
ATOM      9  C   UNL     1       3.020   7.144  18.195  0.00  0.00    +0.000 A 
ATOM     10  C   UNL     1       3.839   6.950  17.063  0.00  0.00    +0.000 A 
ATOM     11  C   UNL     1       4.535   5.771  16.856  0.00  0.00    +0.000 A 
ATOM     12  C   UNL     1       4.397   4.733  17.760  0.00  0.00    +0.000 A 
ATOM     13  C   UNL     1       3.534   4.835  18.866  0.00  0.00    +0.000 A 
ATOM     14  C   UNL     1       2.873   6.090  19.142  0.00  0.00    +0.000 A 
ATOM     15  N   UNL     1       2.075   6.361  20.291  0.00  0.00    +0.000 N 
ATOM     16  O   UNL     1       1.915   5.466  21.201  0.00  0.00    +0.000 OA
ENDROOT
BRANCH   1  17
ATOM     17  O   UNL     1       0.937  10.854  18.703  0.00  0.00    +0.000 OA
BRANCH  17  18
ATOM     18  C   UNL     1       0.914  12.213  19.154  0.00  0.00    +0.000 C 
BRANCH  18  20
ATOM     19  O   UNL     1      -0.260  14.218  18.492  0.00  0.00    +0.000 OA
ATOM     20  C   UNL     1      -0.149  13.006  18.412  0.00  0.00    +0.000 C 
BRANCH  20  21
ATOM     21  O   UNL     1      -0.978  12.238  17.668  0.00  0.00    +0.000 OA
ATOM     22  H   UNL     1      -1.743  11.886  18.192  0.00  0.00    +0.000 HD
ENDBRANCH  20  21
ENDBRANCH  18  20
ENDBRANCH  17  18
ENDBRANCH   1  17
BRANCH  13  23
ATOM     23  O   UNL     1       3.293   3.723  19.667  0.00  0.00    +0.000 OA
BRANCH  23  24
ATOM     24  C   UNL     1       2.551   2.670  19.032  0.00  0.00    +0.000 C 
BRANCH  24  25
ATOM     25  C   UNL     1       1.050   2.612  19.278  0.00  0.00    +0.000 C 
ATOM     26  O   UNL     1       0.254   2.193  18.444  0.00  0.00    +0.000 OA
BRANCH  25  27
ATOM     27  O   UNL     1       0.673   3.048  20.496  0.00  0.00    +0.000 OA
ATOM     28  H   UNL     1       1.383   2.912  21.165  0.00  0.00    +0.000 HD
ENDBRANCH  25  27
ENDBRANCH  24  25
ENDBRANCH  23  24
ENDBRANCH  13  23
TORSDOF 8
ENDMDL
