MODEL 1
REMARK VINA RESULT:      -8.6      0.000      0.000
REMARK  Name = 
REMARK  10 active torsions:
REMARK  status: ('A' for Active; 'I' for Inactive)
REMARK    1  A    between atoms: C_1  and  O_2
REMARK    2  A    between atoms: O_2  and  C_3
REMARK    3  A    between atoms: C_6  and  C_7
REMARK    4  A    between atoms: N_9  and  C_10
REMARK    5  A    between atoms: C_10  and  C_11
REMARK    6  A    between atoms: C_10  and  C_15
REMARK    7  A    between atoms: C_11  and  C_12
REMARK    8  A    between atoms: C_12  and  O_14
REMARK    9  A    between atoms: C_23  and  C_24
REMARK   10  A    between atoms: C_28  and  C_29
REMARK                            x       y       z     vdW  Elec       q    Type
REMARK                         _______ _______ _______ _____ _____    ______ ____
ROOT
ATOM      1  C   UNL     1       2.816   4.246  19.789  0.00  0.00    +0.000 A 
ATOM      2  C   UNL     1       1.573   4.455  20.391  0.00  0.00    +0.000 A 
ATOM      3  C   UNL     1       1.115   5.750  20.601  0.00  0.00    +0.000 A 
ATOM      4  C   UNL     1       1.919   6.808  20.206  0.00  0.00    +0.000 A 
ATOM      5  N   UNL     1       3.118   6.653  19.583  0.00  0.00    +0.000 NA
ATOM      6  C   UNL     1       3.555   5.375  19.364  0.00  0.00    +0.000 A 
ENDROOT
BRANCH   6   7
ATOM      7  C   UNL     1       4.864   5.292  18.655  0.00  0.00    +0.000 A 
ATOM      8  C   UNL     1       6.073   5.479  19.348  0.00  0.00    +0.000 A 
ATOM      9  C   UNL     1       7.312   5.393  18.701  0.00  0.00    +0.000 A 
ATOM     10  C   UNL     1       7.373   5.112  17.337  0.00  0.00    +0.000 A 
ATOM     11  C   UNL     1       6.197   4.935  16.607  0.00  0.00    +0.000 A 
ATOM     12  C   UNL     1       4.960   5.045  17.271  0.00  0.00    +0.000 A 
BRANCH  11  13
ATOM     13  C   UNL     1       6.220   4.625  15.130  0.00  0.00    +0.000 C 
ATOM     14  F   UNL     1       6.158   3.293  14.849  0.00  0.00    +0.000 F 
ATOM     15  F   UNL     1       5.179   5.194  14.461  0.00  0.00    +0.000 F 
ATOM     16  F   UNL     1       7.348   5.083  14.518  0.00  0.00    +0.000 F 
ENDBRANCH  11  13
ENDBRANCH   6   7
BRANCH   4  17
ATOM     17  C   UNL     1       1.485   8.208  20.520  0.00  0.00    +0.000 C 
ATOM     18  O   UNL     1       1.571   8.650  21.661  0.00  0.00    +0.000 OA
ATOM     19  N   UNL     1       1.018   8.943  19.451  0.00  0.00    +0.000 N 
ATOM     20  H   UNL     1       0.862   8.436  18.579  0.00  0.00    +0.000 HD
BRANCH  19  21
ATOM     21  C   UNL     1       0.475  10.289  19.606  0.00  0.00    +0.000 C 
BRANCH  21  22
ATOM     22  C   UNL     1      -0.824  10.506  18.835  0.00  0.00    +0.000 A 
ATOM     23  C   UNL     1      -1.070   9.801  17.640  0.00  0.00    +0.000 A 
ATOM     24  C   UNL     1      -2.257   9.975  16.924  0.00  0.00    +0.000 A 
ATOM     25  C   UNL     1      -3.226  10.860  17.382  0.00  0.00    +0.000 A 
ATOM     26  C   UNL     1      -3.001  11.582  18.551  0.00  0.00    +0.000 A 
ATOM     27  C   UNL     1      -1.811  11.413  19.270  0.00  0.00    +0.000 A 
ATOM     28 CL   UNL     1      -1.614  12.382  20.691  0.00  0.00    +0.000 Cl
ENDBRANCH  21  22
BRANCH  21  29
ATOM     29  C   UNL     1       1.533  11.369  19.339  0.00  0.00    +0.000 C 
BRANCH  29  30
ATOM     30  C   UNL     1       2.219  11.245  18.002  0.00  0.00    +0.000 C 
ATOM     31  O   UNL     1       2.517  10.192  17.457  0.00  0.00    +0.000 OA
BRANCH  30  32
ATOM     32  O   UNL     1       2.567  12.444  17.477  0.00  0.00    +0.000 OA
ATOM     33  H   UNL     1       2.505  12.497  16.505  0.00  0.00    +0.000 HD
ENDBRANCH  30  32
ENDBRANCH  29  30
ENDBRANCH  21  29
ENDBRANCH  19  21
ENDBRANCH   4  17
BRANCH   1  35
ATOM     34  C   UNL     1       2.577   1.975  19.049  0.00  0.00    +0.000 C 
ATOM     35  O   UNL     1       3.373   3.006  19.619  0.00  0.00    +0.000 OA
ENDBRANCH   1  35
TORSDOF 9
ENDMDL
MODEL 2
REMARK VINA RESULT:      -8.4      0.896      1.273
REMARK  Name = 
REMARK  10 active torsions:
REMARK  status: ('A' for Active; 'I' for Inactive)
REMARK    1  A    between atoms: C_1  and  O_2
REMARK    2  A    between atoms: O_2  and  C_3
REMARK    3  A    between atoms: C_6  and  C_7
REMARK    4  A    between atoms: N_9  and  C_10
REMARK    5  A    between atoms: C_10  and  C_11
REMARK    6  A    between atoms: C_10  and  C_15
REMARK    7  A    between atoms: C_11  and  C_12
REMARK    8  A    between atoms: C_12  and  O_14
REMARK    9  A    between atoms: C_23  and  C_24
REMARK   10  A    between atoms: C_28  and  C_29
REMARK                            x       y       z     vdW  Elec       q    Type
REMARK                         _______ _______ _______ _____ _____    ______ ____
ROOT
ATOM      1  C   UNL     1       2.922   4.350  19.927  0.00  0.00    +0.000 A 
ATOM      2  C   UNL     1       1.691   4.584  20.543  0.00  0.00    +0.000 A 
ATOM      3  C   UNL     1       1.211   5.883  20.659  0.00  0.00    +0.000 A 
ATOM      4  C   UNL     1       1.982   6.920  20.157  0.00  0.00    +0.000 A 
ATOM      5  N   UNL     1       3.167   6.737  19.516  0.00  0.00    +0.000 NA
ATOM      6  C   UNL     1       3.626   5.454  19.390  0.00  0.00    +0.000 A 
ENDROOT
BRANCH   6   7
ATOM      7  C   UNL     1       4.918   5.337  18.655  0.00  0.00    +0.000 A 
ATOM      8  C   UNL     1       6.145   5.512  19.319  0.00  0.00    +0.000 A 
ATOM      9  C   UNL     1       7.367   5.395  18.648  0.00  0.00    +0.000 A 
ATOM     10  C   UNL     1       7.394   5.094  17.288  0.00  0.00    +0.000 A 
ATOM     11  C   UNL     1       6.200   4.929  16.585  0.00  0.00    +0.000 A 
ATOM     12  C   UNL     1       4.979   5.070  17.273  0.00  0.00    +0.000 A 
BRANCH  11  13
ATOM     13  C   UNL     1       6.186   4.598  15.112  0.00  0.00    +0.000 C 
ATOM     14  F   UNL     1       5.146   5.158  14.434  0.00  0.00    +0.000 F 
ATOM     15  F   UNL     1       7.314   5.017  14.473  0.00  0.00    +0.000 F 
ATOM     16  F   UNL     1       6.105   3.258  14.878  0.00  0.00    +0.000 F 
ENDBRANCH  11  13
ENDBRANCH   6   7
BRANCH   4  17
ATOM     17  C   UNL     1       1.526   8.333  20.367  0.00  0.00    +0.000 C 
ATOM     18  O   UNL     1       1.625   8.866  21.467  0.00  0.00    +0.000 OA
ATOM     19  N   UNL     1       1.026   8.972  19.252  0.00  0.00    +0.000 N 
ATOM     20  H   UNL     1       0.864   8.394  18.426  0.00  0.00    +0.000 HD
BRANCH  19  21
ATOM     21  C   UNL     1       0.460  10.315  19.310  0.00  0.00    +0.000 C 
BRANCH  21  22
ATOM     22  C   UNL     1      -0.871  10.440  18.572  0.00  0.00    +0.000 A 
ATOM     23  C   UNL     1      -1.087   9.741  17.368  0.00  0.00    +0.000 A 
ATOM     24  C   UNL     1      -2.301   9.831  16.683  0.00  0.00    +0.000 A 
ATOM     25  C   UNL     1      -3.328  10.623  17.182  0.00  0.00    +0.000 A 
ATOM     26  C   UNL     1      -3.135  11.338  18.361  0.00  0.00    +0.000 A 
ATOM     27  C   UNL     1      -1.918  11.254  19.049  0.00  0.00    +0.000 A 
ATOM     28 CL   UNL     1      -1.767  12.207  20.486  0.00  0.00    +0.000 Cl
ENDBRANCH  21  22
BRANCH  21  29
ATOM     29  C   UNL     1       1.484  11.387  18.909  0.00  0.00    +0.000 C 
BRANCH  29  30
ATOM     30  C   UNL     1       1.724  12.437  19.964  0.00  0.00    +0.000 C 
ATOM     31  O   UNL     1       2.099  13.581  19.748  0.00  0.00    +0.000 OA
BRANCH  30  32
ATOM     32  O   UNL     1       1.567  11.963  21.222  0.00  0.00    +0.000 OA
ATOM     33  H   UNL     1       0.639  11.830  21.495  0.00  0.00    +0.000 HD
ENDBRANCH  30  32
ENDBRANCH  29  30
ENDBRANCH  21  29
ENDBRANCH  19  21
ENDBRANCH   4  17
BRANCH   1  35
ATOM     34  C   UNL     1       2.952   2.163  18.937  0.00  0.00    +0.000 C 
ATOM     35  O   UNL     1       3.501   3.111  19.844  0.00  0.00    +0.000 OA
ENDBRANCH   1  35
TORSDOF 9
ENDMDL
MODEL 3
REMARK VINA RESULT:      -8.3      0.877      1.169
REMARK  Name = 
REMARK  10 active torsions:
REMARK  status: ('A' for Active; 'I' for Inactive)
REMARK    1  A    between atoms: C_1  and  O_2
REMARK    2  A    between atoms: O_2  and  C_3
REMARK    3  A    between atoms: C_6  and  C_7
REMARK    4  A    between atoms: N_9  and  C_10
REMARK    5  A    between atoms: C_10  and  C_11
REMARK    6  A    between atoms: C_10  and  C_15
REMARK    7  A    between atoms: C_11  and  C_12
REMARK    8  A    between atoms: C_12  and  O_14
REMARK    9  A    between atoms: C_23  and  C_24
REMARK   10  A    between atoms: C_28  and  C_29
REMARK                            x       y       z     vdW  Elec       q    Type
REMARK                         _______ _______ _______ _____ _____    ______ ____
ROOT
ATOM      1  C   UNL     1       3.079   4.074  19.680  0.00  0.00    +0.000 A 
ATOM      2  C   UNL     1       1.878   4.315  20.350  0.00  0.00    +0.000 A 
ATOM      3  C   UNL     1       1.403   5.615  20.474  0.00  0.00    +0.000 A 
ATOM      4  C   UNL     1       2.149   6.646  19.926  0.00  0.00    +0.000 A 
ATOM      5  N   UNL     1       3.303   6.457  19.232  0.00  0.00    +0.000 NA
ATOM      6  C   UNL     1       3.757   5.172  19.099  0.00  0.00    +0.000 A 
ENDROOT
BRANCH   6   7
ATOM      7  C   UNL     1       5.012   5.048  18.306  0.00  0.00    +0.000 A 
ATOM      8  C   UNL     1       6.271   5.145  18.926  0.00  0.00    +0.000 A 
ATOM      9  C   UNL     1       7.460   5.019  18.200  0.00  0.00    +0.000 A 
ATOM     10  C   UNL     1       7.422   4.787  16.826  0.00  0.00    +0.000 A 
ATOM     11  C   UNL     1       6.195   4.701  16.166  0.00  0.00    +0.000 A 
ATOM     12  C   UNL     1       5.009   4.850  16.911  0.00  0.00    +0.000 A 
BRANCH  11  13
ATOM     13  C   UNL     1       6.110   4.447  14.681  0.00  0.00    +0.000 C 
ATOM     14  F   UNL     1       7.036   5.132  13.953  0.00  0.00    +0.000 F 
ATOM     15  F   UNL     1       6.287   3.133  14.365  0.00  0.00    +0.000 F 
ATOM     16  F   UNL     1       4.898   4.792  14.160  0.00  0.00    +0.000 F 
ENDBRANCH  11  13
ENDBRANCH   6   7
BRANCH   4  17
ATOM     17  C   UNL     1       1.703   8.061  20.141  0.00  0.00    +0.000 C 
ATOM     18  O   UNL     1       1.423   8.465  21.265  0.00  0.00    +0.000 OA
ATOM     19  N   UNL     1       1.658   8.853  19.013  0.00  0.00    +0.000 N 
ATOM     20  H   UNL     1       1.780   8.380  18.116  0.00  0.00    +0.000 HD
BRANCH  19  21
ATOM     21  C   UNL     1       1.160  10.224  19.040  0.00  0.00    +0.000 C 
BRANCH  21  22
ATOM     22  C   UNL     1      -0.300  10.342  18.611  0.00  0.00    +0.000 A 
ATOM     23  C   UNL     1      -0.748   9.724  17.427  0.00  0.00    +0.000 A 
ATOM     24  C   UNL     1      -2.082   9.809  17.022  0.00  0.00    +0.000 A 
ATOM     25  C   UNL     1      -3.001  10.517  17.788  0.00  0.00    +0.000 A 
ATOM     26  C   UNL     1      -2.582  11.152  18.954  0.00  0.00    +0.000 A 
ATOM     27  C   UNL     1      -1.244  11.072  19.362  0.00  0.00    +0.000 A 
ATOM     28 CL   UNL     1      -0.817  11.924  20.807  0.00  0.00    +0.000 Cl
ENDBRANCH  21  22
BRANCH  21  29
ATOM     29  C   UNL     1       2.096  11.189  18.298  0.00  0.00    +0.000 C 
BRANCH  29  30
ATOM     30  C   UNL     1       1.982  12.625  18.742  0.00  0.00    +0.000 C 
ATOM     31  O   UNL     1       2.471  13.089  19.762  0.00  0.00    +0.000 OA
BRANCH  30  32
ATOM     32  O   UNL     1       1.190  13.365  17.930  0.00  0.00    +0.000 OA
ATOM     33  H   UNL     1       0.805  14.158  18.348  0.00  0.00    +0.000 HD
ENDBRANCH  30  32
ENDBRANCH  29  30
ENDBRANCH  21  29
ENDBRANCH  19  21
ENDBRANCH   4  17
BRANCH   1  35
ATOM     34  C   UNL     1       3.053   1.870  18.729  0.00  0.00    +0.000 C 
ATOM     35  O   UNL     1       3.654   2.834  19.584  0.00  0.00    +0.000 OA
ENDBRANCH   1  35
TORSDOF 9
ENDMDL
MODEL 4
REMARK VINA RESULT:      -8.1      4.971      9.429
REMARK  Name = 
REMARK  10 active torsions:
REMARK  status: ('A' for Active; 'I' for Inactive)
REMARK    1  A    between atoms: C_1  and  O_2
REMARK    2  A    between atoms: O_2  and  C_3
REMARK    3  A    between atoms: C_6  and  C_7
REMARK    4  A    between atoms: N_9  and  C_10
REMARK    5  A    between atoms: C_10  and  C_11
REMARK    6  A    between atoms: C_10  and  C_15
REMARK    7  A    between atoms: C_11  and  C_12
REMARK    8  A    between atoms: C_12  and  O_14
REMARK    9  A    between atoms: C_23  and  C_24
REMARK   10  A    between atoms: C_28  and  C_29
REMARK                            x       y       z     vdW  Elec       q    Type
REMARK                         _______ _______ _______ _____ _____    ______ ____
ROOT
ATOM      1  C   UNL     1       1.331  10.602  18.788  0.00  0.00    +0.000 A 
ATOM      2  C   UNL     1       2.072  10.024  17.754  0.00  0.00    +0.000 A 
ATOM      3  C   UNL     1       2.436   8.685  17.828  0.00  0.00    +0.000 A 
ATOM      4  C   UNL     1       2.052   7.957  18.943  0.00  0.00    +0.000 A 
ATOM      5  N   UNL     1       1.299   8.465  19.955  0.00  0.00    +0.000 NA
ATOM      6  C   UNL     1       0.929   9.780  19.867  0.00  0.00    +0.000 A 
ENDROOT
BRANCH   6   7
ATOM      7  C   UNL     1       0.086  10.253  21.002  0.00  0.00    +0.000 A 
ATOM      8  C   UNL     1       0.209   9.681  22.281  0.00  0.00    +0.000 A 
ATOM      9  C   UNL     1      -0.566  10.120  23.360  0.00  0.00    +0.000 A 
ATOM     10  C   UNL     1      -1.488  11.152  23.188  0.00  0.00    +0.000 A 
ATOM     11  C   UNL     1      -1.655  11.737  21.932  0.00  0.00    +0.000 A 
ATOM     12  C   UNL     1      -0.880  11.268  20.854  0.00  0.00    +0.000 A 
BRANCH  11  13
ATOM     13  C   UNL     1      -2.639  12.859  21.705  0.00  0.00    +0.000 C 
ATOM     14  F   UNL     1      -3.936  12.448  21.646  0.00  0.00    +0.000 F 
ATOM     15  F   UNL     1      -2.592  13.800  22.690  0.00  0.00    +0.000 F 
ATOM     16  F   UNL     1      -2.407  13.530  20.542  0.00  0.00    +0.000 F 
ENDBRANCH  11  13
ENDBRANCH   6   7
BRANCH   4  17
ATOM     17  C   UNL     1       2.526   6.542  19.085  0.00  0.00    +0.000 C 
ATOM     18  O   UNL     1       2.557   5.998  20.185  0.00  0.00    +0.000 OA
ATOM     19  N   UNL     1       2.890   5.912  17.913  0.00  0.00    +0.000 N 
ATOM     20  H   UNL     1       2.954   6.497  17.079  0.00  0.00    +0.000 HD
BRANCH  19  21
ATOM     21  C   UNL     1       3.456   4.567  17.892  0.00  0.00    +0.000 C 
BRANCH  21  22
ATOM     22  C   UNL     1       4.792   4.489  17.160  0.00  0.00    +0.000 A 
ATOM     23  C   UNL     1       4.848   4.047  15.823  0.00  0.00    +0.000 A 
ATOM     24  C   UNL     1       6.059   3.979  15.130  0.00  0.00    +0.000 A 
ATOM     25  C   UNL     1       7.244   4.347  15.756  0.00  0.00    +0.000 A 
ATOM     26  C   UNL     1       7.220   4.771  17.082  0.00  0.00    +0.000 A 
ATOM     27  C   UNL     1       6.008   4.838  17.782  0.00  0.00    +0.000 A 
ATOM     28 CL   UNL     1       6.090   5.344  19.435  0.00  0.00    +0.000 Cl
ENDBRANCH  21  22
BRANCH  21  29
ATOM     29  C   UNL     1       2.435   3.523  17.417  0.00  0.00    +0.000 C 
BRANCH  29  30
ATOM     30  C   UNL     1       1.958   2.587  18.498  0.00  0.00    +0.000 C 
ATOM     31  O   UNL     1       1.310   2.916  19.480  0.00  0.00    +0.000 OA
BRANCH  30  32
ATOM     32  O   UNL     1       2.400   1.318  18.327  0.00  0.00    +0.000 OA
ATOM     33  H   UNL     1       2.833   0.928  19.110  0.00  0.00    +0.000 HD
ENDBRANCH  30  32
ENDBRANCH  29  30
ENDBRANCH  21  29
ENDBRANCH  19  21
ENDBRANCH   4  17
BRANCH   1  35
ATOM     34  C   UNL     1       2.046  12.893  18.765  0.00  0.00    +0.000 C 
ATOM     35  O   UNL     1       1.001  11.931  18.828  0.00  0.00    +0.000 OA
ENDBRANCH   1  35
TORSDOF 9
ENDMDL
MODEL 5
REMARK VINA RESULT:      -8.0      2.469      3.777
REMARK  Name = 
REMARK  10 active torsions:
REMARK  status: ('A' for Active; 'I' for Inactive)
REMARK    1  A    between atoms: C_1  and  O_2
REMARK    2  A    between atoms: O_2  and  C_3
REMARK    3  A    between atoms: C_6  and  C_7
REMARK    4  A    between atoms: N_9  and  C_10
REMARK    5  A    between atoms: C_10  and  C_11
REMARK    6  A    between atoms: C_10  and  C_15
REMARK    7  A    between atoms: C_11  and  C_12
REMARK    8  A    between atoms: C_12  and  O_14
REMARK    9  A    between atoms: C_23  and  C_24
REMARK   10  A    between atoms: C_28  and  C_29
REMARK                            x       y       z     vdW  Elec       q    Type
REMARK                         _______ _______ _______ _____ _____    ______ ____
ROOT
ATOM      1  C   UNL     1       2.218   6.098  20.345  0.00  0.00    +0.000 A 
ATOM      2  C   UNL     1       1.429   7.028  21.026  0.00  0.00    +0.000 A 
ATOM      3  C   UNL     1       1.158   8.262  20.448  0.00  0.00    +0.000 A 
ATOM      4  C   UNL     1       1.690   8.538  19.198  0.00  0.00    +0.000 A 
ATOM      5  N   UNL     1       2.431   7.651  18.481  0.00  0.00    +0.000 NA
ATOM      6  C   UNL     1       2.681   6.431  19.049  0.00  0.00    +0.000 A 
ENDROOT
BRANCH   6   7
ATOM      7  C   UNL     1       3.477   5.510  18.190  0.00  0.00    +0.000 A 
ATOM      8  C   UNL     1       2.881   4.388  17.587  0.00  0.00    +0.000 A 
ATOM      9  C   UNL     1       3.610   3.519  16.768  0.00  0.00    +0.000 A 
ATOM     10  C   UNL     1       4.963   3.753  16.526  0.00  0.00    +0.000 A 
ATOM     11  C   UNL     1       5.600   4.845  17.118  0.00  0.00    +0.000 A 
ATOM     12  C   UNL     1       4.854   5.697  17.954  0.00  0.00    +0.000 A 
BRANCH  11  13
ATOM     13  C   UNL     1       7.061   5.135  16.878  0.00  0.00    +0.000 C 
ATOM     14  F   UNL     1       7.486   4.814  15.624  0.00  0.00    +0.000 F 
ATOM     15  F   UNL     1       7.366   6.453  17.046  0.00  0.00    +0.000 F 
ATOM     16  F   UNL     1       7.877   4.456  17.733  0.00  0.00    +0.000 F 
ENDBRANCH  11  13
ENDBRANCH   6   7
BRANCH   4  17
ATOM     17  C   UNL     1       1.492   9.902  18.609  0.00  0.00    +0.000 C 
ATOM     18  O   UNL     1       2.130  10.257  17.623  0.00  0.00    +0.000 OA
ATOM     19  N   UNL     1       0.547  10.690  19.231  0.00  0.00    +0.000 N 
ATOM     20  H   UNL     1       0.177  10.349  20.119  0.00  0.00    +0.000 HD
BRANCH  19  21
ATOM     21  C   UNL     1       0.301  12.073  18.834  0.00  0.00    +0.000 C 
BRANCH  21  22
ATOM     22  C   UNL     1       0.901  13.091  19.799  0.00  0.00    +0.000 A 
ATOM     23  C   UNL     1       0.213  13.453  20.974  0.00  0.00    +0.000 A 
ATOM     24  C   UNL     1       0.750  14.374  21.877  0.00  0.00    +0.000 A 
ATOM     25  C   UNL     1       1.986  14.958  21.627  0.00  0.00    +0.000 A 
ATOM     26  C   UNL     1       2.680  14.632  20.465  0.00  0.00    +0.000 A 
ATOM     27  C   UNL     1       2.144  13.712  19.555  0.00  0.00    +0.000 A 
ATOM     28 CL   UNL     1       3.068  13.400  18.126  0.00  0.00    +0.000 Cl
ENDBRANCH  21  22
BRANCH  21  29
ATOM     29  C   UNL     1      -1.182  12.325  18.524  0.00  0.00    +0.000 C 
BRANCH  29  30
ATOM     30  C   UNL     1      -1.827  11.257  17.677  0.00  0.00    +0.000 C 
ATOM     31  O   UNL     1      -2.067  10.116  18.043  0.00  0.00    +0.000 OA
BRANCH  30  32
ATOM     32  O   UNL     1      -2.046  11.659  16.402  0.00  0.00    +0.000 OA
ATOM     33  H   UNL     1      -1.312  11.477  15.785  0.00  0.00    +0.000 HD
ENDBRANCH  30  32
ENDBRANCH  29  30
ENDBRANCH  21  29
ENDBRANCH  19  21
ENDBRANCH   4  17
BRANCH   1  35
ATOM     34  C   UNL     1       1.613   3.881  21.037  0.00  0.00    +0.000 C 
ATOM     35  O   UNL     1       2.597   4.895  20.878  0.00  0.00    +0.000 OA
ENDBRANCH   1  35
TORSDOF 9
ENDMDL
MODEL 6
REMARK VINA RESULT:      -7.8      2.301      3.674
REMARK  Name = 
REMARK  10 active torsions:
REMARK  status: ('A' for Active; 'I' for Inactive)
REMARK    1  A    between atoms: C_1  and  O_2
REMARK    2  A    between atoms: O_2  and  C_3
REMARK    3  A    between atoms: C_6  and  C_7
REMARK    4  A    between atoms: N_9  and  C_10
REMARK    5  A    between atoms: C_10  and  C_11
REMARK    6  A    between atoms: C_10  and  C_15
REMARK    7  A    between atoms: C_11  and  C_12
REMARK    8  A    between atoms: C_12  and  O_14
REMARK    9  A    between atoms: C_23  and  C_24
REMARK   10  A    between atoms: C_28  and  C_29
REMARK                            x       y       z     vdW  Elec       q    Type
REMARK                         _______ _______ _______ _____ _____    ______ ____
ROOT
ATOM      1  C   UNL     1       2.232   6.178  20.330  0.00  0.00    +0.000 A 
ATOM      2  C   UNL     1       1.459   7.135  20.991  0.00  0.00    +0.000 A 
ATOM      3  C   UNL     1       1.192   8.354  20.379  0.00  0.00    +0.000 A 
ATOM      4  C   UNL     1       1.713   8.586  19.116  0.00  0.00    +0.000 A 
ATOM      5  N   UNL     1       2.439   7.672  18.418  0.00  0.00    +0.000 NA
ATOM      6  C   UNL     1       2.683   6.468  19.020  0.00  0.00    +0.000 A 
ENDROOT
BRANCH   6   7
ATOM      7  C   UNL     1       3.463   5.514  18.181  0.00  0.00    +0.000 A 
ATOM      8  C   UNL     1       2.840   4.404  17.582  0.00  0.00    +0.000 A 
ATOM      9  C   UNL     1       3.553   3.504  16.781  0.00  0.00    +0.000 A 
ATOM     10  C   UNL     1       4.916   3.694  16.555  0.00  0.00    +0.000 A 
ATOM     11  C   UNL     1       5.578   4.773  17.144  0.00  0.00    +0.000 A 
ATOM     12  C   UNL     1       4.847   5.656  17.962  0.00  0.00    +0.000 A 
BRANCH  11  13
ATOM     13  C   UNL     1       7.051   5.016  16.921  0.00  0.00    +0.000 C 
ATOM     14  F   UNL     1       7.388   6.335  16.878  0.00  0.00    +0.000 F 
ATOM     15  F   UNL     1       7.825   4.467  17.898  0.00  0.00    +0.000 F 
ATOM     16  F   UNL     1       7.497   4.479  15.750  0.00  0.00    +0.000 F 
ENDBRANCH  11  13
ENDBRANCH   6   7
BRANCH   4  17
ATOM     17  C   UNL     1       1.521   9.934  18.487  0.00  0.00    +0.000 C 
ATOM     18  O   UNL     1       2.269  10.322  17.596  0.00  0.00    +0.000 OA
ATOM     19  N   UNL     1       0.453  10.667  18.959  0.00  0.00    +0.000 N 
ATOM     20  H   UNL     1      -0.019  10.307  19.790  0.00  0.00    +0.000 HD
BRANCH  19  21
ATOM     21  C   UNL     1       0.184  12.031  18.515  0.00  0.00    +0.000 C 
BRANCH  21  22
ATOM     22  C   UNL     1       0.938  13.085  19.320  0.00  0.00    +0.000 A 
ATOM     23  C   UNL     1       1.844  13.956  18.683  0.00  0.00    +0.000 A 
ATOM     24  C   UNL     1       2.536  14.937  19.399  0.00  0.00    +0.000 A 
ATOM     25  C   UNL     1       2.343  15.069  20.769  0.00  0.00    +0.000 A 
ATOM     26  C   UNL     1       1.467  14.209  21.426  0.00  0.00    +0.000 A 
ATOM     27  C   UNL     1       0.773  13.223  20.713  0.00  0.00    +0.000 A 
ATOM     28 CL   UNL     1      -0.266  12.184  21.629  0.00  0.00    +0.000 Cl
ENDBRANCH  21  22
BRANCH  21  29
ATOM     29  C   UNL     1      -1.322  12.310  18.400  0.00  0.00    +0.000 C 
BRANCH  29  30
ATOM     30  C   UNL     1      -2.071  11.318  17.548  0.00  0.00    +0.000 C 
ATOM     31  O   UNL     1      -2.442  10.212  17.915  0.00  0.00    +0.000 OA
BRANCH  30  32
ATOM     32  O   UNL     1      -2.229  11.735  16.270  0.00  0.00    +0.000 OA
ATOM     33  H   UNL     1      -1.475  11.541  15.681  0.00  0.00    +0.000 HD
ENDBRANCH  30  32
ENDBRANCH  29  30
ENDBRANCH  21  29
ENDBRANCH  19  21
ENDBRANCH   4  17
BRANCH   1  35
ATOM     34  C   UNL     1       1.629   3.964  21.034  0.00  0.00    +0.000 C 
ATOM     35  O   UNL     1       2.606   4.988  20.895  0.00  0.00    +0.000 OA
ENDBRANCH   1  35
TORSDOF 9
ENDMDL
MODEL 7
REMARK VINA RESULT:      -7.8      1.841      2.371
REMARK  Name = 
REMARK  10 active torsions:
REMARK  status: ('A' for Active; 'I' for Inactive)
REMARK    1  A    between atoms: C_1  and  O_2
REMARK    2  A    between atoms: O_2  and  C_3
REMARK    3  A    between atoms: C_6  and  C_7
REMARK    4  A    between atoms: N_9  and  C_10
REMARK    5  A    between atoms: C_10  and  C_11
REMARK    6  A    between atoms: C_10  and  C_15
REMARK    7  A    between atoms: C_11  and  C_12
REMARK    8  A    between atoms: C_12  and  O_14
REMARK    9  A    between atoms: C_23  and  C_24
REMARK   10  A    between atoms: C_28  and  C_29
REMARK                            x       y       z     vdW  Elec       q    Type
REMARK                         _______ _______ _______ _____ _____    ______ ____
ROOT
ATOM      1  C   UNL     1       2.865   4.758  19.937  0.00  0.00    +0.000 A 
ATOM      2  C   UNL     1       1.783   4.887  20.811  0.00  0.00    +0.000 A 
ATOM      3  C   UNL     1       1.174   6.124  20.981  0.00  0.00    +0.000 A 
ATOM      4  C   UNL     1       1.669   7.208  20.272  0.00  0.00    +0.000 A 
ATOM      5  N   UNL     1       2.694   7.123  19.383  0.00  0.00    +0.000 NA
ATOM      6  C   UNL     1       3.278   5.899  19.207  0.00  0.00    +0.000 A 
ENDROOT
BRANCH   6   7
ATOM      7  C   UNL     1       4.375   5.885  18.199  0.00  0.00    +0.000 A 
ATOM      8  C   UNL     1       4.319   5.035  17.080  0.00  0.00    +0.000 A 
ATOM      9  C   UNL     1       5.334   5.017  16.117  0.00  0.00    +0.000 A 
ATOM     10  C   UNL     1       6.438   5.858  16.247  0.00  0.00    +0.000 A 
ATOM     11  C   UNL     1       6.544   6.707  17.350  0.00  0.00    +0.000 A 
ATOM     12  C   UNL     1       5.522   6.696  18.318  0.00  0.00    +0.000 A 
BRANCH  11  13
ATOM     13  C   UNL     1       7.721   7.636  17.524  0.00  0.00    +0.000 C 
ATOM     14  F   UNL     1       7.368   8.937  17.719  0.00  0.00    +0.000 F 
ATOM     15  F   UNL     1       8.498   7.298  18.592  0.00  0.00    +0.000 F 
ATOM     16  F   UNL     1       8.554   7.632  16.446  0.00  0.00    +0.000 F 
ENDBRANCH  11  13
ENDBRANCH   6   7
BRANCH   4  17
ATOM     17  C   UNL     1       1.089   8.567  20.524  0.00  0.00    +0.000 C 
ATOM     18  O   UNL     1       0.929   8.978  21.668  0.00  0.00    +0.000 OA
ATOM     19  N   UNL     1       0.783   9.305  19.399  0.00  0.00    +0.000 N 
ATOM     20  H   UNL     1       0.830   8.816  18.504  0.00  0.00    +0.000 HD
BRANCH  19  21
ATOM     21  C   UNL     1       0.131  10.608  19.473  0.00  0.00    +0.000 C 
BRANCH  21  22
ATOM     22  C   UNL     1      -1.153  10.685  18.651  0.00  0.00    +0.000 A 
ATOM     23  C   UNL     1      -1.303   9.904  17.488  0.00  0.00    +0.000 A 
ATOM     24  C   UNL     1      -2.474   9.950  16.727  0.00  0.00    +0.000 A 
ATOM     25  C   UNL     1      -3.522  10.780  17.107  0.00  0.00    +0.000 A 
ATOM     26  C   UNL     1      -3.393  11.576  18.242  0.00  0.00    +0.000 A 
ATOM     27  C   UNL     1      -2.220  11.535  19.006  0.00  0.00    +0.000 A 
ATOM     28 CL   UNL     1      -2.146  12.587  20.378  0.00  0.00    +0.000 Cl
ENDBRANCH  21  22
BRANCH  21  29
ATOM     29  C   UNL     1       1.110  11.757  19.189  0.00  0.00    +0.000 C 
BRANCH  29  30
ATOM     30  C   UNL     1       1.572  12.493  20.420  0.00  0.00    +0.000 C 
ATOM     31  O   UNL     1       2.324  13.457  20.425  0.00  0.00    +0.000 OA
BRANCH  30  32
ATOM     32  O   UNL     1       1.138  11.922  21.568  0.00  0.00    +0.000 OA
ATOM     33  H   UNL     1       1.845  11.575  22.144  0.00  0.00    +0.000 HD
ENDBRANCH  30  32
ENDBRANCH  29  30
ENDBRANCH  21  29
ENDBRANCH  19  21
ENDBRANCH   4  17
BRANCH   1  35
ATOM     34  C   UNL     1       2.883   2.447  19.292  0.00  0.00    +0.000 C 
ATOM     35  O   UNL     1       3.569   3.595  19.774  0.00  0.00    +0.000 OA
ENDBRANCH   1  35
TORSDOF 9
ENDMDL
MODEL 8
REMARK VINA RESULT:      -7.7      3.496      5.084
REMARK  Name = 
REMARK  10 active torsions:
REMARK  status: ('A' for Active; 'I' for Inactive)
REMARK    1  A    between atoms: C_1  and  O_2
REMARK    2  A    between atoms: O_2  and  C_3
REMARK    3  A    between atoms: C_6  and  C_7
REMARK    4  A    between atoms: N_9  and  C_10
REMARK    5  A    between atoms: C_10  and  C_11
REMARK    6  A    between atoms: C_10  and  C_15
REMARK    7  A    between atoms: C_11  and  C_12
REMARK    8  A    between atoms: C_12  and  O_14
REMARK    9  A    between atoms: C_23  and  C_24
REMARK   10  A    between atoms: C_28  and  C_29
REMARK                            x       y       z     vdW  Elec       q    Type
REMARK                         _______ _______ _______ _____ _____    ______ ____
ROOT
ATOM      1  C   UNL     1       4.210   5.972  17.489  0.00  0.00    +0.000 A 
ATOM      2  C   UNL     1       4.739   7.200  17.086  0.00  0.00    +0.000 A 
ATOM      3  C   UNL     1       3.981   8.358  17.217  0.00  0.00    +0.000 A 
ATOM      4  C   UNL     1       2.704   8.254  17.746  0.00  0.00    +0.000 A 
ATOM      5  N   UNL     1       2.161   7.088  18.186  0.00  0.00    +0.000 NA
ATOM      6  C   UNL     1       2.919   5.955  18.070  0.00  0.00    +0.000 A 
ENDROOT
BRANCH   6   7
ATOM      7  C   UNL     1       2.263   4.725  18.597  0.00  0.00    +0.000 A 
ATOM      8  C   UNL     1       1.474   3.913  17.763  0.00  0.00    +0.000 A 
ATOM      9  C   UNL     1       0.860   2.748  18.237  0.00  0.00    +0.000 A 
ATOM     10  C   UNL     1       1.023   2.361  19.566  0.00  0.00    +0.000 A 
ATOM     11  C   UNL     1       1.784   3.146  20.434  0.00  0.00    +0.000 A 
ATOM     12  C   UNL     1       2.378   4.324  19.943  0.00  0.00    +0.000 A 
BRANCH  11  13
ATOM     13  C   UNL     1       1.988   2.759  21.879  0.00  0.00    +0.000 C 
ATOM     14  F   UNL     1       2.359   3.799  22.678  0.00  0.00    +0.000 F 
ATOM     15  F   UNL     1       0.863   2.239  22.445  0.00  0.00    +0.000 F 
ATOM     16  F   UNL     1       2.953   1.809  22.034  0.00  0.00    +0.000 F 
ENDBRANCH  11  13
ENDBRANCH   6   7
BRANCH   4  17
ATOM     17  C   UNL     1       1.837   9.477  17.797  0.00  0.00    +0.000 C 
ATOM     18  O   UNL     1       2.325  10.596  17.677  0.00  0.00    +0.000 OA
ATOM     19  N   UNL     1       0.487   9.246  17.960  0.00  0.00    +0.000 N 
ATOM     20  H   UNL     1       0.209   8.290  18.185  0.00  0.00    +0.000 HD
BRANCH  19  21
ATOM     21  C   UNL     1      -0.476  10.331  18.119  0.00  0.00    +0.000 C 
BRANCH  21  22
ATOM     22  C   UNL     1      -0.456  10.955  19.511  0.00  0.00    +0.000 A 
ATOM     23  C   UNL     1      -0.560  10.143  20.658  0.00  0.00    +0.000 A 
ATOM     24  C   UNL     1      -0.531  10.692  21.943  0.00  0.00    +0.000 A 
ATOM     25  C   UNL     1      -0.401  12.065  22.113  0.00  0.00    +0.000 A 
ATOM     26  C   UNL     1      -0.313  12.892  20.997  0.00  0.00    +0.000 A 
ATOM     27  C   UNL     1      -0.345  12.347  19.707  0.00  0.00    +0.000 A 
ATOM     28 CL   UNL     1      -0.264  13.462  18.386  0.00  0.00    +0.000 Cl
ENDBRANCH  21  22
BRANCH  21  29
ATOM     29  C   UNL     1      -1.881   9.922  17.652  0.00  0.00    +0.000 C 
BRANCH  29  30
ATOM     30  C   UNL     1      -2.535  10.911  16.721  0.00  0.00    +0.000 C 
ATOM     31  O   UNL     1      -2.526  10.844  15.501  0.00  0.00    +0.000 OA
BRANCH  30  32
ATOM     32  O   UNL     1      -3.079  11.966  17.373  0.00  0.00    +0.000 OA
ATOM     33  H   UNL     1      -2.431  12.590  17.752  0.00  0.00    +0.000 HD
ENDBRANCH  30  32
ENDBRANCH  29  30
ENDBRANCH  21  29
ENDBRANCH  19  21
ENDBRANCH   4  17
BRANCH   1  35
ATOM     34  C   UNL     1       5.046   4.287  15.998  0.00  0.00    +0.000 C 
ATOM     35  O   UNL     1       4.860   4.778  17.319  0.00  0.00    +0.000 OA
ENDBRANCH   1  35
TORSDOF 9
ENDMDL
MODEL 9
REMARK VINA RESULT:      -7.6      1.145      1.587
REMARK  Name = 
REMARK  10 active torsions:
REMARK  status: ('A' for Active; 'I' for Inactive)
REMARK    1  A    between atoms: C_1  and  O_2
REMARK    2  A    between atoms: O_2  and  C_3
REMARK    3  A    between atoms: C_6  and  C_7
REMARK    4  A    between atoms: N_9  and  C_10
REMARK    5  A    between atoms: C_10  and  C_11
REMARK    6  A    between atoms: C_10  and  C_15
REMARK    7  A    between atoms: C_11  and  C_12
REMARK    8  A    between atoms: C_12  and  O_14
REMARK    9  A    between atoms: C_23  and  C_24
REMARK   10  A    between atoms: C_28  and  C_29
REMARK                            x       y       z     vdW  Elec       q    Type
REMARK                         _______ _______ _______ _____ _____    ______ ____
ROOT
ATOM      1  C   UNL     1       3.232   5.019  19.894  0.00  0.00    +0.000 A 
ATOM      2  C   UNL     1       2.040   5.466  20.470  0.00  0.00    +0.000 A 
ATOM      3  C   UNL     1       1.519   6.704  20.112  0.00  0.00    +0.000 A 
ATOM      4  C   UNL     1       2.211   7.468  19.185  0.00  0.00    +0.000 A 
ATOM      5  N   UNL     1       3.353   7.059  18.570  0.00  0.00    +0.000 NA
ATOM      6  C   UNL     1       3.851   5.832  18.915  0.00  0.00    +0.000 A 
ENDROOT
BRANCH   6   7
ATOM      7  C   UNL     1       5.089   5.448  18.180  0.00  0.00    +0.000 A 
ATOM      8  C   UNL     1       6.328   5.374  18.840  0.00  0.00    +0.000 A 
ATOM      9  C   UNL     1       7.499   5.004  18.169  0.00  0.00    +0.000 A 
ATOM     10  C   UNL     1       7.460   4.692  16.811  0.00  0.00    +0.000 A 
ATOM     11  C   UNL     1       6.254   4.768  16.111  0.00  0.00    +0.000 A 
ATOM     12  C   UNL     1       5.091   5.162  16.800  0.00  0.00    +0.000 A 
BRANCH  11  13
ATOM     13  C   UNL     1       6.169   4.435  14.642  0.00  0.00    +0.000 C 
ATOM     14  F   UNL     1       5.015   4.854  14.050  0.00  0.00    +0.000 F 
ATOM     15  F   UNL     1       7.180   4.994  13.920  0.00  0.00    +0.000 F 
ATOM     16  F   UNL     1       6.243   3.094  14.405  0.00  0.00    +0.000 F 
ENDBRANCH  11  13
ENDBRANCH   6   7
BRANCH   4  17
ATOM     17  C   UNL     1       1.717   8.848  18.867  0.00  0.00    +0.000 C 
ATOM     18  O   UNL     1       2.197   9.486  17.937  0.00  0.00    +0.000 OA
ATOM     19  N   UNL     1       0.693   9.315  19.665  0.00  0.00    +0.000 N 
ATOM     20  H   UNL     1       0.464   8.759  20.490  0.00  0.00    +0.000 HD
BRANCH  19  21
ATOM     21  C   UNL     1       0.164  10.669  19.542  0.00  0.00    +0.000 C 
BRANCH  21  22
ATOM     22  C   UNL     1      -1.113  10.742  18.709  0.00  0.00    +0.000 A 
ATOM     23  C   UNL     1      -1.262   9.940  17.560  0.00  0.00    +0.000 A 
ATOM     24  C   UNL     1      -2.427   9.982  16.791  0.00  0.00    +0.000 A 
ATOM     25  C   UNL     1      -3.471  10.828  17.148  0.00  0.00    +0.000 A 
ATOM     26  C   UNL     1      -3.343  11.643  18.269  0.00  0.00    +0.000 A 
ATOM     27  C   UNL     1      -2.175  11.607  19.042  0.00  0.00    +0.000 A 
ATOM     28 CL   UNL     1      -2.102  12.684  20.395  0.00  0.00    +0.000 Cl
ENDBRANCH  21  22
BRANCH  21  29
ATOM     29  C   UNL     1       1.242  11.669  19.098  0.00  0.00    +0.000 C 
BRANCH  29  30
ATOM     30  C   UNL     1       1.727  12.582  20.194  0.00  0.00    +0.000 C 
ATOM     31  O   UNL     1       1.262  12.638  21.323  0.00  0.00    +0.000 OA
BRANCH  30  32
ATOM     32  O   UNL     1       2.700  13.428  19.781  0.00  0.00    +0.000 OA
ATOM     33  H   UNL     1       2.993  14.073  20.453  0.00  0.00    +0.000 HD
ENDBRANCH  30  32
ENDBRANCH  29  30
ENDBRANCH  21  29
ENDBRANCH  19  21
ENDBRANCH   4  17
BRANCH   1  35
ATOM     34  C   UNL     1       3.044   2.724  20.572  0.00  0.00    +0.000 C 
ATOM     35  O   UNL     1       3.851   3.851  20.251  0.00  0.00    +0.000 OA
ENDBRANCH   1  35
TORSDOF 9
ENDMDL
