MODEL 1
REMARK VINA RESULT:      -7.6      0.000      0.000
REMARK  Name = 
REMARK  6 active torsions:
REMARK  status: ('A' for Active; 'I' for Inactive)
REMARK    1  A    between atoms: C_2  and  C_3
REMARK    2  A    between atoms: C_3  and  N_4
REMARK    3  A    between atoms: C_5  and  C_7
REMARK    4  A    between atoms: N_9  and  C_10
REMARK    5  A    between atoms: N_16  and  S_17
REMARK    6  A    between atoms: S_17  and  C_20
REMARK                            x       y       z     vdW  Elec       q    Type
REMARK                         _______ _______ _______ _____ _____    ______ ____
ROOT
ATOM      1  C   UNL     1       4.093   5.182  17.359  0.00  0.00    +0.000 A 
ATOM      2  C   UNL     1       3.764   4.068  18.127  0.00  0.00    +0.000 A 
ATOM      3  C   UNL     1       2.969   4.208  19.262  0.00  0.00    +0.000 A 
ATOM      4  C   UNL     1       2.460   5.461  19.628  0.00  0.00    +0.000 A 
ATOM      5  C   UNL     1       2.761   6.595  18.851  0.00  0.00    +0.000 A 
ATOM      6  C   UNL     1       3.615   6.443  17.748  0.00  0.00    +0.000 A 
ATOM      7  N   UNL     1       2.259   7.896  19.256  0.00  0.00    +0.000 N 
ATOM      8  C   UNL     1       1.723   8.022  20.635  0.00  0.00    +0.000 C 
ATOM      9  C   UNL     1       0.864   6.826  21.007  0.00  0.00    +0.000 C 
ATOM     10  C   UNL     1       1.675   5.548  20.907  0.00  0.00    +0.000 C 
ENDROOT
BRANCH   1  13
ATOM     11  C   UNL     1       6.253   4.803  16.186  0.00  0.00    +0.000 C 
ATOM     12  O   UNL     1       6.995   4.513  17.113  0.00  0.00    +0.000 OA
ATOM     13  N   UNL     1       4.905   5.106  16.215  0.00  0.00    +0.000 N 
ATOM     14  H   UNL     1       4.467   5.222  15.303  0.00  0.00    +0.000 HD
BRANCH  11  16
ATOM     15  N   UNL     1       6.161   3.976  13.903  0.00  0.00    +0.000 N 
ATOM     16  C   UNL     1       6.838   4.811  14.762  0.00  0.00    +0.000 C 
ATOM     17  O   UNL     1       7.803   5.510  14.496  0.00  0.00    +0.000 OA
ATOM     18  H   UNL     1       5.384   3.453  14.298  0.00  0.00    +0.000 HD
BRANCH  15  19
ATOM     19  C   UNL     1       6.547   3.757  12.539  0.00  0.00    +0.000 C 
BRANCH  19  21
ATOM     20  C   UNL     1       4.320   3.273  11.486  0.00  0.00    +0.000 C 
ATOM     21  C   UNL     1       5.521   2.865  11.920  0.00  0.00    +0.000 C 
ENDBRANCH  19  21
ENDBRANCH  15  19
ENDBRANCH  11  16
ENDBRANCH   1  13
BRANCH   7  22
ATOM     22  S   UNL     1       1.659   9.000  18.094  0.00  0.00    +0.000 S 
ATOM     23  O   UNL     1       2.782   9.738  17.547  0.00  0.00    +0.000 OA
ATOM     24  O   UNL     1       0.728   8.348  17.197  0.00  0.00    +0.000 OA
BRANCH  22  25
ATOM     25  C   UNL     1       0.712  10.260  18.944  0.00  0.00    +0.000 A 
ATOM     26  C   UNL     1      -0.537  10.225  19.536  0.00  0.00    +0.000 A 
ATOM     27  C   UNL     1      -0.889  11.465  20.142  0.00  0.00    +0.000 A 
ATOM     28  C   UNL     1       0.106  12.407  19.999  0.00  0.00    +0.000 A 
ATOM     29  S   UNL     1       1.440  11.799  19.117  0.00  0.00    +0.000 S 
ENDBRANCH  22  25
ENDBRANCH   7  22
TORSDOF 6
ENDMDL
MODEL 2
REMARK VINA RESULT:      -7.6      4.641      5.859
REMARK  Name = 
REMARK  6 active torsions:
REMARK  status: ('A' for Active; 'I' for Inactive)
REMARK    1  A    between atoms: C_2  and  C_3
REMARK    2  A    between atoms: C_3  and  N_4
REMARK    3  A    between atoms: C_5  and  C_7
REMARK    4  A    between atoms: N_9  and  C_10
REMARK    5  A    between atoms: N_16  and  S_17
REMARK    6  A    between atoms: S_17  and  C_20
REMARK                            x       y       z     vdW  Elec       q    Type
REMARK                         _______ _______ _______ _____ _____    ______ ____
ROOT
ATOM      1  C   UNL     1       5.840   4.303  14.697  0.00  0.00    +0.000 A 
ATOM      2  C   UNL     1       7.013   5.051  14.650  0.00  0.00    +0.000 A 
ATOM      3  C   UNL     1       7.538   5.606  15.814  0.00  0.00    +0.000 A 
ATOM      4  C   UNL     1       6.917   5.392  17.052  0.00  0.00    +0.000 A 
ATOM      5  C   UNL     1       5.745   4.618  17.124  0.00  0.00    +0.000 A 
ATOM      6  C   UNL     1       5.196   4.121  15.932  0.00  0.00    +0.000 A 
ATOM      7  N   UNL     1       5.088   4.428  18.405  0.00  0.00    +0.000 N 
ATOM      8  C   UNL     1       5.500   5.316  19.522  0.00  0.00    +0.000 C 
ATOM      9  C   UNL     1       7.007   5.495  19.560  0.00  0.00    +0.000 C 
ATOM     10  C   UNL     1       7.499   6.085  18.253  0.00  0.00    +0.000 C 
ENDROOT
BRANCH   1  13
ATOM     11  C   UNL     1       5.911   3.329  12.410  0.00  0.00    +0.000 C 
ATOM     12  O   UNL     1       7.109   3.347  12.166  0.00  0.00    +0.000 OA
ATOM     13  N   UNL     1       5.252   3.734  13.555  0.00  0.00    +0.000 N 
ATOM     14  H   UNL     1       4.253   3.536  13.573  0.00  0.00    +0.000 HD
BRANCH  11  16
ATOM     15  N   UNL     1       3.952   3.622  11.004  0.00  0.00    +0.000 N 
ATOM     16  C   UNL     1       4.962   2.752  11.344  0.00  0.00    +0.000 C 
ATOM     17  O   UNL     1       5.148   1.634  10.893  0.00  0.00    +0.000 OA
ATOM     18  H   UNL     1       3.939   4.515  11.491  0.00  0.00    +0.000 HD
BRANCH  15  19
ATOM     19  C   UNL     1       2.902   3.299  10.081  0.00  0.00    +0.000 C 
BRANCH  19  21
ATOM     20  C   UNL     1       1.939   5.219   8.781  0.00  0.00    +0.000 C 
ATOM     21  C   UNL     1       2.920   4.332   9.001  0.00  0.00    +0.000 C 
ENDBRANCH  19  21
ENDBRANCH  15  19
ENDBRANCH  11  16
ENDBRANCH   1  13
BRANCH   7  22
ATOM     22  S   UNL     1       4.436   2.905  18.834  0.00  0.00    +0.000 S 
ATOM     23  O   UNL     1       4.120   2.186  17.615  0.00  0.00    +0.000 OA
ATOM     24  O   UNL     1       5.246   2.266  19.851  0.00  0.00    +0.000 OA
BRANCH  22  25
ATOM     25  C   UNL     1       2.832   3.166  19.587  0.00  0.00    +0.000 A 
ATOM     26  C   UNL     1       2.470   3.550  20.866  0.00  0.00    +0.000 A 
ATOM     27  C   UNL     1       1.060   3.676  21.019  0.00  0.00    +0.000 A 
ATOM     28  C   UNL     1       0.389   3.391  19.850  0.00  0.00    +0.000 A 
ATOM     29  S   UNL     1       1.459   2.951  18.590  0.00  0.00    +0.000 S 
ENDBRANCH  22  25
ENDBRANCH   7  22
TORSDOF 6
ENDMDL
MODEL 3
REMARK VINA RESULT:      -7.4      3.389      8.604
REMARK  Name = 
REMARK  6 active torsions:
REMARK  status: ('A' for Active; 'I' for Inactive)
REMARK    1  A    between atoms: C_2  and  C_3
REMARK    2  A    between atoms: C_3  and  N_4
REMARK    3  A    between atoms: C_5  and  C_7
REMARK    4  A    between atoms: N_9  and  C_10
REMARK    5  A    between atoms: N_16  and  S_17
REMARK    6  A    between atoms: S_17  and  C_20
REMARK                            x       y       z     vdW  Elec       q    Type
REMARK                         _______ _______ _______ _____ _____    ______ ____
ROOT
ATOM      1  C   UNL     1       2.465   7.351  18.944  0.00  0.00    +0.000 A 
ATOM      2  C   UNL     1       2.972   8.305  18.065  0.00  0.00    +0.000 A 
ATOM      3  C   UNL     1       3.885   7.936  17.080  0.00  0.00    +0.000 A 
ATOM      4  C   UNL     1       4.279   6.599  16.935  0.00  0.00    +0.000 A 
ATOM      5  C   UNL     1       3.759   5.617  17.798  0.00  0.00    +0.000 A 
ATOM      6  C   UNL     1       2.890   6.018  18.824  0.00  0.00    +0.000 A 
ATOM      7  N   UNL     1       4.199   4.239  17.663  0.00  0.00    +0.000 N 
ATOM      8  C   UNL     1       5.408   3.985  16.840  0.00  0.00    +0.000 C 
ATOM      9  C   UNL     1       5.393   4.811  15.566  0.00  0.00    +0.000 C 
ATOM     10  C   UNL     1       5.326   6.289  15.901  0.00  0.00    +0.000 C 
ENDROOT
BRANCH   1  13
ATOM     11  C   UNL     1       0.945   8.887  20.175  0.00  0.00    +0.000 C 
ATOM     12  O   UNL     1       1.036   9.912  19.514  0.00  0.00    +0.000 OA
ATOM     13  N   UNL     1       1.556   7.665  19.968  0.00  0.00    +0.000 N 
ATOM     14  H   UNL     1       1.257   6.920  20.595  0.00  0.00    +0.000 HD
BRANCH  11  16
ATOM     15  N   UNL     1      -0.040  10.112  22.027  0.00  0.00    +0.000 N 
ATOM     16  C   UNL     1       0.007   8.890  21.396  0.00  0.00    +0.000 C 
ATOM     17  O   UNL     1      -0.598   7.878  21.710  0.00  0.00    +0.000 OA
ATOM     18  H   UNL     1       0.543  10.847  21.636  0.00  0.00    +0.000 HD
BRANCH  15  19
ATOM     19  C   UNL     1      -0.790  10.358  23.225  0.00  0.00    +0.000 C 
BRANCH  19  21
ATOM     20  C   UNL     1      -0.965  12.795  22.649  0.00  0.00    +0.000 C 
ATOM     21  C   UNL     1      -1.530  11.643  23.035  0.00  0.00    +0.000 C 
ENDBRANCH  19  21
ENDBRANCH  15  19
ENDBRANCH  11  16
ENDBRANCH   1  13
BRANCH   7  22
ATOM     22  S   UNL     1       3.083   2.949  17.812  0.00  0.00    +0.000 S 
ATOM     23  O   UNL     1       1.862   3.323  17.123  0.00  0.00    +0.000 OA
ATOM     24  O   UNL     1       3.717   1.683  17.506  0.00  0.00    +0.000 OA
BRANCH  22  25
ATOM     25  C   UNL     1       2.573   2.834  19.525  0.00  0.00    +0.000 A 
ATOM     26  C   UNL     1       3.298   2.643  20.687  0.00  0.00    +0.000 A 
ATOM     27  C   UNL     1       2.477   2.659  21.851  0.00  0.00    +0.000 A 
ATOM     28  C   UNL     1       1.152   2.869  21.542  0.00  0.00    +0.000 A 
ATOM     29  S   UNL     1       0.905   3.019  19.855  0.00  0.00    +0.000 S 
ENDBRANCH  22  25
ENDBRANCH   7  22
TORSDOF 6
ENDMDL
MODEL 4
REMARK VINA RESULT:      -7.4      3.090      7.489
REMARK  Name = 
REMARK  6 active torsions:
REMARK  status: ('A' for Active; 'I' for Inactive)
REMARK    1  A    between atoms: C_2  and  C_3
REMARK    2  A    between atoms: C_3  and  N_4
REMARK    3  A    between atoms: C_5  and  C_7
REMARK    4  A    between atoms: N_9  and  C_10
REMARK    5  A    between atoms: N_16  and  S_17
REMARK    6  A    between atoms: S_17  and  C_20
REMARK                            x       y       z     vdW  Elec       q    Type
REMARK                         _______ _______ _______ _____ _____    ______ ____
ROOT
ATOM      1  C   UNL     1       1.971   7.343  19.563  0.00  0.00    +0.000 A 
ATOM      2  C   UNL     1       1.655   6.548  20.661  0.00  0.00    +0.000 A 
ATOM      3  C   UNL     1       1.973   5.192  20.660  0.00  0.00    +0.000 A 
ATOM      4  C   UNL     1       2.644   4.616  19.573  0.00  0.00    +0.000 A 
ATOM      5  C   UNL     1       2.993   5.409  18.464  0.00  0.00    +0.000 A 
ATOM      6  C   UNL     1       2.608   6.758  18.457  0.00  0.00    +0.000 A 
ATOM      7  N   UNL     1       3.658   4.797  17.327  0.00  0.00    +0.000 N 
ATOM      8  C   UNL     1       3.652   3.315  17.248  0.00  0.00    +0.000 C 
ATOM      9  C   UNL     1       3.929   2.688  18.603  0.00  0.00    +0.000 C 
ATOM     10  C   UNL     1       2.884   3.132  19.609  0.00  0.00    +0.000 C 
ENDROOT
BRANCH   1  13
ATOM     11  C   UNL     1       1.727   9.516  18.376  0.00  0.00    +0.000 C 
ATOM     12  O   UNL     1       2.030   9.212  17.231  0.00  0.00    +0.000 OA
ATOM     13  N   UNL     1       1.659   8.712  19.498  0.00  0.00    +0.000 N 
ATOM     14  H   UNL     1       1.288   9.163  20.332  0.00  0.00    +0.000 HD
BRANCH  11  16
ATOM     15  N   UNL     1       2.230  11.883  18.169  0.00  0.00    +0.000 N 
ATOM     16  C   UNL     1       1.321  10.974  18.658  0.00  0.00    +0.000 C 
ATOM     17  O   UNL     1       0.287  11.221  19.257  0.00  0.00    +0.000 OA
ATOM     18  H   UNL     1       3.050  11.500  17.704  0.00  0.00    +0.000 HD
BRANCH  15  19
ATOM     19  C   UNL     1       2.115  13.301  18.356  0.00  0.00    +0.000 C 
BRANCH  19  21
ATOM     20  C   UNL     1       3.646  15.226  17.855  0.00  0.00    +0.000 C 
ATOM     21  C   UNL     1       3.430  13.910  17.990  0.00  0.00    +0.000 C 
ENDBRANCH  19  21
ENDBRANCH  15  19
ENDBRANCH  11  16
ENDBRANCH   1  13
BRANCH   7  22
ATOM     22  S   UNL     1       4.937   5.606  16.526  0.00  0.00    +0.000 S 
ATOM     23  O   UNL     1       5.543   4.680  15.588  0.00  0.00    +0.000 OA
ATOM     24  O   UNL     1       4.513   6.912  16.069  0.00  0.00    +0.000 OA
BRANCH  22  25
ATOM     25  C   UNL     1       6.246   5.908  17.711  0.00  0.00    +0.000 A 
ATOM     26  C   UNL     1       6.632   5.221  18.847  0.00  0.00    +0.000 A 
ATOM     27  C   UNL     1       7.770   5.802  19.476  0.00  0.00    +0.000 A 
ATOM     28  C   UNL     1       8.222   6.911  18.797  0.00  0.00    +0.000 A 
ATOM     29  S   UNL     1       7.259   7.258  17.426  0.00  0.00    +0.000 S 
ENDBRANCH  22  25
ENDBRANCH   7  22
TORSDOF 6
ENDMDL
MODEL 5
REMARK VINA RESULT:      -7.3      3.189      7.373
REMARK  Name = 
REMARK  6 active torsions:
REMARK  status: ('A' for Active; 'I' for Inactive)
REMARK    1  A    between atoms: C_2  and  C_3
REMARK    2  A    between atoms: C_3  and  N_4
REMARK    3  A    between atoms: C_5  and  C_7
REMARK    4  A    between atoms: N_9  and  C_10
REMARK    5  A    between atoms: N_16  and  S_17
REMARK    6  A    between atoms: S_17  and  C_20
REMARK                            x       y       z     vdW  Elec       q    Type
REMARK                         _______ _______ _______ _____ _____    ______ ____
ROOT
ATOM      1  C   UNL     1       2.140   6.910  19.552  0.00  0.00    +0.000 A 
ATOM      2  C   UNL     1       1.832   6.249  20.738  0.00  0.00    +0.000 A 
ATOM      3  C   UNL     1       2.128   4.896  20.884  0.00  0.00    +0.000 A 
ATOM      4  C   UNL     1       2.771   4.190  19.857  0.00  0.00    +0.000 A 
ATOM      5  C   UNL     1       3.113   4.847  18.662  0.00  0.00    +0.000 A 
ATOM      6  C   UNL     1       2.749   6.194  18.510  0.00  0.00    +0.000 A 
ATOM      7  N   UNL     1       3.748   4.101  17.590  0.00  0.00    +0.000 N 
ATOM      8  C   UNL     1       3.717   2.619  17.678  0.00  0.00    +0.000 C 
ATOM      9  C   UNL     1       4.008   2.143  19.090  0.00  0.00    +0.000 C 
ATOM     10  C   UNL     1       2.989   2.715  20.056  0.00  0.00    +0.000 C 
ENDROOT
BRANCH   1  13
ATOM     11  C   UNL     1       2.099   8.990  18.188  0.00  0.00    +0.000 C 
ATOM     12  O   UNL     1       2.580   8.606  17.131  0.00  0.00    +0.000 OA
ATOM     13  N   UNL     1       1.849   8.269  19.340  0.00  0.00    +0.000 N 
ATOM     14  H   UNL     1       1.351   8.776  20.069  0.00  0.00    +0.000 HD
BRANCH  11  16
ATOM     15  N   UNL     1       0.392  10.602  18.809  0.00  0.00    +0.000 N 
ATOM     16  C   UNL     1       1.660  10.462  18.295  0.00  0.00    +0.000 C 
ATOM     17  O   UNL     1       2.411  11.356  17.941  0.00  0.00    +0.000 OA
ATOM     18  H   UNL     1      -0.102   9.744  19.039  0.00  0.00    +0.000 HD
BRANCH  15  19
ATOM     19  C   UNL     1      -0.272  11.866  18.949  0.00  0.00    +0.000 C 
BRANCH  19  21
ATOM     20  C   UNL     1      -2.176  11.413  17.376  0.00  0.00    +0.000 C 
ATOM     21  C   UNL     1      -1.713  11.656  18.610  0.00  0.00    +0.000 C 
ENDBRANCH  19  21
ENDBRANCH  15  19
ENDBRANCH  11  16
ENDBRANCH   1  13
BRANCH   7  22
ATOM     22  S   UNL     1       5.025   4.792  16.683  0.00  0.00    +0.000 S 
ATOM     23  O   UNL     1       5.720   3.724  15.991  0.00  0.00    +0.000 OA
ATOM     24  O   UNL     1       4.562   5.945  15.939  0.00  0.00    +0.000 OA
BRANCH  22  25
ATOM     25  C   UNL     1       6.257   5.416  17.824  0.00  0.00    +0.000 A 
ATOM     26  C   UNL     1       6.643   4.988  19.081  0.00  0.00    +0.000 A 
ATOM     27  C   UNL     1       7.708   5.765  19.619  0.00  0.00    +0.000 A 
ATOM     28  C   UNL     1       8.107   6.758  18.753  0.00  0.00    +0.000 A 
ATOM     29  S   UNL     1       7.181   6.762  17.314  0.00  0.00    +0.000 S 
ENDBRANCH  22  25
ENDBRANCH   7  22
TORSDOF 6
ENDMDL
MODEL 6
REMARK VINA RESULT:      -7.3      3.181      7.657
REMARK  Name = 
REMARK  6 active torsions:
REMARK  status: ('A' for Active; 'I' for Inactive)
REMARK    1  A    between atoms: C_2  and  C_3
REMARK    2  A    between atoms: C_3  and  N_4
REMARK    3  A    between atoms: C_5  and  C_7
REMARK    4  A    between atoms: N_9  and  C_10
REMARK    5  A    between atoms: N_16  and  S_17
REMARK    6  A    between atoms: S_17  and  C_20
REMARK                            x       y       z     vdW  Elec       q    Type
REMARK                         _______ _______ _______ _____ _____    ______ ____
ROOT
ATOM      1  C   UNL     1       1.883   7.104  19.840  0.00  0.00    +0.000 A 
ATOM      2  C   UNL     1       1.632   6.232  20.896  0.00  0.00    +0.000 A 
ATOM      3  C   UNL     1       2.009   4.894  20.805  0.00  0.00    +0.000 A 
ATOM      4  C   UNL     1       2.676   4.415  19.669  0.00  0.00    +0.000 A 
ATOM      5  C   UNL     1       2.961   5.287  18.603  0.00  0.00    +0.000 A 
ATOM      6  C   UNL     1       2.516   6.615  18.686  0.00  0.00    +0.000 A 
ATOM      7  N   UNL     1       3.622   4.775  17.415  0.00  0.00    +0.000 N 
ATOM      8  C   UNL     1       3.679   3.301  17.246  0.00  0.00    +0.000 C 
ATOM      9  C   UNL     1       4.019   2.608  18.554  0.00  0.00    +0.000 C 
ATOM     10  C   UNL     1       2.983   2.944  19.610  0.00  0.00    +0.000 C 
ENDROOT
BRANCH   1  13
ATOM     11  C   UNL     1       1.249   9.215  20.993  0.00  0.00    +0.000 C 
ATOM     12  O   UNL     1       1.317   8.889  22.169  0.00  0.00    +0.000 OA
ATOM     13  N   UNL     1       1.510   8.459  19.866  0.00  0.00    +0.000 N 
ATOM     14  H   UNL     1       1.481   8.969  18.986  0.00  0.00    +0.000 HD
BRANCH  11  16
ATOM     15  N   UNL     1       0.133  10.772  19.499  0.00  0.00    +0.000 N 
ATOM     16  C   UNL     1       0.859  10.668  20.663  0.00  0.00    +0.000 C 
ATOM     17  O   UNL     1       1.194  11.579  21.403  0.00  0.00    +0.000 OA
ATOM     18  H   UNL     1      -0.046   9.907  18.997  0.00  0.00    +0.000 HD
BRANCH  15  19
ATOM     19  C   UNL     1      -0.296  12.022  18.941  0.00  0.00    +0.000 C 
BRANCH  19  21
ATOM     20  C   UNL     1      -2.048  10.540  17.923  0.00  0.00    +0.000 C 
ATOM     21  C   UNL     1      -1.466  11.740  18.054  0.00  0.00    +0.000 C 
ENDBRANCH  19  21
ENDBRANCH  15  19
ENDBRANCH  11  16
ENDBRANCH   1  13
BRANCH   7  22
ATOM     22  S   UNL     1       4.842   5.688  16.635  0.00  0.00    +0.000 S 
ATOM     23  O   UNL     1       5.437   4.861  15.602  0.00  0.00    +0.000 OA
ATOM     24  O   UNL     1       4.361   7.012  16.301  0.00  0.00    +0.000 OA
BRANCH  22  25
ATOM     25  C   UNL     1       6.188   5.938  17.789  0.00  0.00    +0.000 A 
ATOM     26  C   UNL     1       6.552   5.257  18.937  0.00  0.00    +0.000 A 
ATOM     27  C   UNL     1       7.734   5.782  19.532  0.00  0.00    +0.000 A 
ATOM     28  C   UNL     1       8.241   6.844  18.817  0.00  0.00    +0.000 A 
ATOM     29  S   UNL     1       7.276   7.215  17.453  0.00  0.00    +0.000 S 
ENDBRANCH  22  25
ENDBRANCH   7  22
TORSDOF 6
ENDMDL
MODEL 7
REMARK VINA RESULT:      -7.3      4.576      6.601
REMARK  Name = 
REMARK  6 active torsions:
REMARK  status: ('A' for Active; 'I' for Inactive)
REMARK    1  A    between atoms: C_2  and  C_3
REMARK    2  A    between atoms: C_3  and  N_4
REMARK    3  A    between atoms: C_5  and  C_7
REMARK    4  A    between atoms: N_9  and  C_10
REMARK    5  A    between atoms: N_16  and  S_17
REMARK    6  A    between atoms: S_17  and  C_20
REMARK                            x       y       z     vdW  Elec       q    Type
REMARK                         _______ _______ _______ _____ _____    ______ ____
ROOT
ATOM      1  C   UNL     1       0.514   9.104  21.765  0.00  0.00    +0.000 A 
ATOM      2  C   UNL     1      -0.301   9.142  22.894  0.00  0.00    +0.000 A 
ATOM      3  C   UNL     1      -0.914  10.333  23.276  0.00  0.00    +0.000 A 
ATOM      4  C   UNL     1      -0.750  11.499  22.516  0.00  0.00    +0.000 A 
ATOM      5  C   UNL     1       0.050  11.474  21.359  0.00  0.00    +0.000 A 
ATOM      6  C   UNL     1       0.710  10.281  21.025  0.00  0.00    +0.000 A 
ATOM      7  N   UNL     1       0.243  12.694  20.595  0.00  0.00    +0.000 N 
ATOM      8  C   UNL     1      -0.146  13.973  21.240  0.00  0.00    +0.000 C 
ATOM      9  C   UNL     1      -1.470  13.843  21.972  0.00  0.00    +0.000 C 
ATOM     10  C   UNL     1      -1.379  12.763  23.033  0.00  0.00    +0.000 C 
ENDROOT
BRANCH   1  13
ATOM     11  C   UNL     1       1.757   7.731  20.106  0.00  0.00    +0.000 C 
ATOM     12  O   UNL     1       1.853   8.503  19.163  0.00  0.00    +0.000 OA
ATOM     13  N   UNL     1       1.172   7.938  21.340  0.00  0.00    +0.000 N 
ATOM     14  H   UNL     1       1.296   7.181  22.010  0.00  0.00    +0.000 HD
BRANCH  11  16
ATOM     15  N   UNL     1       1.974   5.463  20.948  0.00  0.00    +0.000 N 
ATOM     16  C   UNL     1       2.389   6.334  19.968  0.00  0.00    +0.000 C 
ATOM     17  O   UNL     1       3.168   6.097  19.059  0.00  0.00    +0.000 OA
ATOM     18  H   UNL     1       1.327   5.834  21.640  0.00  0.00    +0.000 HD
BRANCH  15  19
ATOM     19  C   UNL     1       2.464   4.122  21.079  0.00  0.00    +0.000 C 
BRANCH  19  21
ATOM     20  C   UNL     1       0.930   2.863  19.542  0.00  0.00    +0.000 C 
ATOM     21  C   UNL     1       1.330   3.197  20.777  0.00  0.00    +0.000 C 
ENDBRANCH  19  21
ENDBRANCH  15  19
ENDBRANCH  11  16
ENDBRANCH   1  13
BRANCH   7  22
ATOM     22  S   UNL     1       0.235  12.661  18.883  0.00  0.00    +0.000 S 
ATOM     23  O   UNL     1      -0.194  13.962  18.406  0.00  0.00    +0.000 OA
ATOM     24  O   UNL     1       1.461  12.082  18.374  0.00  0.00    +0.000 OA
BRANCH  22  25
ATOM     25  C   UNL     1      -1.078  11.570  18.342  0.00  0.00    +0.000 A 
ATOM     26  C   UNL     1      -1.049  10.371  17.652  0.00  0.00    +0.000 A 
ATOM     27  C   UNL     1      -2.347   9.816  17.469  0.00  0.00    +0.000 A 
ATOM     28  C   UNL     1      -3.327  10.604  18.030  0.00  0.00    +0.000 A 
ATOM     29  S   UNL     1      -2.679  12.015  18.749  0.00  0.00    +0.000 S 
ENDBRANCH  22  25
ENDBRANCH   7  22
TORSDOF 6
ENDMDL
MODEL 8
REMARK VINA RESULT:      -7.3      3.016      7.760
REMARK  Name = 
REMARK  6 active torsions:
REMARK  status: ('A' for Active; 'I' for Inactive)
REMARK    1  A    between atoms: C_2  and  C_3
REMARK    2  A    between atoms: C_3  and  N_4
REMARK    3  A    between atoms: C_5  and  C_7
REMARK    4  A    between atoms: N_9  and  C_10
REMARK    5  A    between atoms: N_16  and  S_17
REMARK    6  A    between atoms: S_17  and  C_20
REMARK                            x       y       z     vdW  Elec       q    Type
REMARK                         _______ _______ _______ _____ _____    ______ ____
ROOT
ATOM      1  C   UNL     1       1.987   7.272  19.647  0.00  0.00    +0.000 A 
ATOM      2  C   UNL     1       1.653   6.444  20.716  0.00  0.00    +0.000 A 
ATOM      3  C   UNL     1       1.936   5.081  20.662  0.00  0.00    +0.000 A 
ATOM      4  C   UNL     1       2.591   4.530  19.552  0.00  0.00    +0.000 A 
ATOM      5  C   UNL     1       2.958   5.355  18.473  0.00  0.00    +0.000 A 
ATOM      6  C   UNL     1       2.607   6.713  18.518  0.00  0.00    +0.000 A 
ATOM      7  N   UNL     1       3.605   4.770  17.312  0.00  0.00    +0.000 N 
ATOM      8  C   UNL     1       3.561   3.293  17.177  0.00  0.00    +0.000 C 
ATOM      9  C   UNL     1       3.824   2.608  18.506  0.00  0.00    +0.000 C 
ATOM     10  C   UNL     1       2.793   3.040  19.531  0.00  0.00    +0.000 C 
ENDROOT
BRANCH   1  13
ATOM     11  C   UNL     1       1.690   9.472  18.525  0.00  0.00    +0.000 C 
ATOM     12  O   UNL     1       1.867   9.181  17.351  0.00  0.00    +0.000 OA
ATOM     13  N   UNL     1       1.711   8.650  19.636  0.00  0.00    +0.000 N 
ATOM     14  H   UNL     1       1.438   9.096  20.510  0.00  0.00    +0.000 HD
BRANCH  11  16
ATOM     15  N   UNL     1       0.297  11.049  19.739  0.00  0.00    +0.000 N 
ATOM     16  C   UNL     1       1.356  10.935  18.869  0.00  0.00    +0.000 C 
ATOM     17  O   UNL     1       2.007  11.846  18.383  0.00  0.00    +0.000 OA
ATOM     18  H   UNL     1      -0.142  10.181  20.036  0.00  0.00    +0.000 HD
BRANCH  15  19
ATOM     19  C   UNL     1      -0.250  12.305  20.164  0.00  0.00    +0.000 C 
BRANCH  19  21
ATOM     20  C   UNL     1      -0.576  11.132  22.360  0.00  0.00    +0.000 C 
ATOM     21  C   UNL     1      -0.388  12.254  21.652  0.00  0.00    +0.000 C 
ENDBRANCH  19  21
ENDBRANCH  15  19
ENDBRANCH  11  16
ENDBRANCH   1  13
BRANCH   7  22
ATOM     22  S   UNL     1       4.903   5.576  16.539  0.00  0.00    +0.000 S 
ATOM     23  O   UNL     1       5.512   4.657  15.596  0.00  0.00    +0.000 OA
ATOM     24  O   UNL     1       4.499   6.893  16.093  0.00  0.00    +0.000 OA
BRANCH  22  25
ATOM     25  C   UNL     1       6.199   5.849  17.745  0.00  0.00    +0.000 A 
ATOM     26  C   UNL     1       6.514   5.190  18.919  0.00  0.00    +0.000 A 
ATOM     27  C   UNL     1       7.671   5.727  19.553  0.00  0.00    +0.000 A 
ATOM     28  C   UNL     1       8.207   6.776  18.841  0.00  0.00    +0.000 A 
ATOM     29  S   UNL     1       7.300   7.120  17.430  0.00  0.00    +0.000 S 
ENDBRANCH  22  25
ENDBRANCH   7  22
TORSDOF 6
ENDMDL
MODEL 9
REMARK VINA RESULT:      -7.2      3.188      7.702
REMARK  Name = 
REMARK  6 active torsions:
REMARK  status: ('A' for Active; 'I' for Inactive)
REMARK    1  A    between atoms: C_2  and  C_3
REMARK    2  A    between atoms: C_3  and  N_4
REMARK    3  A    between atoms: C_5  and  C_7
REMARK    4  A    between atoms: N_9  and  C_10
REMARK    5  A    between atoms: N_16  and  S_17
REMARK    6  A    between atoms: S_17  and  C_20
REMARK                            x       y       z     vdW  Elec       q    Type
REMARK                         _______ _______ _______ _____ _____    ______ ____
ROOT
ATOM      1  C   UNL     1       1.931   7.155  19.820  0.00  0.00    +0.000 A 
ATOM      2  C   UNL     1       1.640   6.270  20.856  0.00  0.00    +0.000 A 
ATOM      3  C   UNL     1       1.964   4.920  20.736  0.00  0.00    +0.000 A 
ATOM      4  C   UNL     1       2.615   4.440  19.593  0.00  0.00    +0.000 A 
ATOM      5  C   UNL     1       2.940   5.323  18.547  0.00  0.00    +0.000 A 
ATOM      6  C   UNL     1       2.549   6.666  18.658  0.00  0.00    +0.000 A 
ATOM      7  N   UNL     1       3.584   4.811  17.350  0.00  0.00    +0.000 N 
ATOM      8  C   UNL     1       3.583   3.340  17.150  0.00  0.00    +0.000 C 
ATOM      9  C   UNL     1       3.889   2.605  18.443  0.00  0.00    +0.000 C 
ATOM     10  C   UNL     1       2.863   2.959  19.502  0.00  0.00    +0.000 C 
ENDROOT
BRANCH   1  13
ATOM     11  C   UNL     1       1.203   9.224  20.993  0.00  0.00    +0.000 C 
ATOM     12  O   UNL     1       1.066   8.827  22.141  0.00  0.00    +0.000 OA
ATOM     13  N   UNL     1       1.613   8.522  19.875  0.00  0.00    +0.000 N 
ATOM     14  H   UNL     1       1.748   9.084  19.036  0.00  0.00    +0.000 HD
BRANCH  11  16
ATOM     15  N   UNL     1       0.861  10.984  19.354  0.00  0.00    +0.000 N 
ATOM     16  C   UNL     1       0.930  10.711  20.700  0.00  0.00    +0.000 C 
ATOM     17  O   UNL     1       0.800  11.505  21.618  0.00  0.00    +0.000 OA
ATOM     18  H   UNL     1       1.007  10.200  18.724  0.00  0.00    +0.000 HD
BRANCH  15  19
ATOM     19  C   UNL     1       0.679  12.303  18.820  0.00  0.00    +0.000 C 
BRANCH  19  21
ATOM     20  C   UNL     1       2.746  13.669  19.226  0.00  0.00    +0.000 C 
ATOM     21  C   UNL     1       2.030  12.833  18.461  0.00  0.00    +0.000 C 
ENDBRANCH  19  21
ENDBRANCH  15  19
ENDBRANCH  11  16
ENDBRANCH   1  13
BRANCH   7  22
ATOM     22  S   UNL     1       4.844   5.690  16.595  0.00  0.00    +0.000 S 
ATOM     23  O   UNL     1       5.442   4.844  15.579  0.00  0.00    +0.000 OA
ATOM     24  O   UNL     1       4.402   7.024  16.244  0.00  0.00    +0.000 OA
BRANCH  22  25
ATOM     25  C   UNL     1       6.169   5.914  17.779  0.00  0.00    +0.000 A 
ATOM     26  C   UNL     1       6.486   5.233  18.940  0.00  0.00    +0.000 A 
ATOM     27  C   UNL     1       7.668   5.731  19.559  0.00  0.00    +0.000 A 
ATOM     28  C   UNL     1       8.222   6.771  18.847  0.00  0.00    +0.000 A 
ATOM     29  S   UNL     1       7.300   7.156  17.457  0.00  0.00    +0.000 S 
ENDBRANCH  22  25
ENDBRANCH   7  22
TORSDOF 6
ENDMDL
