MODEL 1
REMARK VINA RESULT:      -9.5      0.000      0.000
REMARK  Name = 
REMARK  6 active torsions:
REMARK  status: ('A' for Active; 'I' for Inactive)
REMARK    1  A    between atoms: C_2  and  C_3
REMARK    2  A    between atoms: C_2  and  C_23
REMARK    3  A    between atoms: C_6  and  O_7
REMARK    4  A    between atoms: O_7  and  C_8
REMARK    5  A    between atoms: C_13  and  N_14
REMARK    6  A    between atoms: C_17  and  O_18
REMARK                            x       y       z     vdW  Elec       q    Type
REMARK                         _______ _______ _______ _____ _____    ______ ____
ROOT
ATOM      1  C   UNL     1       1.440   9.099  19.207  0.00  0.00    +0.000 A 
ATOM      2  C   UNL     1       1.864   9.181  17.879  0.00  0.00    +0.000 A 
ATOM      3  C   UNL     1       2.640   8.150  17.332  0.00  0.00    +0.000 A 
ATOM      4  C   UNL     1       2.983   7.034  18.103  0.00  0.00    +0.000 A 
ATOM      5  C   UNL     1       2.493   6.922  19.405  0.00  0.00    +0.000 A 
ATOM      6  C   UNL     1       1.740   7.954  19.959  0.00  0.00    +0.000 A 
ENDROOT
BRANCH   1   8
ATOM      7  O   UNL     1       1.006  10.706  20.872  0.00  0.00    +0.000 OA
ATOM      8  C   UNL     1       0.634  10.201  19.815  0.00  0.00    +0.000 C 
BRANCH   8   9
ATOM      9  C   UNL     1      -0.512  10.667  19.065  0.00  0.00    +0.000 A 
ATOM     10  N   UNL     1      -1.553  11.269  19.613  0.00  0.00    +0.000 NA
ATOM     11  C   UNL     1      -2.497  11.343  18.629  0.00  0.00    +0.000 A 
ATOM     12  C   UNL     1      -3.812  11.820  18.706  0.00  0.00    +0.000 A 
ATOM     13  C   UNL     1      -4.626  11.710  17.577  0.00  0.00    +0.000 A 
ATOM     14  C   UNL     1      -4.135  11.144  16.397  0.00  0.00    +0.000 A 
ATOM     15  C   UNL     1      -2.812  10.690  16.295  0.00  0.00    +0.000 A 
ATOM     16  C   UNL     1      -2.017  10.811  17.437  0.00  0.00    +0.000 A 
ATOM     17  N   UNL     1      -0.715  10.479  17.719  0.00  0.00    +0.000 N 
ATOM     18  H   UNL     1      -0.050  10.055  17.087  0.00  0.00    +0.000 HD
ENDBRANCH   8   9
ENDBRANCH   1   8
BRANCH   4  19
ATOM     19  O   UNL     1       3.746   6.072  17.475  0.00  0.00    +0.000 OA
BRANCH  19  20
ATOM     20  C   UNL     1       5.053   5.876  17.910  0.00  0.00    +0.000 A 
ATOM     21  N   UNL     1       5.939   6.889  17.694  0.00  0.00    +0.000 NA
ATOM     22  C   UNL     1       7.206   6.642  18.069  0.00  0.00    +0.000 A 
ATOM     23  C   UNL     1       7.583   5.428  18.603  0.00  0.00    +0.000 A 
ATOM     24  N   UNL     1       6.714   4.405  18.788  0.00  0.00    +0.000 NA
ATOM     25  C   UNL     1       5.415   4.615  18.446  0.00  0.00    +0.000 A 
BRANCH  25  26
ATOM     26  N   UNL     1       4.526   3.566  18.630  0.00  0.00    +0.000 N 
ATOM     27  C   UNL     1       3.863   3.417  19.924  0.00  0.00    +0.000 C 
ATOM     28  C   UNL     1       2.362   3.662  19.814  0.00  0.00    +0.000 C 
ATOM     29  C   UNL     1       1.735   2.851  18.685  0.00  0.00    +0.000 C 
ATOM     30  C   UNL     1       2.466   3.081  17.369  0.00  0.00    +0.000 C 
ATOM     31  C   UNL     1       3.971   2.847  17.487  0.00  0.00    +0.000 C 
BRANCH  29  32
ATOM     32  O   UNL     1       1.702   1.461  19.008  0.00  0.00    +0.000 OA
ATOM     33  H   UNL     1       1.523   1.360  19.958  0.00  0.00    +0.000 HD
ENDBRANCH  29  32
ENDBRANCH  25  26
ENDBRANCH  19  20
ENDBRANCH   4  19
TORSDOF 6
ENDMDL
MODEL 2
REMARK VINA RESULT:      -9.5      1.606      3.499
REMARK  Name = 
REMARK  6 active torsions:
REMARK  status: ('A' for Active; 'I' for Inactive)
REMARK    1  A    between atoms: C_2  and  C_3
REMARK    2  A    between atoms: C_2  and  C_23
REMARK    3  A    between atoms: C_6  and  O_7
REMARK    4  A    between atoms: O_7  and  C_8
REMARK    5  A    between atoms: C_13  and  N_14
REMARK    6  A    between atoms: C_17  and  O_18
REMARK                            x       y       z     vdW  Elec       q    Type
REMARK                         _______ _______ _______ _____ _____    ______ ____
ROOT
ATOM      1  C   UNL     1       0.850   9.623  19.857  0.00  0.00    +0.000 A 
ATOM      2  C   UNL     1       0.874   8.843  21.015  0.00  0.00    +0.000 A 
ATOM      3  C   UNL     1       1.581   7.633  21.025  0.00  0.00    +0.000 A 
ATOM      4  C   UNL     1       2.272   7.206  19.886  0.00  0.00    +0.000 A 
ATOM      5  C   UNL     1       2.307   8.025  18.756  0.00  0.00    +0.000 A 
ATOM      6  C   UNL     1       1.589   9.218  18.736  0.00  0.00    +0.000 A 
ENDROOT
BRANCH   1   8
ATOM      7  O   UNL     1       0.370  11.803  20.606  0.00  0.00    +0.000 OA
ATOM      8  C   UNL     1       0.081  10.904  19.821  0.00  0.00    +0.000 C 
BRANCH   8   9
ATOM      9  C   UNL     1      -0.924  11.037  18.788  0.00  0.00    +0.000 A 
ATOM     10  N   UNL     1      -2.101  11.604  18.978  0.00  0.00    +0.000 NA
ATOM     11  C   UNL     1      -2.829  11.333  17.855  0.00  0.00    +0.000 A 
ATOM     12  C   UNL     1      -4.167  11.639  17.578  0.00  0.00    +0.000 A 
ATOM     13  C   UNL     1      -4.722  11.174  16.384  0.00  0.00    +0.000 A 
ATOM     14  C   UNL     1      -3.955  10.427  15.485  0.00  0.00    +0.000 A 
ATOM     15  C   UNL     1      -2.605  10.138  15.734  0.00  0.00    +0.000 A 
ATOM     16  C   UNL     1      -2.073  10.615  16.934  0.00  0.00    +0.000 A 
ATOM     17  N   UNL     1      -0.831  10.527  17.515  0.00  0.00    +0.000 N 
ATOM     18  H   UNL     1      -0.019  10.062  17.135  0.00  0.00    +0.000 HD
ENDBRANCH   8   9
ENDBRANCH   1   8
BRANCH   4  19
ATOM     19  O   UNL     1       2.939   6.004  19.994  0.00  0.00    +0.000 OA
BRANCH  19  20
ATOM     20  C   UNL     1       2.589   4.972  19.129  0.00  0.00    +0.000 A 
ATOM     21  N   UNL     1       1.484   4.239  19.450  0.00  0.00    +0.000 NA
ATOM     22  C   UNL     1       1.211   3.211  18.628  0.00  0.00    +0.000 A 
ATOM     23  C   UNL     1       2.019   2.903  17.555  0.00  0.00    +0.000 A 
ATOM     24  N   UNL     1       3.138   3.605  17.251  0.00  0.00    +0.000 NA
ATOM     25  C   UNL     1       3.443   4.671  18.040  0.00  0.00    +0.000 A 
BRANCH  25  26
ATOM     26  N   UNL     1       4.592   5.387  17.733  0.00  0.00    +0.000 N 
ATOM     27  C   UNL     1       5.861   4.982  18.334  0.00  0.00    +0.000 C 
ATOM     28  C   UNL     1       6.831   4.451  17.285  0.00  0.00    +0.000 C 
ATOM     29  C   UNL     1       6.966   5.404  16.102  0.00  0.00    +0.000 C 
ATOM     30  C   UNL     1       5.604   5.756  15.518  0.00  0.00    +0.000 C 
ATOM     31  C   UNL     1       4.631   6.274  16.575  0.00  0.00    +0.000 C 
BRANCH  29  32
ATOM     32  O   UNL     1       7.677   6.586  16.473  0.00  0.00    +0.000 OA
ATOM     33  H   UNL     1       7.978   7.041  15.668  0.00  0.00    +0.000 HD
ENDBRANCH  29  32
ENDBRANCH  25  26
ENDBRANCH  19  20
ENDBRANCH   4  19
TORSDOF 6
ENDMDL
MODEL 3
REMARK VINA RESULT:      -9.5      1.533      3.608
REMARK  Name = 
REMARK  6 active torsions:
REMARK  status: ('A' for Active; 'I' for Inactive)
REMARK    1  A    between atoms: C_2  and  C_3
REMARK    2  A    between atoms: C_2  and  C_23
REMARK    3  A    between atoms: C_6  and  O_7
REMARK    4  A    between atoms: O_7  and  C_8
REMARK    5  A    between atoms: C_13  and  N_14
REMARK    6  A    between atoms: C_17  and  O_18
REMARK                            x       y       z     vdW  Elec       q    Type
REMARK                         _______ _______ _______ _____ _____    ______ ____
ROOT
ATOM      1  C   UNL     1       1.126   9.290  19.560  0.00  0.00    +0.000 A 
ATOM      2  C   UNL     1       1.093   8.584  20.764  0.00  0.00    +0.000 A 
ATOM      3  C   UNL     1       1.766   7.359  20.872  0.00  0.00    +0.000 A 
ATOM      4  C   UNL     1       2.480   6.844  19.785  0.00  0.00    +0.000 A 
ATOM      5  C   UNL     1       2.572   7.588  18.609  0.00  0.00    +0.000 A 
ATOM      6  C   UNL     1       1.888   8.796  18.491  0.00  0.00    +0.000 A 
ENDROOT
BRANCH   1   8
ATOM      7  O   UNL     1       0.898  11.614  19.860  0.00  0.00    +0.000 OA
ATOM      8  C   UNL     1       0.393  10.584  19.418  0.00  0.00    +0.000 C 
BRANCH   8   9
ATOM      9  C   UNL     1      -0.853  10.556  18.683  0.00  0.00    +0.000 A 
ATOM     10  N   UNL     1      -0.987  10.017  17.485  0.00  0.00    +0.000 NA
ATOM     11  C   UNL     1      -2.226  10.389  17.048  0.00  0.00    +0.000 A 
ATOM     12  C   UNL     1      -2.831  10.148  15.809  0.00  0.00    +0.000 A 
ATOM     13  C   UNL     1      -4.083  10.712  15.558  0.00  0.00    +0.000 A 
ATOM     14  C   UNL     1      -4.718  11.494  16.527  0.00  0.00    +0.000 A 
ATOM     15  C   UNL     1      -4.139  11.719  17.785  0.00  0.00    +0.000 A 
ATOM     16  C   UNL     1      -2.887  11.144  18.012  0.00  0.00    +0.000 A 
ATOM     17  N   UNL     1      -2.027  11.149  19.082  0.00  0.00    +0.000 N 
ATOM     18  H   UNL     1      -2.170  11.612  19.969  0.00  0.00    +0.000 HD
ENDBRANCH   8   9
ENDBRANCH   1   8
BRANCH   4  19
ATOM     19  O   UNL     1       3.110   5.635  19.990  0.00  0.00    +0.000 OA
BRANCH  19  20
ATOM     20  C   UNL     1       2.814   4.580  19.133  0.00  0.00    +0.000 A 
ATOM     21  N   UNL     1       1.776   3.767  19.483  0.00  0.00    +0.000 NA
ATOM     22  C   UNL     1       1.557   2.721  18.667  0.00  0.00    +0.000 A 
ATOM     23  C   UNL     1       2.356   2.475  17.571  0.00  0.00    +0.000 A 
ATOM     24  N   UNL     1       3.410   3.258  17.238  0.00  0.00    +0.000 NA
ATOM     25  C   UNL     1       3.658   4.343  18.021  0.00  0.00    +0.000 A 
BRANCH  25  26
ATOM     26  N   UNL     1       4.741   5.142  17.683  0.00  0.00    +0.000 N 
ATOM     27  C   UNL     1       6.040   4.870  18.295  0.00  0.00    +0.000 C 
ATOM     28  C   UNL     1       7.052   4.385  17.263  0.00  0.00    +0.000 C 
ATOM     29  C   UNL     1       7.105   5.301  16.045  0.00  0.00    +0.000 C 
ATOM     30  C   UNL     1       5.718   5.513  15.453  0.00  0.00    +0.000 C 
ATOM     31  C   UNL     1       4.704   5.986  16.493  0.00  0.00    +0.000 C 
BRANCH  29  32
ATOM     32  O   UNL     1       7.712   6.552  16.369  0.00  0.00    +0.000 OA
ATOM     33  H   UNL     1       7.507   7.195  15.670  0.00  0.00    +0.000 HD
ENDBRANCH  29  32
ENDBRANCH  25  26
ENDBRANCH  19  20
ENDBRANCH   4  19
TORSDOF 6
ENDMDL
MODEL 4
REMARK VINA RESULT:      -9.5      1.479      3.610
REMARK  Name = 
REMARK  6 active torsions:
REMARK  status: ('A' for Active; 'I' for Inactive)
REMARK    1  A    between atoms: C_2  and  C_3
REMARK    2  A    between atoms: C_2  and  C_23
REMARK    3  A    between atoms: C_6  and  O_7
REMARK    4  A    between atoms: O_7  and  C_8
REMARK    5  A    between atoms: C_13  and  N_14
REMARK    6  A    between atoms: C_17  and  O_18
REMARK                            x       y       z     vdW  Elec       q    Type
REMARK                         _______ _______ _______ _____ _____    ______ ____
ROOT
ATOM      1  C   UNL     1       1.217   9.246  19.467  0.00  0.00    +0.000 A 
ATOM      2  C   UNL     1       1.213   8.553  20.679  0.00  0.00    +0.000 A 
ATOM      3  C   UNL     1       1.864   7.315  20.776  0.00  0.00    +0.000 A 
ATOM      4  C   UNL     1       2.528   6.775  19.670  0.00  0.00    +0.000 A 
ATOM      5  C   UNL     1       2.593   7.507  18.483  0.00  0.00    +0.000 A 
ATOM      6  C   UNL     1       1.930   8.727  18.377  0.00  0.00    +0.000 A 
ENDROOT
BRANCH   1   8
ATOM      7  O   UNL     1       1.053  11.579  19.741  0.00  0.00    +0.000 OA
ATOM      8  C   UNL     1       0.506  10.554  19.339  0.00  0.00    +0.000 C 
BRANCH   8   9
ATOM      9  C   UNL     1      -0.773  10.543  18.663  0.00  0.00    +0.000 A 
ATOM     10  N   UNL     1      -0.965  10.024  17.464  0.00  0.00    +0.000 NA
ATOM     11  C   UNL     1      -2.222  10.408  17.092  0.00  0.00    +0.000 A 
ATOM     12  C   UNL     1      -2.885  10.190  15.878  0.00  0.00    +0.000 A 
ATOM     13  C   UNL     1      -4.146  10.762  15.696  0.00  0.00    +0.000 A 
ATOM     14  C   UNL     1      -4.732  11.528  16.707  0.00  0.00    +0.000 A 
ATOM     15  C   UNL     1      -4.094  11.730  17.940  0.00  0.00    +0.000 A 
ATOM     16  C   UNL     1      -2.835  11.147  18.098  0.00  0.00    +0.000 A 
ATOM     17  N   UNL     1      -1.925  11.132  19.127  0.00  0.00    +0.000 N 
ATOM     18  H   UNL     1      -2.025  11.580  20.027  0.00  0.00    +0.000 HD
ENDBRANCH   8   9
ENDBRANCH   1   8
BRANCH   4  19
ATOM     19  O   UNL     1       3.141   5.555  19.864  0.00  0.00    +0.000 OA
BRANCH  19  20
ATOM     20  C   UNL     1       2.528   4.417  19.350  0.00  0.00    +0.000 A 
ATOM     21  N   UNL     1       1.319   4.069  19.877  0.00  0.00    +0.000 NA
ATOM     22  C   UNL     1       0.785   2.931  19.402  0.00  0.00    +0.000 A 
ATOM     23  C   UNL     1       1.440   2.153  18.471  0.00  0.00    +0.000 A 
ATOM     24  N   UNL     1       2.657   2.474  17.970  0.00  0.00    +0.000 NA
ATOM     25  C   UNL     1       3.228   3.631  18.402  0.00  0.00    +0.000 A 
BRANCH  25  26
ATOM     26  N   UNL     1       4.477   3.958  17.892  0.00  0.00    +0.000 N 
ATOM     27  C   UNL     1       4.569   4.512  16.543  0.00  0.00    +0.000 C 
ATOM     28  C   UNL     1       5.045   5.960  16.566  0.00  0.00    +0.000 C 
ATOM     29  C   UNL     1       6.305   6.131  17.408  0.00  0.00    +0.000 C 
ATOM     30  C   UNL     1       6.118   5.552  18.804  0.00  0.00    +0.000 C 
ATOM     31  C   UNL     1       5.628   4.106  18.777  0.00  0.00    +0.000 C 
BRANCH  29  32
ATOM     32  O   UNL     1       7.436   5.543  16.765  0.00  0.00    +0.000 OA
ATOM     33  H   UNL     1       7.809   4.857  17.343  0.00  0.00    +0.000 HD
ENDBRANCH  29  32
ENDBRANCH  25  26
ENDBRANCH  19  20
ENDBRANCH   4  19
TORSDOF 6
ENDMDL
MODEL 5
REMARK VINA RESULT:      -9.5      1.531      3.527
REMARK  Name = 
REMARK  6 active torsions:
REMARK  status: ('A' for Active; 'I' for Inactive)
REMARK    1  A    between atoms: C_2  and  C_3
REMARK    2  A    between atoms: C_2  and  C_23
REMARK    3  A    between atoms: C_6  and  O_7
REMARK    4  A    between atoms: O_7  and  C_8
REMARK    5  A    between atoms: C_13  and  N_14
REMARK    6  A    between atoms: C_17  and  O_18
REMARK                            x       y       z     vdW  Elec       q    Type
REMARK                         _______ _______ _______ _____ _____    ______ ____
ROOT
ATOM      1  C   UNL     1       1.427   9.285  18.994  0.00  0.00    +0.000 A 
ATOM      2  C   UNL     1       2.102   8.564  18.008  0.00  0.00    +0.000 A 
ATOM      3  C   UNL     1       2.672   7.322  18.320  0.00  0.00    +0.000 A 
ATOM      4  C   UNL     1       2.558   6.794  19.611  0.00  0.00    +0.000 A 
ATOM      5  C   UNL     1       1.818   7.484  20.572  0.00  0.00    +0.000 A 
ATOM      6  C   UNL     1       1.269   8.727  20.271  0.00  0.00    +0.000 A 
ENDROOT
BRANCH   1   8
ATOM      7  O   UNL     1       1.581  11.584  18.508  0.00  0.00    +0.000 OA
ATOM      8  C   UNL     1       0.836  10.623  18.686  0.00  0.00    +0.000 C 
BRANCH   8   9
ATOM      9  C   UNL     1      -0.601  10.687  18.535  0.00  0.00    +0.000 A 
ATOM     10  N   UNL     1      -1.256  10.172  17.510  0.00  0.00    +0.000 NA
ATOM     11  C   UNL     1      -2.537  10.631  17.620  0.00  0.00    +0.000 A 
ATOM     12  C   UNL     1      -3.616  10.446  16.748  0.00  0.00    +0.000 A 
ATOM     13  C   UNL     1      -4.820  11.095  17.030  0.00  0.00    +0.000 A 
ATOM     14  C   UNL     1      -4.943  11.906  18.162  0.00  0.00    +0.000 A 
ATOM     15  C   UNL     1      -3.880  12.077  19.062  0.00  0.00    +0.000 A 
ATOM     16  C   UNL     1      -2.688  11.416  18.759  0.00  0.00    +0.000 A 
ATOM     17  N   UNL     1      -1.463  11.352  19.375  0.00  0.00    +0.000 N 
ATOM     18  H   UNL     1      -1.194  11.813  20.233  0.00  0.00    +0.000 HD
ENDBRANCH   8   9
ENDBRANCH   1   8
BRANCH   4  19
ATOM     19  O   UNL     1       3.149   5.566  19.819  0.00  0.00    +0.000 OA
BRANCH  19  20
ATOM     20  C   UNL     1       2.506   4.431  19.335  0.00  0.00    +0.000 A 
ATOM     21  N   UNL     1       1.280   4.141  19.856  0.00  0.00    +0.000 NA
ATOM     22  C   UNL     1       0.716   3.004  19.412  0.00  0.00    +0.000 A 
ATOM     23  C   UNL     1       1.357   2.175  18.517  0.00  0.00    +0.000 A 
ATOM     24  N   UNL     1       2.591   2.439  18.023  0.00  0.00    +0.000 NA
ATOM     25  C   UNL     1       3.193   3.591  18.424  0.00  0.00    +0.000 A 
BRANCH  25  26
ATOM     26  N   UNL     1       4.459   3.860  17.923  0.00  0.00    +0.000 N 
ATOM     27  C   UNL     1       4.601   4.216  16.512  0.00  0.00    +0.000 C 
ATOM     28  C   UNL     1       5.063   5.659  16.344  0.00  0.00    +0.000 C 
ATOM     29  C   UNL     1       6.286   5.967  17.202  0.00  0.00    +0.000 C 
ATOM     30  C   UNL     1       6.047   5.593  18.659  0.00  0.00    +0.000 C 
ATOM     31  C   UNL     1       5.572   4.150  18.821  0.00  0.00    +0.000 C 
BRANCH  29  32
ATOM     32  O   UNL     1       7.448   5.311  16.695  0.00  0.00    +0.000 OA
ATOM     33  H   UNL     1       8.021   5.967  16.265  0.00  0.00    +0.000 HD
ENDBRANCH  29  32
ENDBRANCH  25  26
ENDBRANCH  19  20
ENDBRANCH   4  19
TORSDOF 6
ENDMDL
MODEL 6
REMARK VINA RESULT:      -9.5      1.678      3.670
REMARK  Name = 
REMARK  6 active torsions:
REMARK  status: ('A' for Active; 'I' for Inactive)
REMARK    1  A    between atoms: C_2  and  C_3
REMARK    2  A    between atoms: C_2  and  C_23
REMARK    3  A    between atoms: C_6  and  O_7
REMARK    4  A    between atoms: O_7  and  C_8
REMARK    5  A    between atoms: C_13  and  N_14
REMARK    6  A    between atoms: C_17  and  O_18
REMARK                            x       y       z     vdW  Elec       q    Type
REMARK                         _______ _______ _______ _____ _____    ______ ____
ROOT
ATOM      1  C   UNL     1       0.991   9.928  19.029  0.00  0.00    +0.000 A 
ATOM      2  C   UNL     1       0.989   9.397  20.320  0.00  0.00    +0.000 A 
ATOM      3  C   UNL     1       1.599   8.159  20.564  0.00  0.00    +0.000 A 
ATOM      4  C   UNL     1       2.220   7.457  19.525  0.00  0.00    +0.000 A 
ATOM      5  C   UNL     1       2.284   8.027  18.253  0.00  0.00    +0.000 A 
ATOM      6  C   UNL     1       1.660   9.247  18.003  0.00  0.00    +0.000 A 
ENDROOT
BRANCH   1   8
ATOM      7  O   UNL     1       1.011  12.232  18.543  0.00  0.00    +0.000 OA
ATOM      8  C   UNL     1       0.322  11.234  18.745  0.00  0.00    +0.000 C 
BRANCH   8   9
ATOM      9  C   UNL     1      -1.121  11.225  18.644  0.00  0.00    +0.000 A 
ATOM     10  N   UNL     1      -1.781  10.783  17.589  0.00  0.00    +0.000 NA
ATOM     11  C   UNL     1      -3.082  11.148  17.786  0.00  0.00    +0.000 A 
ATOM     12  C   UNL     1      -4.179  10.991  16.930  0.00  0.00    +0.000 A 
ATOM     13  C   UNL     1      -5.408  11.530  17.317  0.00  0.00    +0.000 A 
ATOM     14  C   UNL     1      -5.537  12.205  18.534  0.00  0.00    +0.000 A 
ATOM     15  C   UNL     1      -4.455  12.345  19.416  0.00  0.00    +0.000 A 
ATOM     16  C   UNL     1      -3.238  11.795  19.007  0.00  0.00    +0.000 A 
ATOM     17  N   UNL     1      -1.989  11.741  19.577  0.00  0.00    +0.000 N 
ATOM     18  H   UNL     1      -1.717  12.123  20.472  0.00  0.00    +0.000 HD
ENDBRANCH   8   9
ENDBRANCH   1   8
BRANCH   4  19
ATOM     19  O   UNL     1       2.794   6.250  19.865  0.00  0.00    +0.000 OA
BRANCH  19  20
ATOM     20  C   UNL     1       2.528   5.142  19.067  0.00  0.00    +0.000 A 
ATOM     21  N   UNL     1       1.424   4.404  19.376  0.00  0.00    +0.000 NA
ATOM     22  C   UNL     1       1.232   3.306  18.625  0.00  0.00    +0.000 A 
ATOM     23  C   UNL     1       2.117   2.938  17.634  0.00  0.00    +0.000 A 
ATOM     24  N   UNL     1       3.235   3.647  17.346  0.00  0.00    +0.000 NA
ATOM     25  C   UNL     1       3.460   4.781  18.063  0.00  0.00    +0.000 A 
BRANCH  25  26
ATOM     26  N   UNL     1       4.608   5.505  17.772  0.00  0.00    +0.000 N 
ATOM     27  C   UNL     1       5.839   5.205  18.501  0.00  0.00    +0.000 C 
ATOM     28  C   UNL     1       6.901   4.612  17.582  0.00  0.00    +0.000 C 
ATOM     29  C   UNL     1       7.098   5.453  16.325  0.00  0.00    +0.000 C 
ATOM     30  C   UNL     1       5.775   5.698  15.612  0.00  0.00    +0.000 C 
ATOM     31  C   UNL     1       4.710   6.280  16.539  0.00  0.00    +0.000 C 
BRANCH  29  32
ATOM     32  O   UNL     1       7.745   6.689  16.630  0.00  0.00    +0.000 OA
ATOM     33  H   UNL     1       7.942   7.157  15.801  0.00  0.00    +0.000 HD
ENDBRANCH  29  32
ENDBRANCH  25  26
ENDBRANCH  19  20
ENDBRANCH   4  19
TORSDOF 6
ENDMDL
MODEL 7
REMARK VINA RESULT:      -9.4      3.007      4.680
REMARK  Name = 
REMARK  6 active torsions:
REMARK  status: ('A' for Active; 'I' for Inactive)
REMARK    1  A    between atoms: C_2  and  C_3
REMARK    2  A    between atoms: C_2  and  C_23
REMARK    3  A    between atoms: C_6  and  O_7
REMARK    4  A    between atoms: O_7  and  C_8
REMARK    5  A    between atoms: C_13  and  N_14
REMARK    6  A    between atoms: C_17  and  O_18
REMARK                            x       y       z     vdW  Elec       q    Type
REMARK                         _______ _______ _______ _____ _____    ______ ____
ROOT
ATOM      1  C   UNL     1       0.776   9.773  18.942  0.00  0.00    +0.000 A 
ATOM      2  C   UNL     1       0.871   9.260  20.237  0.00  0.00    +0.000 A 
ATOM      3  C   UNL     1       1.607   8.090  20.470  0.00  0.00    +0.000 A 
ATOM      4  C   UNL     1       2.257   7.440  19.416  0.00  0.00    +0.000 A 
ATOM      5  C   UNL     1       2.221   7.998  18.137  0.00  0.00    +0.000 A 
ATOM      6  C   UNL     1       1.473   9.148  17.899  0.00  0.00    +0.000 A 
ENDROOT
BRANCH   1   8
ATOM      7  O   UNL     1      -1.233  10.903  18.456  0.00  0.00    +0.000 OA
ATOM      8  C   UNL     1      -0.027  11.005  18.671  0.00  0.00    +0.000 C 
BRANCH   8   9
ATOM      9  C   UNL     1       0.665  12.272  18.759  0.00  0.00    +0.000 A 
ATOM     10  N   UNL     1       0.111  13.381  19.215  0.00  0.00    +0.000 NA
ATOM     11  C   UNL     1       0.995  14.381  18.928  0.00  0.00    +0.000 A 
ATOM     12  C   UNL     1       0.859  15.760  19.129  0.00  0.00    +0.000 A 
ATOM     13  C   UNL     1       1.871  16.604  18.667  0.00  0.00    +0.000 A 
ATOM     14  C   UNL     1       2.997  16.079  18.026  0.00  0.00    +0.000 A 
ATOM     15  C   UNL     1       3.163  14.698  17.845  0.00  0.00    +0.000 A 
ATOM     16  C   UNL     1       2.137  13.876  18.316  0.00  0.00    +0.000 A 
ATOM     17  N   UNL     1       1.942  12.517  18.312  0.00  0.00    +0.000 N 
ATOM     18  H   UNL     1       2.567  11.818  17.934  0.00  0.00    +0.000 HD
ENDBRANCH   8   9
ENDBRANCH   1   8
BRANCH   4  19
ATOM     19  O   UNL     1       2.958   6.299  19.745  0.00  0.00    +0.000 OA
BRANCH  19  20
ATOM     20  C   UNL     1       2.672   5.124  19.057  0.00  0.00    +0.000 A 
ATOM     21  N   UNL     1       1.583   4.413  19.466  0.00  0.00    +0.000 NA
ATOM     22  C   UNL     1       1.373   3.252  18.821  0.00  0.00    +0.000 A 
ATOM     23  C   UNL     1       2.227   2.801  17.838  0.00  0.00    +0.000 A 
ATOM     24  N   UNL     1       3.331   3.486  17.451  0.00  0.00    +0.000 NA
ATOM     25  C   UNL     1       3.573   4.679  18.058  0.00  0.00    +0.000 A 
BRANCH  25  26
ATOM     26  N   UNL     1       4.706   5.378  17.667  0.00  0.00    +0.000 N 
ATOM     27  C   UNL     1       5.987   5.062  18.296  0.00  0.00    +0.000 C 
ATOM     28  C   UNL     1       6.959   4.439  17.301  0.00  0.00    +0.000 C 
ATOM     29  C   UNL     1       7.068   5.264  16.022  0.00  0.00    +0.000 C 
ATOM     30  C   UNL     1       5.696   5.528  15.416  0.00  0.00    +0.000 C 
ATOM     31  C   UNL     1       4.721   6.138  16.421  0.00  0.00    +0.000 C 
BRANCH  29  32
ATOM     32  O   UNL     1       7.760   6.490  16.259  0.00  0.00    +0.000 OA
ATOM     33  H   UNL     1       8.452   6.341  16.926  0.00  0.00    +0.000 HD
ENDBRANCH  29  32
ENDBRANCH  25  26
ENDBRANCH  19  20
ENDBRANCH   4  19
TORSDOF 6
ENDMDL
MODEL 8
REMARK VINA RESULT:      -9.3      1.505      3.482
REMARK  Name = 
REMARK  6 active torsions:
REMARK  status: ('A' for Active; 'I' for Inactive)
REMARK    1  A    between atoms: C_2  and  C_3
REMARK    2  A    between atoms: C_2  and  C_23
REMARK    3  A    between atoms: C_6  and  O_7
REMARK    4  A    between atoms: O_7  and  C_8
REMARK    5  A    between atoms: C_13  and  N_14
REMARK    6  A    between atoms: C_17  and  O_18
REMARK                            x       y       z     vdW  Elec       q    Type
REMARK                         _______ _______ _______ _____ _____    ______ ____
ROOT
ATOM      1  C   UNL     1       1.033   9.380  19.762  0.00  0.00    +0.000 A 
ATOM      2  C   UNL     1       1.094   8.589  20.911  0.00  0.00    +0.000 A 
ATOM      3  C   UNL     1       1.793   7.374  20.883  0.00  0.00    +0.000 A 
ATOM      4  C   UNL     1       2.439   6.954  19.715  0.00  0.00    +0.000 A 
ATOM      5  C   UNL     1       2.437   7.784  18.593  0.00  0.00    +0.000 A 
ATOM      6  C   UNL     1       1.727   8.981  18.611  0.00  0.00    +0.000 A 
ENDROOT
BRANCH   1   8
ATOM      7  O   UNL     1       0.583  11.549  20.561  0.00  0.00    +0.000 OA
ATOM      8  C   UNL     1       0.271  10.666  19.766  0.00  0.00    +0.000 C 
BRANCH   8   9
ATOM      9  C   UNL     1      -0.756  10.823  18.759  0.00  0.00    +0.000 A 
ATOM     10  N   UNL     1      -1.878  11.493  18.952  0.00  0.00    +0.000 NA
ATOM     11  C   UNL     1      -2.663  11.221  17.869  0.00  0.00    +0.000 A 
ATOM     12  C   UNL     1      -3.982  11.618  17.616  0.00  0.00    +0.000 A 
ATOM     13  C   UNL     1      -4.614  11.136  16.468  0.00  0.00    +0.000 A 
ATOM     14  C   UNL     1      -3.940  10.283  15.589  0.00  0.00    +0.000 A 
ATOM     15  C   UNL     1      -2.608   9.901  15.812  0.00  0.00    +0.000 A 
ATOM     16  C   UNL     1      -1.998  10.396  16.967  0.00  0.00    +0.000 A 
ATOM     17  N   UNL     1      -0.748  10.241  17.514  0.00  0.00    +0.000 N 
ATOM     18  H   UNL     1       0.012   9.692  17.136  0.00  0.00    +0.000 HD
ENDBRANCH   8   9
ENDBRANCH   1   8
BRANCH   4  19
ATOM     19  O   UNL     1       3.102   5.747  19.788  0.00  0.00    +0.000 OA
BRANCH  19  20
ATOM     20  C   UNL     1       2.468   4.613  19.289  0.00  0.00    +0.000 A 
ATOM     21  N   UNL     1       1.265   4.280  19.838  0.00  0.00    +0.000 NA
ATOM     22  C   UNL     1       0.712   3.145  19.378  0.00  0.00    +0.000 A 
ATOM     23  C   UNL     1       1.342   2.357  18.438  0.00  0.00    +0.000 A 
ATOM     24  N   UNL     1       2.554   2.664  17.915  0.00  0.00    +0.000 NA
ATOM     25  C   UNL     1       3.144   3.816  18.332  0.00  0.00    +0.000 A 
BRANCH  25  26
ATOM     26  N   UNL     1       4.387   4.129  17.800  0.00  0.00    +0.000 N 
ATOM     27  C   UNL     1       4.455   4.805  16.506  0.00  0.00    +0.000 C 
ATOM     28  C   UNL     1       5.008   6.219  16.644  0.00  0.00    +0.000 C 
ATOM     29  C   UNL     1       6.308   6.245  17.440  0.00  0.00    +0.000 C 
ATOM     30  C   UNL     1       6.147   5.544  18.783  0.00  0.00    +0.000 C 
ATOM     31  C   UNL     1       5.580   4.133  18.641  0.00  0.00    +0.000 C 
BRANCH  29  32
ATOM     32  O   UNL     1       7.380   5.667  16.694  0.00  0.00    +0.000 OA
ATOM     33  H   UNL     1       7.420   6.088  15.819  0.00  0.00    +0.000 HD
ENDBRANCH  29  32
ENDBRANCH  25  26
ENDBRANCH  19  20
ENDBRANCH   4  19
TORSDOF 6
ENDMDL
MODEL 9
REMARK VINA RESULT:      -9.2      1.582      3.458
REMARK  Name = 
REMARK  6 active torsions:
REMARK  status: ('A' for Active; 'I' for Inactive)
REMARK    1  A    between atoms: C_2  and  C_3
REMARK    2  A    between atoms: C_2  and  C_23
REMARK    3  A    between atoms: C_6  and  O_7
REMARK    4  A    between atoms: O_7  and  C_8
REMARK    5  A    between atoms: C_13  and  N_14
REMARK    6  A    between atoms: C_17  and  O_18
REMARK                            x       y       z     vdW  Elec       q    Type
REMARK                         _______ _______ _______ _____ _____    ______ ____
ROOT
ATOM      1  C   UNL     1       1.110   9.259  19.548  0.00  0.00    +0.000 A 
ATOM      2  C   UNL     1       1.872   8.810  18.468  0.00  0.00    +0.000 A 
ATOM      3  C   UNL     1       2.610   7.624  18.581  0.00  0.00    +0.000 A 
ATOM      4  C   UNL     1       2.579   6.880  19.766  0.00  0.00    +0.000 A 
ATOM      5  C   UNL     1       1.757   7.294  20.815  0.00  0.00    +0.000 A 
ATOM      6  C   UNL     1       1.039   8.483  20.713  0.00  0.00    +0.000 A 
ENDROOT
BRANCH   1   8
ATOM      7  O   UNL     1       0.796  11.555  19.962  0.00  0.00    +0.000 OA
ATOM      8  C   UNL     1       0.338  10.535  19.454  0.00  0.00    +0.000 C 
BRANCH   8   9
ATOM      9  C   UNL     1      -0.888  10.506  18.684  0.00  0.00    +0.000 A 
ATOM     10  N   UNL     1      -0.996   9.937  17.498  0.00  0.00    +0.000 NA
ATOM     11  C   UNL     1      -2.217  10.315  17.016  0.00  0.00    +0.000 A 
ATOM     12  C   UNL     1      -2.790  10.050  15.766  0.00  0.00    +0.000 A 
ATOM     13  C   UNL     1      -4.026  10.626  15.465  0.00  0.00    +0.000 A 
ATOM     14  C   UNL     1      -4.676  11.443  16.395  0.00  0.00    +0.000 A 
ATOM     15  C   UNL     1      -4.129  11.693  17.663  0.00  0.00    +0.000 A 
ATOM     16  C   UNL     1      -2.893  11.105  17.940  0.00  0.00    +0.000 A 
ATOM     17  N   UNL     1      -2.063  11.127  19.034  0.00  0.00    +0.000 N 
ATOM     18  H   UNL     1      -2.224  11.615  19.904  0.00  0.00    +0.000 HD
ENDBRANCH   8   9
ENDBRANCH   1   8
BRANCH   4  19
ATOM     19  O   UNL     1       3.335   5.727  19.780  0.00  0.00    +0.000 OA
BRANCH  19  20
ATOM     20  C   UNL     1       2.839   4.601  19.131  0.00  0.00    +0.000 A 
ATOM     21  N   UNL     1       1.833   3.919  19.751  0.00  0.00    +0.000 NA
ATOM     22  C   UNL     1       1.420   2.802  19.128  0.00  0.00    +0.000 A 
ATOM     23  C   UNL     1       2.005   2.362  17.959  0.00  0.00    +0.000 A 
ATOM     24  N   UNL     1       3.028   3.016  17.358  0.00  0.00    +0.000 NA
ATOM     25  C   UNL     1       3.465   4.166  17.938  0.00  0.00    +0.000 A 
BRANCH  25  26
ATOM     26  N   UNL     1       4.517   4.833  17.325  0.00  0.00    +0.000 N 
ATOM     27  C   UNL     1       5.607   5.348  18.152  0.00  0.00    +0.000 C 
ATOM     28  C   UNL     1       6.914   4.615  17.872  0.00  0.00    +0.000 C 
ATOM     29  C   UNL     1       7.224   4.555  16.381  0.00  0.00    +0.000 C 
ATOM     30  C   UNL     1       6.051   3.984  15.595  0.00  0.00    +0.000 C 
ATOM     31  C   UNL     1       4.741   4.713  15.888  0.00  0.00    +0.000 C 
BRANCH  29  32
ATOM     32  O   UNL     1       7.589   5.842  15.880  0.00  0.00    +0.000 OA
ATOM     33  H   UNL     1       7.303   5.914  14.953  0.00  0.00    +0.000 HD
ENDBRANCH  29  32
ENDBRANCH  25  26
ENDBRANCH  19  20
ENDBRANCH   4  19
TORSDOF 6
ENDMDL
