MODEL 1
REMARK VINA RESULT:      -6.4      0.000      0.000
REMARK  Name = 
REMARK  13 active torsions:
REMARK  status: ('A' for Active; 'I' for Inactive)
REMARK    1  A    between atoms: C_1  and  C_2
REMARK    2  A    between atoms: C_2  and  C_3
REMARK    3  A    between atoms: C_3  and  C_4
REMARK    4  A    between atoms: C_4  and  N_5
REMARK    5  A    between atoms: C_6  and  N_7
REMARK    6  A    between atoms: C_8  and  N_9
REMARK    7  A    between atoms: N_9  and  C_10
REMARK    8  A    between atoms: C_10  and  C_11
REMARK    9  A    between atoms: C_11  and  O_12
REMARK   10  A    between atoms: O_12  and  C_13
REMARK   11  A    between atoms: C_14  and  C_16
REMARK   12  A    between atoms: N_20  and  C_21
REMARK   13  A    between atoms: C_21  and  C_22
REMARK                            x       y       z     vdW  Elec       q    Type
REMARK                         _______ _______ _______ _____ _____    ______ ____
ROOT
ATOM      1  N   UNL     1       0.495  11.341  19.236  0.00  0.00    +0.000 N 
ATOM      2  C   UNL     1      -0.724  11.556  18.532  0.00  0.00    +0.000 C 
ATOM      3  O   UNL     1      -1.073  12.674  18.145  0.00  0.00    +0.000 OA
ENDROOT
BRANCH   1   6
ATOM      4  N   UNL     1       2.960  14.176  19.105  0.00  0.00    +0.000 N 
ATOM      5  C   UNL     1       2.257  12.995  18.747  0.00  0.00    +0.000 A 
ATOM      6  C   UNL     1       1.297  12.462  19.545  0.00  0.00    +0.000 A 
ATOM      7  C   UNL     1       1.037  13.156  20.849  0.00  0.00    +0.000 A 
ATOM      8  O   UNL     1       0.440  12.615  21.777  0.00  0.00    +0.000 OA
ATOM      9  N   UNL     1       1.573  14.400  20.983  0.00  0.00    +0.000 N 
ATOM     10  C   UNL     1       2.558  14.938  20.198  0.00  0.00    +0.000 A 
ATOM     11  O   UNL     1       3.028  16.030  20.514  0.00  0.00    +0.000 OA
ATOM     12  H   UNL     1       1.382  14.896  21.839  0.00  0.00    +0.000 HD
BRANCH   5  13
ATOM     13  N   UNL     1       2.513  12.397  17.503  0.00  0.00    +0.000 N 
ATOM     14  H   UNL     1       1.816  12.728  16.836  0.00  0.00    +0.000 HD
ATOM     15  H   UNL     1       3.387  12.794  17.158  0.00  0.00    +0.000 HD
ENDBRANCH   5  13
BRANCH   4  16
ATOM     16  C   UNL     1       3.955  14.752  18.168  0.00  0.00    +0.000 C 
BRANCH  16  17
ATOM     17  C   UNL     1       5.388  15.010  18.675  0.00  0.00    +0.000 C 
BRANCH  17  19
ATOM     18  C   UNL     1       7.768  15.078  17.802  0.00  0.00    +0.000 C 
ATOM     19  C   UNL     1       6.421  14.373  17.732  0.00  0.00    +0.000 C 
ENDBRANCH  17  19
ENDBRANCH  16  17
ENDBRANCH   4  16
ENDBRANCH   1   6
BRANCH   2  20
ATOM     20  C   UNL     1      -1.624  10.315  18.253  0.00  0.00    +0.000 C 
ATOM     21  C   UNL     1      -1.575   9.792  16.812  0.00  0.00    +0.000 C 
ATOM     22  C   UNL     1      -2.724  10.495  16.136  0.00  0.00    +0.000 C 
ATOM     23  O   UNL     1      -2.910  10.546  14.932  0.00  0.00    +0.000 OA
ATOM     24  N   UNL     1      -3.546  10.994  17.127  0.00  0.00    +0.000 N 
ATOM     25  C   UNL     1      -3.095  10.648  18.451  0.00  0.00    +0.000 C 
BRANCH  24  26
ATOM     26  C   UNL     1      -4.743  11.767  16.876  0.00  0.00    +0.000 C 
BRANCH  26  27
ATOM     27  C   UNL     1      -5.666  11.767  18.039  0.00  0.00    +0.000 A 
ATOM     28  C   UNL     1      -6.678  10.916  18.436  0.00  0.00    +0.000 A 
ATOM     29  C   UNL     1      -7.325  11.544  19.528  0.00  0.00    +0.000 A 
ATOM     30  C   UNL     1      -6.642  12.716  19.753  0.00  0.00    +0.000 A 
ATOM     31  O   UNL     1      -5.626  12.857  18.862  0.00  0.00    +0.000 OA
ENDBRANCH  26  27
ENDBRANCH  24  26
ENDBRANCH   2  20
BRANCH   1  32
ATOM     32  C   UNL     1       0.942   9.965  19.460  0.00  0.00    +0.000 C 
BRANCH  32  33
ATOM     33  C   UNL     1       0.891   9.242  20.808  0.00  0.00    +0.000 C 
BRANCH  33  34
ATOM     34  O   UNL     1      -0.389   9.163  21.422  0.00  0.00    +0.000 OA
ATOM     35  C   UNL     1      -0.348   9.354  22.829  0.00  0.00    +0.000 C 
ENDBRANCH  33  34
ENDBRANCH  32  33
ENDBRANCH   1  32
TORSDOF 11
ENDMDL
MODEL 2
REMARK VINA RESULT:      -6.3      6.560      9.948
REMARK  Name = 
REMARK  13 active torsions:
REMARK  status: ('A' for Active; 'I' for Inactive)
REMARK    1  A    between atoms: C_1  and  C_2
REMARK    2  A    between atoms: C_2  and  C_3
REMARK    3  A    between atoms: C_3  and  C_4
REMARK    4  A    between atoms: C_4  and  N_5
REMARK    5  A    between atoms: C_6  and  N_7
REMARK    6  A    between atoms: C_8  and  N_9
REMARK    7  A    between atoms: N_9  and  C_10
REMARK    8  A    between atoms: C_10  and  C_11
REMARK    9  A    between atoms: C_11  and  O_12
REMARK   10  A    between atoms: O_12  and  C_13
REMARK   11  A    between atoms: C_14  and  C_16
REMARK   12  A    between atoms: N_20  and  C_21
REMARK   13  A    between atoms: C_21  and  C_22
REMARK                            x       y       z     vdW  Elec       q    Type
REMARK                         _______ _______ _______ _____ _____    ______ ____
ROOT
ATOM      1  N   UNL     1       2.571   6.083  18.505  0.00  0.00    +0.000 N 
ATOM      2  C   UNL     1       3.968   5.817  18.578  0.00  0.00    +0.000 C 
ATOM      3  O   UNL     1       4.763   6.606  19.096  0.00  0.00    +0.000 OA
ENDROOT
BRANCH   1   6
ATOM      4  N   UNL     1       1.311   8.869  20.691  0.00  0.00    +0.000 N 
ATOM      5  C   UNL     1       1.696   7.570  20.266  0.00  0.00    +0.000 A 
ATOM      6  C   UNL     1       2.097   7.321  18.994  0.00  0.00    +0.000 A 
ATOM      7  C   UNL     1       2.080   8.477  18.039  0.00  0.00    +0.000 A 
ATOM      8  O   UNL     1       2.113   8.326  16.819  0.00  0.00    +0.000 OA
ATOM      9  N   UNL     1       1.941   9.712  18.595  0.00  0.00    +0.000 N 
ATOM     10  C   UNL     1       1.514   9.974  19.869  0.00  0.00    +0.000 A 
ATOM     11  O   UNL     1       1.323  11.145  20.193  0.00  0.00    +0.000 OA
ATOM     12  H   UNL     1       1.959  10.504  17.972  0.00  0.00    +0.000 HD
BRANCH   5  13
ATOM     13  N   UNL     1       1.725   6.525  21.203  0.00  0.00    +0.000 N 
ATOM     14  H   UNL     1       2.364   5.806  20.864  0.00  0.00    +0.000 HD
ATOM     15  H   UNL     1       2.188   6.887  22.037  0.00  0.00    +0.000 HD
ENDBRANCH   5  13
BRANCH   4  16
ATOM     16  C   UNL     1       0.940   9.100  22.108  0.00  0.00    +0.000 C 
BRANCH  16  17
ATOM     17  C   UNL     1      -0.554   9.178  22.480  0.00  0.00    +0.000 C 
BRANCH  17  19
ATOM     18  C   UNL     1      -1.442  11.552  22.391  0.00  0.00    +0.000 C 
ATOM     19  C   UNL     1      -0.851  10.462  23.272  0.00  0.00    +0.000 C 
ENDBRANCH  17  19
ENDBRANCH  16  17
ENDBRANCH   4  16
ENDBRANCH   1   6
BRANCH   2  20
ATOM     20  C   UNL     1       4.478   4.472  17.979  0.00  0.00    +0.000 C 
ATOM     21  C   UNL     1       5.778   3.941  18.597  0.00  0.00    +0.000 C 
ATOM     22  C   UNL     1       6.855   4.491  17.697  0.00  0.00    +0.000 C 
ATOM     23  O   UNL     1       8.048   4.503  17.949  0.00  0.00    +0.000 OA
ATOM     24  N   UNL     1       6.247   4.898  16.525  0.00  0.00    +0.000 N 
ATOM     25  C   UNL     1       4.833   4.627  16.507  0.00  0.00    +0.000 C 
BRANCH  24  26
ATOM     26  C   UNL     1       6.948   5.517  15.421  0.00  0.00    +0.000 C 
BRANCH  26  27
ATOM     27  C   UNL     1       6.699   4.817  14.135  0.00  0.00    +0.000 A 
ATOM     28  C   UNL     1       5.787   3.853  13.750  0.00  0.00    +0.000 A 
ATOM     29  C   UNL     1       6.164   3.441  12.449  0.00  0.00    +0.000 A 
ATOM     30  C   UNL     1       7.253   4.208  12.107  0.00  0.00    +0.000 A 
ATOM     31  O   UNL     1       7.580   5.053  13.118  0.00  0.00    +0.000 OA
ENDBRANCH  26  27
ENDBRANCH  24  26
ENDBRANCH   2  20
BRANCH   1  32
ATOM     32  C   UNL     1       1.674   5.005  18.083  0.00  0.00    +0.000 C 
BRANCH  32  33
ATOM     33  C   UNL     1       1.408   3.730  18.888  0.00  0.00    +0.000 C 
BRANCH  33  34
ATOM     34  O   UNL     1       1.339   3.890  20.298  0.00  0.00    +0.000 OA
ATOM     35  C   UNL     1       1.300   2.656  21.001  0.00  0.00    +0.000 C 
ENDBRANCH  33  34
ENDBRANCH  32  33
ENDBRANCH   1  32
TORSDOF 11
ENDMDL
MODEL 3
REMARK VINA RESULT:      -6.3      3.661      6.751
REMARK  Name = 
REMARK  13 active torsions:
REMARK  status: ('A' for Active; 'I' for Inactive)
REMARK    1  A    between atoms: C_1  and  C_2
REMARK    2  A    between atoms: C_2  and  C_3
REMARK    3  A    between atoms: C_3  and  C_4
REMARK    4  A    between atoms: C_4  and  N_5
REMARK    5  A    between atoms: C_6  and  N_7
REMARK    6  A    between atoms: C_8  and  N_9
REMARK    7  A    between atoms: N_9  and  C_10
REMARK    8  A    between atoms: C_10  and  C_11
REMARK    9  A    between atoms: C_11  and  O_12
REMARK   10  A    between atoms: O_12  and  C_13
REMARK   11  A    between atoms: C_14  and  C_16
REMARK   12  A    between atoms: N_20  and  C_21
REMARK   13  A    between atoms: C_21  and  C_22
REMARK                            x       y       z     vdW  Elec       q    Type
REMARK                         _______ _______ _______ _____ _____    ______ ____
ROOT
ATOM      1  N   UNL     1       0.164  10.879  19.421  0.00  0.00    +0.000 N 
ATOM      2  C   UNL     1       0.404  11.842  20.442  0.00  0.00    +0.000 C 
ATOM      3  O   UNL     1       1.374  11.769  21.201  0.00  0.00    +0.000 OA
ENDROOT
BRANCH   1   6
ATOM      4  N   UNL     1       1.944   7.610  19.945  0.00  0.00    +0.000 N 
ATOM      5  C   UNL     1       1.086   8.719  20.171  0.00  0.00    +0.000 A 
ATOM      6  C   UNL     1       1.040   9.775  19.320  0.00  0.00    +0.000 A 
ATOM      7  C   UNL     1       1.970   9.740  18.145  0.00  0.00    +0.000 A 
ATOM      8  O   UNL     1       2.249  10.745  17.493  0.00  0.00    +0.000 OA
ATOM      9  N   UNL     1       2.560   8.541  17.882  0.00  0.00    +0.000 N 
ATOM     10  C   UNL     1       2.632   7.479  18.742  0.00  0.00    +0.000 A 
ATOM     11  O   UNL     1       3.302   6.502  18.411  0.00  0.00    +0.000 OA
ATOM     12  H   UNL     1       3.163   8.489  17.077  0.00  0.00    +0.000 HD
BRANCH   5  13
ATOM     13  N   UNL     1       0.211   8.694  21.269  0.00  0.00    +0.000 N 
ATOM     14  H   UNL     1      -0.737   8.860  20.929  0.00  0.00    +0.000 HD
ATOM     15  H   UNL     1       0.184   7.731  21.604  0.00  0.00    +0.000 HD
ENDBRANCH   5  13
BRANCH   4  16
ATOM     16  C   UNL     1       1.911   6.453  20.872  0.00  0.00    +0.000 C 
BRANCH  16  17
ATOM     17  C   UNL     1       1.229   5.151  20.407  0.00  0.00    +0.000 C 
BRANCH  17  19
ATOM     18  C   UNL     1       1.428   2.623  20.460  0.00  0.00    +0.000 C 
ATOM     19  C   UNL     1       1.845   3.932  21.113  0.00  0.00    +0.000 C 
ENDBRANCH  17  19
ENDBRANCH  16  17
ENDBRANCH   4  16
ENDBRANCH   1   6
BRANCH   2  20
ATOM     20  C   UNL     1      -0.608  13.020  20.575  0.00  0.00    +0.000 C 
ATOM     21  C   UNL     1      -0.223  14.090  21.604  0.00  0.00    +0.000 C 
ATOM     22  C   UNL     1      -0.921  13.645  22.863  0.00  0.00    +0.000 C 
ATOM     23  O   UNL     1      -0.704  14.079  23.982  0.00  0.00    +0.000 OA
ATOM     24  N   UNL     1      -1.884  12.725  22.500  0.00  0.00    +0.000 N 
ATOM     25  C   UNL     1      -1.958  12.528  21.075  0.00  0.00    +0.000 C 
BRANCH  24  26
ATOM     26  C   UNL     1      -2.745  12.038  23.439  0.00  0.00    +0.000 C 
BRANCH  26  27
ATOM     27  C   UNL     1      -4.132  12.568  23.421  0.00  0.00    +0.000 A 
ATOM     28  C   UNL     1      -4.739  13.592  22.718  0.00  0.00    +0.000 A 
ATOM     29  C   UNL     1      -6.034  13.744  23.269  0.00  0.00    +0.000 A 
ATOM     30  C   UNL     1      -6.150  12.779  24.242  0.00  0.00    +0.000 A 
ATOM     31  O   UNL     1      -5.006  12.053  24.335  0.00  0.00    +0.000 OA
ENDBRANCH  26  27
ENDBRANCH  24  26
ENDBRANCH   2  20
BRANCH   1  32
ATOM     32  C   UNL     1      -0.872  11.158  18.424  0.00  0.00    +0.000 C 
BRANCH  32  33
ATOM     33  C   UNL     1      -1.930  10.152  17.964  0.00  0.00    +0.000 C 
BRANCH  33  34
ATOM     34  O   UNL     1      -1.808   9.693  16.624  0.00  0.00    +0.000 OA
ATOM     35  C   UNL     1      -2.966   9.943  15.838  0.00  0.00    +0.000 C 
ENDBRANCH  33  34
ENDBRANCH  32  33
ENDBRANCH   1  32
TORSDOF 11
ENDMDL
MODEL 4
REMARK VINA RESULT:      -6.2      7.095     10.218
REMARK  Name = 
REMARK  13 active torsions:
REMARK  status: ('A' for Active; 'I' for Inactive)
REMARK    1  A    between atoms: C_1  and  C_2
REMARK    2  A    between atoms: C_2  and  C_3
REMARK    3  A    between atoms: C_3  and  C_4
REMARK    4  A    between atoms: C_4  and  N_5
REMARK    5  A    between atoms: C_6  and  N_7
REMARK    6  A    between atoms: C_8  and  N_9
REMARK    7  A    between atoms: N_9  and  C_10
REMARK    8  A    between atoms: C_10  and  C_11
REMARK    9  A    between atoms: C_11  and  O_12
REMARK   10  A    between atoms: O_12  and  C_13
REMARK   11  A    between atoms: C_14  and  C_16
REMARK   12  A    between atoms: N_20  and  C_21
REMARK   13  A    between atoms: C_21  and  C_22
REMARK                            x       y       z     vdW  Elec       q    Type
REMARK                         _______ _______ _______ _____ _____    ______ ____
ROOT
ATOM      1  N   UNL     1       3.567   5.037  18.632  0.00  0.00    +0.000 N 
ATOM      2  C   UNL     1       4.979   5.172  18.506  0.00  0.00    +0.000 C 
ATOM      3  O   UNL     1       5.601   6.100  19.029  0.00  0.00    +0.000 OA
ENDROOT
BRANCH   1   6
ATOM      4  N   UNL     1       1.822   8.213  19.629  0.00  0.00    +0.000 N 
ATOM      5  C   UNL     1       2.618   7.298  18.891  0.00  0.00    +0.000 A 
ATOM      6  C   UNL     1       2.857   6.037  19.334  0.00  0.00    +0.000 A 
ATOM      7  C   UNL     1       2.273   5.663  20.663  0.00  0.00    +0.000 A 
ATOM      8  O   UNL     1       2.667   4.692  21.307  0.00  0.00    +0.000 OA
ATOM      9  N   UNL     1       1.333   6.509  21.165  0.00  0.00    +0.000 N 
ATOM     10  C   UNL     1       1.100   7.790  20.742  0.00  0.00    +0.000 A 
ATOM     11  O   UNL     1       0.297   8.478  21.370  0.00  0.00    +0.000 OA
ATOM     12  H   UNL     1       0.905   6.257  22.042  0.00  0.00    +0.000 HD
BRANCH   5  13
ATOM     13  N   UNL     1       3.118   7.683  17.637  0.00  0.00    +0.000 N 
ATOM     14  H   UNL     1       2.825   6.991  16.947  0.00  0.00    +0.000 HD
ATOM     15  H   UNL     1       2.615   8.527  17.364  0.00  0.00    +0.000 HD
ENDBRANCH   5  13
BRANCH   4  16
ATOM     16  C   UNL     1       1.539   9.558  19.072  0.00  0.00    +0.000 C 
BRANCH  16  17
ATOM     17  C   UNL     1       0.436   9.701  18.005  0.00  0.00    +0.000 C 
BRANCH  17  19
ATOM     18  C   UNL     1      -2.004  10.300  17.651  0.00  0.00    +0.000 C 
ATOM     19  C   UNL     1      -0.819  10.356  18.606  0.00  0.00    +0.000 C 
ENDBRANCH  17  19
ENDBRANCH  16  17
ENDBRANCH   4  16
ENDBRANCH   1   6
BRANCH   2  20
ATOM     20  C   UNL     1       5.735   4.090  17.678  0.00  0.00    +0.000 C 
ATOM     21  C   UNL     1       7.161   4.475  17.260  0.00  0.00    +0.000 C 
ATOM     22  C   UNL     1       6.983   5.078  15.891  0.00  0.00    +0.000 C 
ATOM     23  O   UNL     1       7.825   5.721  15.287  0.00  0.00    +0.000 OA
ATOM     24  N   UNL     1       5.736   4.702  15.431  0.00  0.00    +0.000 N 
ATOM     25  C   UNL     1       5.042   3.834  16.348  0.00  0.00    +0.000 C 
BRANCH  24  26
ATOM     26  C   UNL     1       5.182   5.115  14.160  0.00  0.00    +0.000 C 
BRANCH  26  27
ATOM     27  C   UNL     1       5.457   4.132  13.081  0.00  0.00    +0.000 A 
ATOM     28  C   UNL     1       4.655   3.243  12.392  0.00  0.00    +0.000 A 
ATOM     29  C   UNL     1       5.523   2.437  11.617  0.00  0.00    +0.000 A 
ATOM     30  C   UNL     1       6.793   2.912  11.849  0.00  0.00    +0.000 A 
ATOM     31  O   UNL     1       6.763   3.947  12.728  0.00  0.00    +0.000 OA
ENDBRANCH  26  27
ENDBRANCH  24  26
ENDBRANCH   2  20
BRANCH   1  32
ATOM     32  C   UNL     1       2.939   3.795  18.177  0.00  0.00    +0.000 C 
BRANCH  32  33
ATOM     33  C   UNL     1       1.477   3.669  17.739  0.00  0.00    +0.000 C 
BRANCH  33  34
ATOM     34  O   UNL     1       0.749   2.590  18.311  0.00  0.00    +0.000 OA
ATOM     35  C   UNL     1       1.336   2.088  19.503  0.00  0.00    +0.000 C 
ENDBRANCH  33  34
ENDBRANCH  32  33
ENDBRANCH   1  32
TORSDOF 11
ENDMDL
MODEL 5
REMARK VINA RESULT:      -6.1      5.568      8.494
REMARK  Name = 
REMARK  13 active torsions:
REMARK  status: ('A' for Active; 'I' for Inactive)
REMARK    1  A    between atoms: C_1  and  C_2
REMARK    2  A    between atoms: C_2  and  C_3
REMARK    3  A    between atoms: C_3  and  C_4
REMARK    4  A    between atoms: C_4  and  N_5
REMARK    5  A    between atoms: C_6  and  N_7
REMARK    6  A    between atoms: C_8  and  N_9
REMARK    7  A    between atoms: N_9  and  C_10
REMARK    8  A    between atoms: C_10  and  C_11
REMARK    9  A    between atoms: C_11  and  O_12
REMARK   10  A    between atoms: O_12  and  C_13
REMARK   11  A    between atoms: C_14  and  C_16
REMARK   12  A    between atoms: N_20  and  C_21
REMARK   13  A    between atoms: C_21  and  C_22
REMARK                            x       y       z     vdW  Elec       q    Type
REMARK                         _______ _______ _______ _____ _____    ______ ____
ROOT
ATOM      1  N   UNL     1       3.464   6.727  17.758  0.00  0.00    +0.000 N 
ATOM      2  C   UNL     1       2.544   7.626  18.369  0.00  0.00    +0.000 C 
ATOM      3  O   UNL     1       2.020   7.391  19.461  0.00  0.00    +0.000 OA
ENDROOT
BRANCH   1   6
ATOM      4  N   UNL     1       3.269   3.223  19.105  0.00  0.00    +0.000 N 
ATOM      5  C   UNL     1       2.881   4.451  18.506  0.00  0.00    +0.000 A 
ATOM      6  C   UNL     1       3.735   5.501  18.407  0.00  0.00    +0.000 A 
ATOM      7  C   UNL     1       5.102   5.322  18.996  0.00  0.00    +0.000 A 
ATOM      8  O   UNL     1       5.841   6.271  19.250  0.00  0.00    +0.000 OA
ATOM      9  N   UNL     1       5.455   4.047  19.316  0.00  0.00    +0.000 N 
ATOM     10  C   UNL     1       4.598   2.986  19.442  0.00  0.00    +0.000 A 
ATOM     11  O   UNL     1       5.046   1.917  19.854  0.00  0.00    +0.000 OA
ATOM     12  H   UNL     1       6.382   3.902  19.684  0.00  0.00    +0.000 HD
BRANCH   5  13
ATOM     13  N   UNL     1       1.601   4.562  17.940  0.00  0.00    +0.000 N 
ATOM     14  H   UNL     1       0.948   4.029  18.513  0.00  0.00    +0.000 HD
ATOM     15  H   UNL     1       1.303   5.529  18.068  0.00  0.00    +0.000 HD
ENDBRANCH   5  13
BRANCH   4  16
ATOM     16  C   UNL     1       2.318   2.086  19.132  0.00  0.00    +0.000 C 
BRANCH  16  17
ATOM     17  C   UNL     1       1.142   2.127  20.128  0.00  0.00    +0.000 C 
BRANCH  17  19
ATOM     18  C   UNL     1       2.001   3.834  21.796  0.00  0.00    +0.000 C 
ATOM     19  C   UNL     1       1.648   2.372  21.559  0.00  0.00    +0.000 C 
ENDBRANCH  17  19
ENDBRANCH  16  17
ENDBRANCH   4  16
ENDBRANCH   1   6
BRANCH   2  20
ATOM     20  C   UNL     1       2.213   8.945  17.609  0.00  0.00    +0.000 C 
ATOM     21  C   UNL     1       2.645  10.231  18.326  0.00  0.00    +0.000 C 
ATOM     22  C   UNL     1       1.420  10.636  19.105  0.00  0.00    +0.000 C 
ATOM     23  O   UNL     1       1.392  11.474  19.991  0.00  0.00    +0.000 OA
ATOM     24  N   UNL     1       0.346   9.945  18.578  0.00  0.00    +0.000 N 
ATOM     25  C   UNL     1       0.710   9.125  17.451  0.00  0.00    +0.000 C 
BRANCH  24  26
ATOM     26  C   UNL     1      -1.006  10.039  19.085  0.00  0.00    +0.000 C 
BRANCH  26  27
ATOM     27  C   UNL     1      -1.994  10.287  18.004  0.00  0.00    +0.000 A 
ATOM     28  C   UNL     1      -3.055   9.551  17.513  0.00  0.00    +0.000 A 
ATOM     29  C   UNL     1      -3.506  10.224  16.351  0.00  0.00    +0.000 A 
ATOM     30  C   UNL     1      -2.721  11.347  16.232  0.00  0.00    +0.000 A 
ATOM     31  O   UNL     1      -1.807  11.401  17.236  0.00  0.00    +0.000 OA
ENDBRANCH  26  27
ENDBRANCH  24  26
ENDBRANCH   2  20
BRANCH   1  32
ATOM     32  C   UNL     1       4.209   7.179  16.582  0.00  0.00    +0.000 C 
BRANCH  32  33
ATOM     33  C   UNL     1       5.039   6.267  15.674  0.00  0.00    +0.000 C 
BRANCH  33  34
ATOM     34  O   UNL     1       6.437   6.243  15.931  0.00  0.00    +0.000 OA
ATOM     35  C   UNL     1       6.988   4.933  15.910  0.00  0.00    +0.000 C 
ENDBRANCH  33  34
ENDBRANCH  32  33
ENDBRANCH   1  32
TORSDOF 11
ENDMDL
MODEL 6
REMARK VINA RESULT:      -6.1      1.818      8.697
REMARK  Name = 
REMARK  13 active torsions:
REMARK  status: ('A' for Active; 'I' for Inactive)
REMARK    1  A    between atoms: C_1  and  C_2
REMARK    2  A    between atoms: C_2  and  C_3
REMARK    3  A    between atoms: C_3  and  C_4
REMARK    4  A    between atoms: C_4  and  N_5
REMARK    5  A    between atoms: C_6  and  N_7
REMARK    6  A    between atoms: C_8  and  N_9
REMARK    7  A    between atoms: N_9  and  C_10
REMARK    8  A    between atoms: C_10  and  C_11
REMARK    9  A    between atoms: C_11  and  O_12
REMARK   10  A    between atoms: O_12  and  C_13
REMARK   11  A    between atoms: C_14  and  C_16
REMARK   12  A    between atoms: N_20  and  C_21
REMARK   13  A    between atoms: C_21  and  C_22
REMARK                            x       y       z     vdW  Elec       q    Type
REMARK                         _______ _______ _______ _____ _____    ______ ____
ROOT
ATOM      1  N   UNL     1      -0.098  12.366  19.880  0.00  0.00    +0.000 N 
ATOM      2  C   UNL     1       0.444  13.595  19.408  0.00  0.00    +0.000 C 
ATOM      3  O   UNL     1       0.035  14.144  18.381  0.00  0.00    +0.000 OA
ENDROOT
BRANCH   1   6
ATOM      4  N   UNL     1      -3.326  11.451  18.185  0.00  0.00    +0.000 N 
ATOM      5  C   UNL     1      -2.405  12.095  19.054  0.00  0.00    +0.000 A 
ATOM      6  C   UNL     1      -1.098  11.733  19.109  0.00  0.00    +0.000 A 
ATOM      7  C   UNL     1      -0.674  10.590  18.236  0.00  0.00    +0.000 A 
ATOM      8  O   UNL     1       0.375   9.974  18.419  0.00  0.00    +0.000 OA
ATOM      9  N   UNL     1      -1.556  10.213  17.271  0.00  0.00    +0.000 N 
ATOM     10  C   UNL     1      -2.881  10.552  17.220  0.00  0.00    +0.000 A 
ATOM     11  O   UNL     1      -3.585  10.038  16.352  0.00  0.00    +0.000 OA
ATOM     12  H   UNL     1      -1.275   9.467  16.654  0.00  0.00    +0.000 HD
BRANCH   5  13
ATOM     13  N   UNL     1      -2.841  13.180  19.831  0.00  0.00    +0.000 N 
ATOM     14  H   UNL     1      -2.070  13.841  19.924  0.00  0.00    +0.000 HD
ATOM     15  H   UNL     1      -3.529  13.686  19.272  0.00  0.00    +0.000 HD
ENDBRANCH   5  13
BRANCH   4  16
ATOM     16  C   UNL     1      -4.729  11.926  18.118  0.00  0.00    +0.000 C 
BRANCH  16  17
ATOM     17  C   UNL     1      -5.724  11.451  19.195  0.00  0.00    +0.000 C 
BRANCH  17  19
ATOM     18  C   UNL     1      -7.085   9.344  19.575  0.00  0.00    +0.000 C 
ATOM     19  C   UNL     1      -6.739  10.460  18.600  0.00  0.00    +0.000 C 
ENDBRANCH  17  19
ENDBRANCH  16  17
ENDBRANCH   4  16
ENDBRANCH   1   6
BRANCH   2  20
ATOM     20  C   UNL     1       1.588  14.247  20.241  0.00  0.00    +0.000 C 
ATOM     21  C   UNL     1       1.529  15.777  20.335  0.00  0.00    +0.000 C 
ATOM     22  C   UNL     1       2.400  16.241  19.196  0.00  0.00    +0.000 C 
ATOM     23  O   UNL     1       2.451  17.380  18.764  0.00  0.00    +0.000 OA
ATOM     24  N   UNL     1       3.167  15.164  18.797  0.00  0.00    +0.000 N 
ATOM     25  C   UNL     1       2.945  13.992  19.604  0.00  0.00    +0.000 C 
BRANCH  24  26
ATOM     26  C   UNL     1       4.109  15.202  17.699  0.00  0.00    +0.000 C 
BRANCH  26  27
ATOM     27  C   UNL     1       5.518  15.184  18.167  0.00  0.00    +0.000 A 
ATOM     28  C   UNL     1       6.241  16.009  19.008  0.00  0.00    +0.000 A 
ATOM     29  C   UNL     1       7.590  15.590  18.919  0.00  0.00    +0.000 A 
ATOM     30  C   UNL     1       7.599  14.512  18.064  0.00  0.00    +0.000 A 
ATOM     31  O   UNL     1       6.346  14.251  17.610  0.00  0.00    +0.000 OA
ENDBRANCH  26  27
ENDBRANCH  24  26
ENDBRANCH   2  20
BRANCH   1  32
ATOM     32  C   UNL     1       0.282  11.901  21.216  0.00  0.00    +0.000 C 
BRANCH  32  33
ATOM     33  C   UNL     1      -0.685  11.754  22.393  0.00  0.00    +0.000 C 
BRANCH  33  34
ATOM     34  O   UNL     1      -0.366  10.738  23.335  0.00  0.00    +0.000 OA
ATOM     35  C   UNL     1       0.133   9.552  22.732  0.00  0.00    +0.000 C 
ENDBRANCH  33  34
ENDBRANCH  32  33
ENDBRANCH   1  32
TORSDOF 11
ENDMDL
MODEL 7
REMARK VINA RESULT:      -6.1      1.088      1.455
REMARK  Name = 
REMARK  13 active torsions:
REMARK  status: ('A' for Active; 'I' for Inactive)
REMARK    1  A    between atoms: C_1  and  C_2
REMARK    2  A    between atoms: C_2  and  C_3
REMARK    3  A    between atoms: C_3  and  C_4
REMARK    4  A    between atoms: C_4  and  N_5
REMARK    5  A    between atoms: C_6  and  N_7
REMARK    6  A    between atoms: C_8  and  N_9
REMARK    7  A    between atoms: N_9  and  C_10
REMARK    8  A    between atoms: C_10  and  C_11
REMARK    9  A    between atoms: C_11  and  O_12
REMARK   10  A    between atoms: O_12  and  C_13
REMARK   11  A    between atoms: C_14  and  C_16
REMARK   12  A    between atoms: N_20  and  C_21
REMARK   13  A    between atoms: C_21  and  C_22
REMARK                            x       y       z     vdW  Elec       q    Type
REMARK                         _______ _______ _______ _____ _____    ______ ____
ROOT
ATOM      1  N   UNL     1       0.235  11.164  19.089  0.00  0.00    +0.000 N 
ATOM      2  C   UNL     1      -1.062  11.433  18.566  0.00  0.00    +0.000 C 
ATOM      3  O   UNL     1      -1.528  12.574  18.516  0.00  0.00    +0.000 OA
ENDROOT
BRANCH   1   6
ATOM      4  N   UNL     1       2.522  14.115  19.525  0.00  0.00    +0.000 N 
ATOM      5  C   UNL     1       1.876  12.997  18.933  0.00  0.00    +0.000 A 
ATOM      6  C   UNL     1       0.982  12.240  19.618  0.00  0.00    +0.000 A 
ATOM      7  C   UNL     1       0.733  12.614  21.049  0.00  0.00    +0.000 A 
ATOM      8  O   UNL     1       0.205  11.844  21.849  0.00  0.00    +0.000 OA
ATOM      9  N   UNL     1       1.199  13.830  21.441  0.00  0.00    +0.000 N 
ATOM     10  C   UNL     1       2.119  14.591  20.770  0.00  0.00    +0.000 A 
ATOM     11  O   UNL     1       2.536  15.615  21.307  0.00  0.00    +0.000 OA
ATOM     12  H   UNL     1       1.013  14.113  22.390  0.00  0.00    +0.000 HD
BRANCH   5  13
ATOM     13  N   UNL     1       2.118  12.704  17.581  0.00  0.00    +0.000 N 
ATOM     14  H   UNL     1       2.266  13.581  17.083  0.00  0.00    +0.000 HD
ATOM     15  H   UNL     1       3.027  12.243  17.536  0.00  0.00    +0.000 HD
ENDBRANCH   5  13
BRANCH   4  16
ATOM     16  C   UNL     1       3.444  14.946  18.714  0.00  0.00    +0.000 C 
BRANCH  16  17
ATOM     17  C   UNL     1       4.954  14.893  19.021  0.00  0.00    +0.000 C 
BRANCH  17  19
ATOM     18  C   UNL     1       7.257  14.579  18.006  0.00  0.00    +0.000 C 
ATOM     19  C   UNL     1       5.758  14.593  17.745  0.00  0.00    +0.000 C 
ENDBRANCH  17  19
ENDBRANCH  16  17
ENDBRANCH   4  16
ENDBRANCH   1   6
BRANCH   2  20
ATOM     20  C   UNL     1      -1.893  10.223  18.042  0.00  0.00    +0.000 C 
ATOM     21  C   UNL     1      -1.842  10.012  16.523  0.00  0.00    +0.000 C 
ATOM     22  C   UNL     1      -3.041  10.769  16.015  0.00  0.00    +0.000 C 
ATOM     23  O   UNL     1      -3.253  11.055  14.849  0.00  0.00    +0.000 OA
ATOM     24  N   UNL     1      -3.872  11.002  17.093  0.00  0.00    +0.000 N 
ATOM     25  C   UNL     1      -3.377  10.419  18.314  0.00  0.00    +0.000 C 
BRANCH  24  26
ATOM     26  C   UNL     1      -5.116  11.737  17.015  0.00  0.00    +0.000 C 
BRANCH  26  27
ATOM     27  C   UNL     1      -5.845  11.746  18.308  0.00  0.00    +0.000 A 
ATOM     28  C   UNL     1      -5.712  12.500  19.458  0.00  0.00    +0.000 A 
ATOM     29  C   UNL     1      -6.570  11.917  20.422  0.00  0.00    +0.000 A 
ATOM     30  C   UNL     1      -7.202  10.873  19.788  0.00  0.00    +0.000 A 
ATOM     31  O   UNL     1      -6.778  10.766  18.502  0.00  0.00    +0.000 OA
ENDBRANCH  26  27
ENDBRANCH  24  26
ENDBRANCH   2  20
BRANCH   1  32
ATOM     32  C   UNL     1       0.800   9.825  18.906  0.00  0.00    +0.000 C 
BRANCH  32  33
ATOM     33  C   UNL     1       1.427   8.986  20.023  0.00  0.00    +0.000 C 
BRANCH  33  34
ATOM     34  O   UNL     1       2.034   7.766  19.615  0.00  0.00    +0.000 OA
ATOM     35  C   UNL     1       2.584   7.824  18.307  0.00  0.00    +0.000 C 
ENDBRANCH  33  34
ENDBRANCH  32  33
ENDBRANCH   1  32
TORSDOF 11
ENDMDL
MODEL 8
REMARK VINA RESULT:      -6.0      7.194     10.314
REMARK  Name = 
REMARK  13 active torsions:
REMARK  status: ('A' for Active; 'I' for Inactive)
REMARK    1  A    between atoms: C_1  and  C_2
REMARK    2  A    between atoms: C_2  and  C_3
REMARK    3  A    between atoms: C_3  and  C_4
REMARK    4  A    between atoms: C_4  and  N_5
REMARK    5  A    between atoms: C_6  and  N_7
REMARK    6  A    between atoms: C_8  and  N_9
REMARK    7  A    between atoms: N_9  and  C_10
REMARK    8  A    between atoms: C_10  and  C_11
REMARK    9  A    between atoms: C_11  and  O_12
REMARK   10  A    between atoms: O_12  and  C_13
REMARK   11  A    between atoms: C_14  and  C_16
REMARK   12  A    between atoms: N_20  and  C_21
REMARK   13  A    between atoms: C_21  and  C_22
REMARK                            x       y       z     vdW  Elec       q    Type
REMARK                         _______ _______ _______ _____ _____    ______ ____
ROOT
ATOM      1  N   UNL     1       3.516   5.641  18.204  0.00  0.00    +0.000 N 
ATOM      2  C   UNL     1       4.910   5.759  17.940  0.00  0.00    +0.000 C 
ATOM      3  O   UNL     1       5.528   6.812  18.123  0.00  0.00    +0.000 OA
ENDROOT
BRANCH   1   6
ATOM      4  N   UNL     1       1.650   8.191  20.239  0.00  0.00    +0.000 N 
ATOM      5  C   UNL     1       2.267   6.968  19.864  0.00  0.00    +0.000 A 
ATOM      6  C   UNL     1       2.815   6.789  18.635  0.00  0.00    +0.000 A 
ATOM      7  C   UNL     1       2.704   7.931  17.670  0.00  0.00    +0.000 A 
ATOM      8  O   UNL     1       2.870   7.791  16.460  0.00  0.00    +0.000 OA
ATOM      9  N   UNL     1       2.327   9.128  18.198  0.00  0.00    +0.000 N 
ATOM     10  C   UNL     1       1.752   9.317  19.426  0.00  0.00    +0.000 A 
ATOM     11  O   UNL     1       1.354  10.443  19.720  0.00  0.00    +0.000 OA
ATOM     12  H   UNL     1       2.279   9.915  17.571  0.00  0.00    +0.000 HD
BRANCH   5  13
ATOM     13  N   UNL     1       2.374   5.937  20.811  0.00  0.00    +0.000 N 
ATOM     14  H   UNL     1       2.496   6.358  21.732  0.00  0.00    +0.000 HD
ATOM     15  H   UNL     1       1.459   5.491  20.867  0.00  0.00    +0.000 HD
ENDBRANCH   5  13
BRANCH   4  16
ATOM     16  C   UNL     1       1.123   8.357  21.615  0.00  0.00    +0.000 C 
BRANCH  16  17
ATOM     17  C   UNL     1      -0.377   8.665  21.802  0.00  0.00    +0.000 C 
BRANCH  17  19
ATOM     18  C   UNL     1      -0.714  11.057  22.573  0.00  0.00    +0.000 C 
ATOM     19  C   UNL     1      -0.595   9.602  23.001  0.00  0.00    +0.000 C 
ENDBRANCH  17  19
ENDBRANCH  16  17
ENDBRANCH   4  16
ENDBRANCH   1   6
BRANCH   2  20
ATOM     20  C   UNL     1       5.653   4.497  17.408  0.00  0.00    +0.000 C 
ATOM     21  C   UNL     1       7.108   4.734  16.982  0.00  0.00    +0.000 C 
ATOM     22  C   UNL     1       7.008   5.022  15.506  0.00  0.00    +0.000 C 
ATOM     23  O   UNL     1       7.899   5.488  14.816  0.00  0.00    +0.000 OA
ATOM     24  N   UNL     1       5.766   4.592  15.084  0.00  0.00    +0.000 N 
ATOM     25  C   UNL     1       5.002   3.973  16.136  0.00  0.00    +0.000 C 
BRANCH  24  26
ATOM     26  C   UNL     1       5.278   4.729  13.728  0.00  0.00    +0.000 C 
BRANCH  26  27
ATOM     27  C   UNL     1       5.840   3.695  12.823  0.00  0.00    +0.000 A 
ATOM     28  C   UNL     1       7.073   3.544  12.218  0.00  0.00    +0.000 A 
ATOM     29  C   UNL     1       6.948   2.459  11.316  0.00  0.00    +0.000 A 
ATOM     30  C   UNL     1       5.662   1.992  11.459  0.00  0.00    +0.000 A 
ATOM     31  O   UNL     1       4.984   2.727  12.378  0.00  0.00    +0.000 OA
ENDBRANCH  26  27
ENDBRANCH  24  26
ENDBRANCH   2  20
BRANCH   1  32
ATOM     32  C   UNL     1       2.909   4.309  18.177  0.00  0.00    +0.000 C 
BRANCH  32  33
ATOM     33  C   UNL     1       1.487   4.010  17.696  0.00  0.00    +0.000 C 
BRANCH  33  34
ATOM     34  O   UNL     1       0.883   2.841  18.232  0.00  0.00    +0.000 OA
ATOM     35  C   UNL     1       0.874   2.816  19.653  0.00  0.00    +0.000 C 
ENDBRANCH  33  34
ENDBRANCH  32  33
ENDBRANCH   1  32
TORSDOF 11
ENDMDL
MODEL 9
REMARK VINA RESULT:      -6.0      6.713      9.883
REMARK  Name = 
REMARK  13 active torsions:
REMARK  status: ('A' for Active; 'I' for Inactive)
REMARK    1  A    between atoms: C_1  and  C_2
REMARK    2  A    between atoms: C_2  and  C_3
REMARK    3  A    between atoms: C_3  and  C_4
REMARK    4  A    between atoms: C_4  and  N_5
REMARK    5  A    between atoms: C_6  and  N_7
REMARK    6  A    between atoms: C_8  and  N_9
REMARK    7  A    between atoms: N_9  and  C_10
REMARK    8  A    between atoms: C_10  and  C_11
REMARK    9  A    between atoms: C_11  and  O_12
REMARK   10  A    between atoms: O_12  and  C_13
REMARK   11  A    between atoms: C_14  and  C_16
REMARK   12  A    between atoms: N_20  and  C_21
REMARK   13  A    between atoms: C_21  and  C_22
REMARK                            x       y       z     vdW  Elec       q    Type
REMARK                         _______ _______ _______ _____ _____    ______ ____
ROOT
ATOM      1  N   UNL     1       2.732   5.503  18.708  0.00  0.00    +0.000 N 
ATOM      2  C   UNL     1       4.133   5.249  18.708  0.00  0.00    +0.000 C 
ATOM      3  O   UNL     1       4.935   5.979  19.297  0.00  0.00    +0.000 OA
ENDROOT
BRANCH   1   6
ATOM      4  N   UNL     1       1.505   8.969  19.491  0.00  0.00    +0.000 N 
ATOM      5  C   UNL     1       2.062   7.875  18.777  0.00  0.00    +0.000 A 
ATOM      6  C   UNL     1       2.261   6.665  19.359  0.00  0.00    +0.000 A 
ATOM      7  C   UNL     1       1.901   6.543  20.809  0.00  0.00    +0.000 A 
ATOM      8  O   UNL     1       2.314   5.627  21.517  0.00  0.00    +0.000 OA
ATOM      9  N   UNL     1       1.152   7.554  21.328  0.00  0.00    +0.000 N 
ATOM     10  C   UNL     1       0.965   8.786  20.761  0.00  0.00    +0.000 A 
ATOM     11  O   UNL     1       0.360   9.642  21.405  0.00  0.00    +0.000 OA
ATOM     12  H   UNL     1       0.873   7.475  22.294  0.00  0.00    +0.000 HD
BRANCH   5  13
ATOM     13  N   UNL     1       2.356   8.028  17.412  0.00  0.00    +0.000 N 
ATOM     14  H   UNL     1       1.762   7.390  16.882  0.00  0.00    +0.000 HD
ATOM     15  H   UNL     1       2.024   8.953  17.139  0.00  0.00    +0.000 HD
ENDBRANCH   5  13
BRANCH   4  16
ATOM     16  C   UNL     1       1.251  10.252  18.792  0.00  0.00    +0.000 C 
BRANCH  16  17
ATOM     17  C   UNL     1      -0.154  10.516  18.216  0.00  0.00    +0.000 C 
BRANCH  17  19
ATOM     18  C   UNL     1      -1.805  11.888  19.567  0.00  0.00    +0.000 C 
ATOM     19  C   UNL     1      -0.638  11.927  18.590  0.00  0.00    +0.000 C 
ENDBRANCH  17  19
ENDBRANCH  16  17
ENDBRANCH   4  16
ENDBRANCH   1   6
BRANCH   2  20
ATOM     20  C   UNL     1       4.639   3.995  17.933  0.00  0.00    +0.000 C 
ATOM     21  C   UNL     1       6.147   3.735  18.038  0.00  0.00    +0.000 C 
ATOM     22  C   UNL     1       6.717   4.432  16.831  0.00  0.00    +0.000 C 
ATOM     23  O   UNL     1       7.898   4.671  16.645  0.00  0.00    +0.000 OA
ATOM     24  N   UNL     1       5.672   4.674  15.960  0.00  0.00    +0.000 N 
ATOM     25  C   UNL     1       4.418   4.150  16.436  0.00  0.00    +0.000 C 
BRANCH  24  26
ATOM     26  C   UNL     1       5.813   5.363  14.695  0.00  0.00    +0.000 C 
BRANCH  26  27
ATOM     27  C   UNL     1       6.085   4.428  13.574  0.00  0.00    +0.000 A 
ATOM     28  C   UNL     1       7.205   4.185  12.802  0.00  0.00    +0.000 A 
ATOM     29  C   UNL     1       6.795   3.314  11.764  0.00  0.00    +0.000 A 
ATOM     30  C   UNL     1       5.465   3.049  11.991  0.00  0.00    +0.000 A 
ATOM     31  O   UNL     1       5.026   3.711  13.093  0.00  0.00    +0.000 OA
ENDBRANCH  26  27
ENDBRANCH  24  26
ENDBRANCH   2  20
BRANCH   1  32
ATOM     32  C   UNL     1       1.834   4.474  18.181  0.00  0.00    +0.000 C 
BRANCH  32  33
ATOM     33  C   UNL     1       1.166   3.387  19.028  0.00  0.00    +0.000 C 
BRANCH  33  34
ATOM     34  O   UNL     1       2.031   2.640  19.873  0.00  0.00    +0.000 OA
ATOM     35  C   UNL     1       1.560   2.543  21.211  0.00  0.00    +0.000 C 
ENDBRANCH  33  34
ENDBRANCH  32  33
ENDBRANCH   1  32
TORSDOF 11
ENDMDL
