MODEL 1
REMARK VINA RESULT:      -7.9      0.000      0.000
REMARK  Name = 
REMARK  12 active torsions:
REMARK  status: ('A' for Active; 'I' for Inactive)
REMARK    1  A    between atoms: C_4  and  C_5
REMARK    2  A    between atoms: C_7  and  O_8
REMARK    3  A    between atoms: C_9  and  O_10
REMARK    4  A    between atoms: C_11  and  O_12
REMARK    5  A    between atoms: C_17  and  O_18
REMARK    6  A    between atoms: O_18  and  C_19
REMARK    7  A    between atoms: C_21  and  C_22
REMARK    8  A    between atoms: C_22  and  O_23
REMARK    9  A    between atoms: C_24  and  O_25
REMARK   10  A    between atoms: C_26  and  O_27
REMARK   11  A    between atoms: C_28  and  O_29
REMARK   12  A    between atoms: C_31  and  O_32
REMARK                            x       y       z     vdW  Elec       q    Type
REMARK                         _______ _______ _______ _____ _____    ______ ____
ROOT
ATOM      1  O   UNL     1       3.462   3.608  19.576  0.00  0.00    +0.000 OA
ATOM      2  C   UNL     1       3.640   4.448  18.708  0.00  0.00    +0.000 C 
ATOM      3  C   UNL     1       4.315   4.080  17.409  0.00  0.00    +0.000 C 
ATOM      4  C   UNL     1       5.120   5.262  16.903  0.00  0.00    +0.000 C 
ATOM      5  O   UNL     1       4.294   6.418  16.731  0.00  0.00    +0.000 OA
ATOM      6  C   UNL     1       3.515   6.733  17.805  0.00  0.00    +0.000 A 
ATOM      7  C   UNL     1       3.054   8.049  17.798  0.00  0.00    +0.000 A 
ATOM      8  C   UNL     1       2.278   8.531  18.847  0.00  0.00    +0.000 A 
ATOM      9  C   UNL     1       1.897   7.655  19.865  0.00  0.00    +0.000 A 
ATOM     10  C   UNL     1       2.331   6.320  19.851  0.00  0.00    +0.000 A 
ATOM     11  C   UNL     1       3.158   5.852  18.821  0.00  0.00    +0.000 A 
ENDROOT
BRANCH   4  12
ATOM     12  C   UNL     1       5.725   4.959  15.539  0.00  0.00    +0.000 A 
ATOM     13  C   UNL     1       6.974   5.504  15.166  0.00  0.00    +0.000 A 
ATOM     14  C   UNL     1       7.517   5.231  13.918  0.00  0.00    +0.000 A 
ATOM     15  C   UNL     1       6.831   4.428  13.023  0.00  0.00    +0.000 A 
ATOM     16  C   UNL     1       5.599   3.885  13.376  0.00  0.00    +0.000 A 
ATOM     17  C   UNL     1       5.038   4.143  14.622  0.00  0.00    +0.000 A 
BRANCH  14  18
ATOM     18  O   UNL     1       8.728   5.737  13.533  0.00  0.00    +0.000 OA
ATOM     19  H   UNL     1       9.420   5.328  14.086  0.00  0.00    +0.000 HD
ENDBRANCH  14  18
BRANCH  15  20
ATOM     20  O   UNL     1       7.351   4.154  11.788  0.00  0.00    +0.000 OA
ATOM     21  H   UNL     1       7.000   4.870  11.218  0.00  0.00    +0.000 HD
ENDBRANCH  15  20
BRANCH  16  22
ATOM     22  O   UNL     1       4.925   3.098  12.488  0.00  0.00    +0.000 OA
ATOM     23  H   UNL     1       5.609   2.505  12.112  0.00  0.00    +0.000 HD
ENDBRANCH  16  22
ENDBRANCH   4  12
BRANCH  10  24
ATOM     24  O   UNL     1       1.923   5.485  20.851  0.00  0.00    +0.000 OA
ATOM     25  H   UNL     1       1.983   4.559  20.567  0.00  0.00    +0.000 HD
ENDBRANCH  10  24
BRANCH   8  26
ATOM     26  O   UNL     1       1.837   9.825  18.955  0.00  0.00    +0.000 OA
BRANCH  26  27
ATOM     27  C   UNL     1       0.419   9.990  19.157  0.00  0.00    +0.000 C 
ATOM     28  O   UNL     1      -0.252  10.115  17.899  0.00  0.00    +0.000 OA
ATOM     29  C   UNL     1      -1.673  10.233  18.042  0.00  0.00    +0.000 C 
ATOM     30  C   UNL     1      -2.010  11.539  18.771  0.00  0.00    +0.000 C 
ATOM     31  C   UNL     1      -1.316  11.550  20.143  0.00  0.00    +0.000 C 
ATOM     32  C   UNL     1       0.188  11.236  20.041  0.00  0.00    +0.000 C 
BRANCH  30  33
ATOM     33  O   UNL     1      -3.426  11.661  18.904  0.00  0.00    +0.000 OA
ATOM     34  H   UNL     1      -3.857  11.459  18.061  0.00  0.00    +0.000 HD
ENDBRANCH  30  33
BRANCH  31  35
ATOM     35  O   UNL     1      -1.535  12.808  20.792  0.00  0.00    +0.000 OA
ATOM     36  H   UNL     1      -2.170  12.672  21.520  0.00  0.00    +0.000 HD
ENDBRANCH  31  35
BRANCH  32  37
ATOM     37  O   UNL     1       0.732  11.039  21.358  0.00  0.00    +0.000 OA
ATOM     38  H   UNL     1       0.009  11.017  22.008  0.00  0.00    +0.000 HD
ENDBRANCH  32  37
BRANCH  29  39
ATOM     39  C   UNL     1      -2.318  10.174  16.649  0.00  0.00    +0.000 C 
BRANCH  39  40
ATOM     40  O   UNL     1      -2.353  11.461  16.038  0.00  0.00    +0.000 OA
ATOM     41  H   UNL     1      -2.151  11.319  15.094  0.00  0.00    +0.000 HD
ENDBRANCH  39  40
ENDBRANCH  29  39
ENDBRANCH  26  27
ENDBRANCH   8  26
TORSDOF 12
ENDMDL
MODEL 2
REMARK VINA RESULT:      -7.8      0.241      1.460
REMARK  Name = 
REMARK  12 active torsions:
REMARK  status: ('A' for Active; 'I' for Inactive)
REMARK    1  A    between atoms: C_4  and  C_5
REMARK    2  A    between atoms: C_7  and  O_8
REMARK    3  A    between atoms: C_9  and  O_10
REMARK    4  A    between atoms: C_11  and  O_12
REMARK    5  A    between atoms: C_17  and  O_18
REMARK    6  A    between atoms: O_18  and  C_19
REMARK    7  A    between atoms: C_21  and  C_22
REMARK    8  A    between atoms: C_22  and  O_23
REMARK    9  A    between atoms: C_24  and  O_25
REMARK   10  A    between atoms: C_26  and  O_27
REMARK   11  A    between atoms: C_28  and  O_29
REMARK   12  A    between atoms: C_31  and  O_32
REMARK                            x       y       z     vdW  Elec       q    Type
REMARK                         _______ _______ _______ _____ _____    ______ ____
ROOT
ATOM      1  O   UNL     1       3.598   3.788  19.719  0.00  0.00    +0.000 OA
ATOM      2  C   UNL     1       3.720   4.599  18.815  0.00  0.00    +0.000 C 
ATOM      3  C   UNL     1       4.381   4.208  17.516  0.00  0.00    +0.000 C 
ATOM      4  C   UNL     1       5.123   5.402  16.945  0.00  0.00    +0.000 C 
ATOM      5  O   UNL     1       4.243   6.514  16.748  0.00  0.00    +0.000 OA
ATOM      6  C   UNL     1       3.475   6.839  17.827  0.00  0.00    +0.000 A 
ATOM      7  C   UNL     1       2.957   8.132  17.779  0.00  0.00    +0.000 A 
ATOM      8  C   UNL     1       2.184   8.623  18.826  0.00  0.00    +0.000 A 
ATOM      9  C   UNL     1       1.864   7.772  19.886  0.00  0.00    +0.000 A 
ATOM     10  C   UNL     1       2.355   6.458  19.914  0.00  0.00    +0.000 A 
ATOM     11  C   UNL     1       3.179   5.984  18.885  0.00  0.00    +0.000 A 
ENDROOT
BRANCH   4  12
ATOM     12  C   UNL     1       5.711   5.071  15.580  0.00  0.00    +0.000 A 
ATOM     13  C   UNL     1       5.016   4.234  14.679  0.00  0.00    +0.000 A 
ATOM     14  C   UNL     1       5.561   3.928  13.439  0.00  0.00    +0.000 A 
ATOM     15  C   UNL     1       6.798   4.436  13.081  0.00  0.00    +0.000 A 
ATOM     16  C   UNL     1       7.495   5.260  13.959  0.00  0.00    +0.000 A 
ATOM     17  C   UNL     1       6.967   5.581  15.204  0.00  0.00    +0.000 A 
BRANCH  14  18
ATOM     18  O   UNL     1       4.907   3.128  12.543  0.00  0.00    +0.000 OA
ATOM     19  H   UNL     1       3.949   3.290  12.631  0.00  0.00    +0.000 HD
ENDBRANCH  14  18
BRANCH  15  20
ATOM     20  O   UNL     1       7.350   4.139  11.865  0.00  0.00    +0.000 OA
ATOM     21  H   UNL     1       6.656   3.618  11.409  0.00  0.00    +0.000 HD
ENDBRANCH  15  20
BRANCH  16  22
ATOM     22  O   UNL     1       8.717   5.752  13.602  0.00  0.00    +0.000 OA
ATOM     23  H   UNL     1       9.021   5.164  12.880  0.00  0.00    +0.000 HD
ENDBRANCH  16  22
ENDBRANCH   4  12
BRANCH  10  24
ATOM     24  O   UNL     1       2.006   5.646  20.956  0.00  0.00    +0.000 OA
ATOM     25  H   UNL     1       1.137   5.897  21.306  0.00  0.00    +0.000 HD
ENDBRANCH  10  24
BRANCH   8  26
ATOM     26  O   UNL     1       1.689   9.899  18.893  0.00  0.00    +0.000 OA
BRANCH  26  27
ATOM     27  C   UNL     1       0.256  10.012  19.008  0.00  0.00    +0.000 C 
ATOM     28  O   UNL     1      -0.343  10.084  17.710  0.00  0.00    +0.000 OA
ATOM     29  C   UNL     1      -1.773  10.148  17.766  0.00  0.00    +0.000 C 
ATOM     30  C   UNL     1      -2.203  11.454  18.442  0.00  0.00    +0.000 C 
ATOM     31  C   UNL     1      -1.594  11.523  19.853  0.00  0.00    +0.000 C 
ATOM     32  C   UNL     1      -0.075  11.266  19.847  0.00  0.00    +0.000 C 
BRANCH  30  33
ATOM     33  O   UNL     1      -3.629  11.523  18.489  0.00  0.00    +0.000 OA
ATOM     34  H   UNL     1      -4.012  10.816  17.950  0.00  0.00    +0.000 HD
ENDBRANCH  30  33
BRANCH  31  35
ATOM     35  O   UNL     1      -1.899  12.784  20.458  0.00  0.00    +0.000 OA
ATOM     36  H   UNL     1      -1.824  12.686  21.425  0.00  0.00    +0.000 HD
ENDBRANCH  31  35
BRANCH  32  37
ATOM     37  O   UNL     1       0.396  11.119  21.198  0.00  0.00    +0.000 OA
ATOM     38  H   UNL     1       0.723  11.976  21.523  0.00  0.00    +0.000 HD
ENDBRANCH  32  37
BRANCH  29  39
ATOM     39  C   UNL     1      -2.331  10.033  16.339  0.00  0.00    +0.000 C 
BRANCH  39  40
ATOM     40  O   UNL     1      -2.565  11.318  15.768  0.00  0.00    +0.000 OA
ATOM     41  H   UNL     1      -2.359  11.235  14.818  0.00  0.00    +0.000 HD
ENDBRANCH  39  40
ENDBRANCH  29  39
ENDBRANCH  26  27
ENDBRANCH   8  26
TORSDOF 12
ENDMDL
MODEL 3
REMARK VINA RESULT:      -7.7      3.730      6.138
REMARK  Name = 
REMARK  12 active torsions:
REMARK  status: ('A' for Active; 'I' for Inactive)
REMARK    1  A    between atoms: C_4  and  C_5
REMARK    2  A    between atoms: C_7  and  O_8
REMARK    3  A    between atoms: C_9  and  O_10
REMARK    4  A    between atoms: C_11  and  O_12
REMARK    5  A    between atoms: C_17  and  O_18
REMARK    6  A    between atoms: O_18  and  C_19
REMARK    7  A    between atoms: C_21  and  C_22
REMARK    8  A    between atoms: C_22  and  O_23
REMARK    9  A    between atoms: C_24  and  O_25
REMARK   10  A    between atoms: C_26  and  O_27
REMARK   11  A    between atoms: C_28  and  O_29
REMARK   12  A    between atoms: C_31  and  O_32
REMARK                            x       y       z     vdW  Elec       q    Type
REMARK                         _______ _______ _______ _____ _____    ______ ____
ROOT
ATOM      1  O   UNL     1       1.858   9.364  17.161  0.00  0.00    +0.000 OA
ATOM      2  C   UNL     1       1.865   8.831  18.259  0.00  0.00    +0.000 C 
ATOM      3  C   UNL     1       2.590   7.525  18.475  0.00  0.00    +0.000 C 
ATOM      4  C   UNL     1       1.852   6.702  19.515  0.00  0.00    +0.000 C 
ATOM      5  O   UNL     1       1.725   7.418  20.748  0.00  0.00    +0.000 OA
ATOM      6  C   UNL     1       1.230   8.683  20.631  0.00  0.00    +0.000 A 
ATOM      7  C   UNL     1       0.723   9.201  21.822  0.00  0.00    +0.000 A 
ATOM      8  C   UNL     1       0.149  10.467  21.854  0.00  0.00    +0.000 A 
ATOM      9  C   UNL     1       0.165  11.247  20.696  0.00  0.00    +0.000 A 
ATOM     10  C   UNL     1       0.711  10.739  19.507  0.00  0.00    +0.000 A 
ATOM     11  C   UNL     1       1.239   9.441  19.464  0.00  0.00    +0.000 A 
ENDROOT
BRANCH   4  12
ATOM     12  C   UNL     1       2.617   5.425  19.835  0.00  0.00    +0.000 A 
ATOM     13  C   UNL     1       3.833   5.129  19.180  0.00  0.00    +0.000 A 
ATOM     14  C   UNL     1       4.522   3.959  19.470  0.00  0.00    +0.000 A 
ATOM     15  C   UNL     1       4.015   3.067  20.399  0.00  0.00    +0.000 A 
ATOM     16  C   UNL     1       2.817   3.344  21.050  0.00  0.00    +0.000 A 
ATOM     17  C   UNL     1       2.112   4.512  20.777  0.00  0.00    +0.000 A 
BRANCH  14  18
ATOM     18  O   UNL     1       5.706   3.650  18.859  0.00  0.00    +0.000 OA
ATOM     19  H   UNL     1       6.393   4.252  19.202  0.00  0.00    +0.000 HD
ENDBRANCH  14  18
BRANCH  15  20
ATOM     20  O   UNL     1       4.679   1.907  20.691  0.00  0.00    +0.000 OA
ATOM     21  H   UNL     1       4.813   1.483  19.818  0.00  0.00    +0.000 HD
ENDBRANCH  15  20
BRANCH  16  22
ATOM     22  O   UNL     1       2.319   2.458  21.961  0.00  0.00    +0.000 OA
ATOM     23  H   UNL     1       3.107   2.122  22.438  0.00  0.00    +0.000 HD
ENDBRANCH  16  22
ENDBRANCH   4  12
BRANCH  10  24
ATOM     24  O   UNL     1       0.730  11.535  18.398  0.00  0.00    +0.000 OA
ATOM     25  H   UNL     1       0.098  11.212  17.736  0.00  0.00    +0.000 HD
ENDBRANCH  10  24
BRANCH   8  26
ATOM     26  O   UNL     1      -0.432  11.028  22.962  0.00  0.00    +0.000 OA
BRANCH  26  27
ATOM     27  C   UNL     1      -1.025  12.328  22.770  0.00  0.00    +0.000 C 
ATOM     28  O   UNL     1      -0.037  13.353  22.914  0.00  0.00    +0.000 OA
ATOM     29  C   UNL     1      -0.566  14.664  22.684  0.00  0.00    +0.000 C 
ATOM     30  C   UNL     1      -1.602  14.998  23.763  0.00  0.00    +0.000 C 
ATOM     31  C   UNL     1      -2.720  13.942  23.741  0.00  0.00    +0.000 C 
ATOM     32  C   UNL     1      -2.168  12.505  23.795  0.00  0.00    +0.000 C 
BRANCH  30  33
ATOM     33  O   UNL     1      -2.122  16.309  23.540  0.00  0.00    +0.000 OA
ATOM     34  H   UNL     1      -2.631  16.599  24.310  0.00  0.00    +0.000 HD
ENDBRANCH  30  33
BRANCH  31  35
ATOM     35  O   UNL     1      -3.640  14.179  24.812  0.00  0.00    +0.000 OA
ATOM     36  H   UNL     1      -4.368  14.734  24.475  0.00  0.00    +0.000 HD
ENDBRANCH  31  35
BRANCH  32  37
ATOM     37  O   UNL     1      -3.232  11.568  23.545  0.00  0.00    +0.000 OA
ATOM     38  H   UNL     1      -3.737  11.426  24.364  0.00  0.00    +0.000 HD
ENDBRANCH  32  37
BRANCH  29  39
ATOM     39  C   UNL     1       0.593  15.673  22.674  0.00  0.00    +0.000 C 
BRANCH  39  40
ATOM     40  O   UNL     1       0.751  16.294  23.947  0.00  0.00    +0.000 OA
ATOM     41  H   UNL     1       0.346  17.179  23.870  0.00  0.00    +0.000 HD
ENDBRANCH  39  40
ENDBRANCH  29  39
ENDBRANCH  26  27
ENDBRANCH   8  26
TORSDOF 12
ENDMDL
MODEL 4
REMARK VINA RESULT:      -7.7      3.687      6.205
REMARK  Name = 
REMARK  12 active torsions:
REMARK  status: ('A' for Active; 'I' for Inactive)
REMARK    1  A    between atoms: C_4  and  C_5
REMARK    2  A    between atoms: C_7  and  O_8
REMARK    3  A    between atoms: C_9  and  O_10
REMARK    4  A    between atoms: C_11  and  O_12
REMARK    5  A    between atoms: C_17  and  O_18
REMARK    6  A    between atoms: O_18  and  C_19
REMARK    7  A    between atoms: C_21  and  C_22
REMARK    8  A    between atoms: C_22  and  O_23
REMARK    9  A    between atoms: C_24  and  O_25
REMARK   10  A    between atoms: C_26  and  O_27
REMARK   11  A    between atoms: C_28  and  O_29
REMARK   12  A    between atoms: C_31  and  O_32
REMARK                            x       y       z     vdW  Elec       q    Type
REMARK                         _______ _______ _______ _____ _____    ______ ____
ROOT
ATOM      1  O   UNL     1       1.874   9.358  17.146  0.00  0.00    +0.000 OA
ATOM      2  C   UNL     1       1.882   8.820  18.242  0.00  0.00    +0.000 C 
ATOM      3  C   UNL     1       2.605   7.513  18.451  0.00  0.00    +0.000 C 
ATOM      4  C   UNL     1       1.868   6.686  19.489  0.00  0.00    +0.000 C 
ATOM      5  O   UNL     1       1.744   7.396  20.725  0.00  0.00    +0.000 OA
ATOM      6  C   UNL     1       1.250   8.662  20.614  0.00  0.00    +0.000 A 
ATOM      7  C   UNL     1       0.744   9.175  21.808  0.00  0.00    +0.000 A 
ATOM      8  C   UNL     1       0.171  10.442  21.846  0.00  0.00    +0.000 A 
ATOM      9  C   UNL     1       0.187  11.226  20.692  0.00  0.00    +0.000 A 
ATOM     10  C   UNL     1       0.731  10.723  19.500  0.00  0.00    +0.000 A 
ATOM     11  C   UNL     1       1.258   9.426  19.450  0.00  0.00    +0.000 A 
ENDROOT
BRANCH   4  12
ATOM     12  C   UNL     1       2.632   5.407  19.802  0.00  0.00    +0.000 A 
ATOM     13  C   UNL     1       2.191   4.534  20.821  0.00  0.00    +0.000 A 
ATOM     14  C   UNL     1       2.897   3.373  21.109  0.00  0.00    +0.000 A 
ATOM     15  C   UNL     1       4.047   3.068  20.401  0.00  0.00    +0.000 A 
ATOM     16  C   UNL     1       4.495   3.919  19.396  0.00  0.00    +0.000 A 
ATOM     17  C   UNL     1       3.802   5.085  19.090  0.00  0.00    +0.000 A 
BRANCH  14  18
ATOM     18  O   UNL     1       2.489   2.505  22.083  0.00  0.00    +0.000 OA
ATOM     19  H   UNL     1       2.506   1.602  21.715  0.00  0.00    +0.000 HD
ENDBRANCH  14  18
BRANCH  15  20
ATOM     20  O   UNL     1       4.756   1.930  20.676  0.00  0.00    +0.000 OA
ATOM     21  H   UNL     1       5.490   2.240  21.247  0.00  0.00    +0.000 HD
ENDBRANCH  15  20
BRANCH  16  22
ATOM     22  O   UNL     1       5.632   3.615  18.706  0.00  0.00    +0.000 OA
ATOM     23  H   UNL     1       5.329   3.060  17.957  0.00  0.00    +0.000 HD
ENDBRANCH  16  22
ENDBRANCH   4  12
BRANCH  10  24
ATOM     24  O   UNL     1       0.749  11.525  18.394  0.00  0.00    +0.000 OA
ATOM     25  H   UNL     1       0.920  12.446  18.644  0.00  0.00    +0.000 HD
ENDBRANCH  10  24
BRANCH   8  26
ATOM     26  O   UNL     1      -0.408  10.999  22.957  0.00  0.00    +0.000 OA
BRANCH  26  27
ATOM     27  C   UNL     1      -1.013  12.293  22.769  0.00  0.00    +0.000 C 
ATOM     28  O   UNL     1      -0.033  13.326  22.906  0.00  0.00    +0.000 OA
ATOM     29  C   UNL     1      -0.575  14.633  22.679  0.00  0.00    +0.000 C 
ATOM     30  C   UNL     1      -1.606  14.959  23.764  0.00  0.00    +0.000 C 
ATOM     31  C   UNL     1      -2.716  13.893  23.749  0.00  0.00    +0.000 C 
ATOM     32  C   UNL     1      -2.151  12.461  23.800  0.00  0.00    +0.000 C 
BRANCH  30  33
ATOM     33  O   UNL     1      -2.139  16.265  23.543  0.00  0.00    +0.000 OA
ATOM     34  H   UNL     1      -1.943  16.835  24.301  0.00  0.00    +0.000 HD
ENDBRANCH  30  33
BRANCH  31  35
ATOM     35  O   UNL     1      -3.631  14.123  24.825  0.00  0.00    +0.000 OA
ATOM     36  H   UNL     1      -3.136  14.072  25.665  0.00  0.00    +0.000 HD
ENDBRANCH  31  35
BRANCH  32  37
ATOM     37  O   UNL     1      -3.209  11.515  23.557  0.00  0.00    +0.000 OA
ATOM     38  H   UNL     1      -3.699  11.358  24.382  0.00  0.00    +0.000 HD
ENDBRANCH  32  37
BRANCH  29  39
ATOM     39  C   UNL     1       0.576  15.651  22.661  0.00  0.00    +0.000 C 
BRANCH  39  40
ATOM     40  O   UNL     1       0.748  16.262  23.938  0.00  0.00    +0.000 OA
ATOM     41  H   UNL     1       1.494  15.798  24.363  0.00  0.00    +0.000 HD
ENDBRANCH  39  40
ENDBRANCH  29  39
ENDBRANCH  26  27
ENDBRANCH   8  26
TORSDOF 12
ENDMDL
MODEL 5
REMARK VINA RESULT:      -7.6      3.515     10.738
REMARK  Name = 
REMARK  12 active torsions:
REMARK  status: ('A' for Active; 'I' for Inactive)
REMARK    1  A    between atoms: C_4  and  C_5
REMARK    2  A    between atoms: C_7  and  O_8
REMARK    3  A    between atoms: C_9  and  O_10
REMARK    4  A    between atoms: C_11  and  O_12
REMARK    5  A    between atoms: C_17  and  O_18
REMARK    6  A    between atoms: O_18  and  C_19
REMARK    7  A    between atoms: C_21  and  C_22
REMARK    8  A    between atoms: C_22  and  O_23
REMARK    9  A    between atoms: C_24  and  O_25
REMARK   10  A    between atoms: C_26  and  O_27
REMARK   11  A    between atoms: C_28  and  O_29
REMARK   12  A    between atoms: C_31  and  O_32
REMARK                            x       y       z     vdW  Elec       q    Type
REMARK                         _______ _______ _______ _____ _____    ______ ____
ROOT
ATOM      1  O   UNL     1       0.740  12.231  18.075  0.00  0.00    +0.000 OA
ATOM      2  C   UNL     1       0.437  11.705  19.134  0.00  0.00    +0.000 C 
ATOM      3  C   UNL     1      -0.494  12.399  20.098  0.00  0.00    +0.000 C 
ATOM      4  C   UNL     1      -0.105  12.045  21.521  0.00  0.00    +0.000 C 
ATOM      5  O   UNL     1      -0.129  10.629  21.729  0.00  0.00    +0.000 OA
ATOM      6  C   UNL     1       0.553   9.899  20.800  0.00  0.00    +0.000 A 
ATOM      7  C   UNL     1       0.879   8.612  21.225  0.00  0.00    +0.000 A 
ATOM      8  C   UNL     1       1.608   7.760  20.403  0.00  0.00    +0.000 A 
ATOM      9  C   UNL     1       1.936   8.182  19.113  0.00  0.00    +0.000 A 
ATOM     10  C   UNL     1       1.574   9.464  18.673  0.00  0.00    +0.000 A 
ATOM     11  C   UNL     1       0.887  10.341  19.523  0.00  0.00    +0.000 A 
ENDROOT
BRANCH   4  12
ATOM     12  C   UNL     1      -1.092  12.642  22.515  0.00  0.00    +0.000 A 
ATOM     13  C   UNL     1      -0.864  13.917  23.081  0.00  0.00    +0.000 A 
ATOM     14  C   UNL     1      -1.763  14.453  23.993  0.00  0.00    +0.000 A 
ATOM     15  C   UNL     1      -2.887  13.735  24.363  0.00  0.00    +0.000 A 
ATOM     16  C   UNL     1      -3.124  12.478  23.815  0.00  0.00    +0.000 A 
ATOM     17  C   UNL     1      -2.238  11.923  22.898  0.00  0.00    +0.000 A 
BRANCH  14  18
ATOM     18  O   UNL     1      -1.573  15.688  24.550  0.00  0.00    +0.000 OA
ATOM     19  H   UNL     1      -1.206  15.566  25.445  0.00  0.00    +0.000 HD
ENDBRANCH  14  18
BRANCH  15  20
ATOM     20  O   UNL     1      -3.780  14.248  25.264  0.00  0.00    +0.000 OA
ATOM     21  H   UNL     1      -3.246  14.873  25.798  0.00  0.00    +0.000 HD
ENDBRANCH  15  20
BRANCH  16  22
ATOM     22  O   UNL     1      -4.231  11.773  24.188  0.00  0.00    +0.000 OA
ATOM     23  H   UNL     1      -4.795  12.424  24.657  0.00  0.00    +0.000 HD
ENDBRANCH  16  22
ENDBRANCH   4  12
BRANCH  10  24
ATOM     24  O   UNL     1       1.892   9.837  17.398  0.00  0.00    +0.000 OA
ATOM     25  H   UNL     1       2.663   9.341  17.081  0.00  0.00    +0.000 HD
ENDBRANCH  10  24
BRANCH   8  26
ATOM     26  O   UNL     1       2.027   6.505  20.762  0.00  0.00    +0.000 OA
BRANCH  26  27
ATOM     27  C   UNL     1       2.324   5.606  19.675  0.00  0.00    +0.000 C 
ATOM     28  O   UNL     1       1.440   4.480  19.704  0.00  0.00    +0.000 OA
ATOM     29  C   UNL     1       1.662   3.578  18.613  0.00  0.00    +0.000 C 
ATOM     30  C   UNL     1       3.057   2.955  18.735  0.00  0.00    +0.000 C 
ATOM     31  C   UNL     1       4.114   4.071  18.749  0.00  0.00    +0.000 C 
ATOM     32  C   UNL     1       3.799   5.163  19.789  0.00  0.00    +0.000 C 
BRANCH  30  33
ATOM     33  O   UNL     1       3.273   2.048  17.654  0.00  0.00    +0.000 OA
ATOM     34  H   UNL     1       2.720   2.296  16.899  0.00  0.00    +0.000 HD
ENDBRANCH  30  33
BRANCH  31  35
ATOM     35  O   UNL     1       5.414   3.512  18.969  0.00  0.00    +0.000 OA
ATOM     36  H   UNL     1       6.068   4.236  18.942  0.00  0.00    +0.000 HD
ENDBRANCH  31  35
BRANCH  32  37
ATOM     37  O   UNL     1       4.687   6.280  19.603  0.00  0.00    +0.000 OA
ATOM     38  H   UNL     1       5.589   6.024  19.860  0.00  0.00    +0.000 HD
ENDBRANCH  32  37
BRANCH  29  39
ATOM     39  C   UNL     1       0.557   2.511  18.620  0.00  0.00    +0.000 C 
BRANCH  39  40
ATOM     40  O   UNL     1       1.073   1.233  18.984  0.00  0.00    +0.000 OA
ATOM     41  H   UNL     1       1.873   1.404  19.516  0.00  0.00    +0.000 HD
ENDBRANCH  39  40
ENDBRANCH  29  39
ENDBRANCH  26  27
ENDBRANCH   8  26
TORSDOF 12
ENDMDL
MODEL 6
REMARK VINA RESULT:      -7.6      1.431      2.219
REMARK  Name = 
REMARK  12 active torsions:
REMARK  status: ('A' for Active; 'I' for Inactive)
REMARK    1  A    between atoms: C_4  and  C_5
REMARK    2  A    between atoms: C_7  and  O_8
REMARK    3  A    between atoms: C_9  and  O_10
REMARK    4  A    between atoms: C_11  and  O_12
REMARK    5  A    between atoms: C_17  and  O_18
REMARK    6  A    between atoms: O_18  and  C_19
REMARK    7  A    between atoms: C_21  and  C_22
REMARK    8  A    between atoms: C_22  and  O_23
REMARK    9  A    between atoms: C_24  and  O_25
REMARK   10  A    between atoms: C_26  and  O_27
REMARK   11  A    between atoms: C_28  and  O_29
REMARK   12  A    between atoms: C_31  and  O_32
REMARK                            x       y       z     vdW  Elec       q    Type
REMARK                         _______ _______ _______ _____ _____    ______ ____
ROOT
ATOM      1  O   UNL     1       1.792   2.192  18.373  0.00  0.00    +0.000 OA
ATOM      2  C   UNL     1       2.393   3.198  18.031  0.00  0.00    +0.000 C 
ATOM      3  C   UNL     1       3.213   3.211  16.765  0.00  0.00    +0.000 C 
ATOM      4  C   UNL     1       4.413   4.122  16.947  0.00  0.00    +0.000 C 
ATOM      5  O   UNL     1       4.008   5.449  17.298  0.00  0.00    +0.000 OA
ATOM      6  C   UNL     1       3.127   5.527  18.335  0.00  0.00    +0.000 A 
ATOM      7  C   UNL     1       3.070   6.786  18.932  0.00  0.00    +0.000 A 
ATOM      8  C   UNL     1       2.244   7.012  20.027  0.00  0.00    +0.000 A 
ATOM      9  C   UNL     1       1.409   5.983  20.468  0.00  0.00    +0.000 A 
ATOM     10  C   UNL     1       1.440   4.727  19.843  0.00  0.00    +0.000 A 
ATOM     11  C   UNL     1       2.313   4.486  18.774  0.00  0.00    +0.000 A 
ENDROOT
BRANCH   4  12
ATOM     12  C   UNL     1       5.203   4.240  15.651  0.00  0.00    +0.000 A 
ATOM     13  C   UNL     1       4.742   3.623  14.466  0.00  0.00    +0.000 A 
ATOM     14  C   UNL     1       5.471   3.728  13.289  0.00  0.00    +0.000 A 
ATOM     15  C   UNL     1       6.663   4.432  13.271  0.00  0.00    +0.000 A 
ATOM     16  C   UNL     1       7.130   5.044  14.430  0.00  0.00    +0.000 A 
ATOM     17  C   UNL     1       6.414   4.954  15.619  0.00  0.00    +0.000 A 
BRANCH  14  18
ATOM     18  O   UNL     1       5.046   3.149  12.125  0.00  0.00    +0.000 OA
ATOM     19  H   UNL     1       4.504   2.370  12.351  0.00  0.00    +0.000 HD
ENDBRANCH  14  18
BRANCH  15  20
ATOM     20  O   UNL     1       7.395   4.540  12.120  0.00  0.00    +0.000 OA
ATOM     21  H   UNL     1       7.966   3.744  12.126  0.00  0.00    +0.000 HD
ENDBRANCH  15  20
BRANCH  16  22
ATOM     22  O   UNL     1       8.308   5.732  14.407  0.00  0.00    +0.000 OA
ATOM     23  H   UNL     1       8.086   6.592  13.991  0.00  0.00    +0.000 HD
ENDBRANCH  16  22
ENDBRANCH   4  12
BRANCH  10  24
ATOM     24  O   UNL     1       0.595   3.750  20.286  0.00  0.00    +0.000 OA
ATOM     25  H   UNL     1       1.099   3.006  20.653  0.00  0.00    +0.000 HD
ENDBRANCH  10  24
BRANCH   8  26
ATOM     26  O   UNL     1       2.173   8.196  20.714  0.00  0.00    +0.000 OA
BRANCH  26  27
ATOM     27  C   UNL     1       0.881   8.835  20.733  0.00  0.00    +0.000 C 
ATOM     28  O   UNL     1       0.587   9.400  19.451  0.00  0.00    +0.000 OA
ATOM     29  C   UNL     1      -0.710  10.007  19.401  0.00  0.00    +0.000 C 
ATOM     30  C   UNL     1      -0.753  11.209  20.352  0.00  0.00    +0.000 C 
ATOM     31  C   UNL     1      -0.419  10.742  21.779  0.00  0.00    +0.000 C 
ATOM     32  C   UNL     1       0.881   9.917  21.835  0.00  0.00    +0.000 C 
BRANCH  30  33
ATOM     33  O   UNL     1      -2.043  11.819  20.295  0.00  0.00    +0.000 OA
ATOM     34  H   UNL     1      -2.474  11.604  19.455  0.00  0.00    +0.000 HD
ENDBRANCH  30  33
BRANCH  31  35
ATOM     35  O   UNL     1      -0.351  11.869  22.660  0.00  0.00    +0.000 OA
ATOM     36  H   UNL     1      -1.261  12.122  22.905  0.00  0.00    +0.000 HD
ENDBRANCH  31  35
BRANCH  32  37
ATOM     37  O   UNL     1       1.022   9.324  23.138  0.00  0.00    +0.000 OA
ATOM     38  H   UNL     1       1.158  10.023  23.800  0.00  0.00    +0.000 HD
ENDBRANCH  32  37
BRANCH  29  39
ATOM     39  C   UNL     1      -1.011  10.416  17.951  0.00  0.00    +0.000 C 
BRANCH  39  40
ATOM     40  O   UNL     1      -0.888  11.825  17.773  0.00  0.00    +0.000 OA
ATOM     41  H   UNL     1      -0.748  11.966  16.817  0.00  0.00    +0.000 HD
ENDBRANCH  39  40
ENDBRANCH  29  39
ENDBRANCH  26  27
ENDBRANCH   8  26
TORSDOF 12
ENDMDL
MODEL 7
REMARK VINA RESULT:      -7.6      3.240      9.696
REMARK  Name = 
REMARK  12 active torsions:
REMARK  status: ('A' for Active; 'I' for Inactive)
REMARK    1  A    between atoms: C_4  and  C_5
REMARK    2  A    between atoms: C_7  and  O_8
REMARK    3  A    between atoms: C_9  and  O_10
REMARK    4  A    between atoms: C_11  and  O_12
REMARK    5  A    between atoms: C_17  and  O_18
REMARK    6  A    between atoms: O_18  and  C_19
REMARK    7  A    between atoms: C_21  and  C_22
REMARK    8  A    between atoms: C_22  and  O_23
REMARK    9  A    between atoms: C_24  and  O_25
REMARK   10  A    between atoms: C_26  and  O_27
REMARK   11  A    between atoms: C_28  and  O_29
REMARK   12  A    between atoms: C_31  and  O_32
REMARK                            x       y       z     vdW  Elec       q    Type
REMARK                         _______ _______ _______ _____ _____    ______ ____
ROOT
ATOM      1  O   UNL     1      -0.002  10.963  22.338  0.00  0.00    +0.000 OA
ATOM      2  C   UNL     1       0.502  11.252  21.265  0.00  0.00    +0.000 C 
ATOM      3  C   UNL     1       0.696  12.696  20.871  0.00  0.00    +0.000 C 
ATOM      4  C   UNL     1       0.540  12.838  19.369  0.00  0.00    +0.000 C 
ATOM      5  O   UNL     1       1.463  11.996  18.670  0.00  0.00    +0.000 OA
ATOM      6  C   UNL     1       1.478  10.695  19.076  0.00  0.00    +0.000 A 
ATOM      7  C   UNL     1       2.039   9.821  18.146  0.00  0.00    +0.000 A 
ATOM      8  C   UNL     1       2.091   8.455  18.401  0.00  0.00    +0.000 A 
ATOM      9  C   UNL     1       1.652   7.982  19.639  0.00  0.00    +0.000 A 
ATOM     10  C   UNL     1       1.122   8.868  20.590  0.00  0.00    +0.000 A 
ATOM     11  C   UNL     1       1.020  10.236  20.308  0.00  0.00    +0.000 A 
ENDROOT
BRANCH   4  12
ATOM     12  C   UNL     1       0.837  14.264  18.927  0.00  0.00    +0.000 A 
ATOM     13  C   UNL     1       2.161  14.673  18.651  0.00  0.00    +0.000 A 
ATOM     14  C   UNL     1       2.427  15.978  18.256  0.00  0.00    +0.000 A 
ATOM     15  C   UNL     1       1.394  16.892  18.140  0.00  0.00    +0.000 A 
ATOM     16  C   UNL     1       0.085  16.504  18.410  0.00  0.00    +0.000 A 
ATOM     17  C   UNL     1      -0.204  15.202  18.804  0.00  0.00    +0.000 A 
BRANCH  14  18
ATOM     18  O   UNL     1       3.697  16.399  17.974  0.00  0.00    +0.000 OA
ATOM     19  H   UNL     1       3.935  17.099  18.610  0.00  0.00    +0.000 HD
ENDBRANCH  14  18
BRANCH  15  20
ATOM     20  O   UNL     1       1.641  18.182  17.758  0.00  0.00    +0.000 OA
ATOM     21  H   UNL     1       2.595  18.186  17.535  0.00  0.00    +0.000 HD
ENDBRANCH  15  20
BRANCH  16  22
ATOM     22  O   UNL     1      -0.928  17.411  18.300  0.00  0.00    +0.000 OA
ATOM     23  H   UNL     1      -1.003  17.811  19.192  0.00  0.00    +0.000 HD
ENDBRANCH  16  22
ENDBRANCH   4  12
BRANCH  10  24
ATOM     24  O   UNL     1       0.720   8.373  21.798  0.00  0.00    +0.000 OA
ATOM     25  H   UNL     1      -0.245   8.278  21.823  0.00  0.00    +0.000 HD
ENDBRANCH  10  24
BRANCH   8  26
ATOM     26  O   UNL     1       2.564   7.519  17.520  0.00  0.00    +0.000 OA
BRANCH  26  27
ATOM     27  C   UNL     1       3.634   6.683  18.005  0.00  0.00    +0.000 C 
ATOM     28  O   UNL     1       4.879   7.075  17.416  0.00  0.00    +0.000 OA
ATOM     29  C   UNL     1       5.985   6.306  17.903  0.00  0.00    +0.000 C 
ATOM     30  C   UNL     1       5.822   4.843  17.477  0.00  0.00    +0.000 C 
ATOM     31  C   UNL     1       4.491   4.298  18.023  0.00  0.00    +0.000 C 
ATOM     32  C   UNL     1       3.299   5.211  17.676  0.00  0.00    +0.000 C 
BRANCH  30  33
ATOM     33  O   UNL     1       6.929   4.078  17.954  0.00  0.00    +0.000 OA
ATOM     34  H   UNL     1       7.434   4.594  18.599  0.00  0.00    +0.000 HD
ENDBRANCH  30  33
BRANCH  31  35
ATOM     35  O   UNL     1       4.273   2.966  17.545  0.00  0.00    +0.000 OA
ATOM     36  H   UNL     1       5.068   2.683  17.055  0.00  0.00    +0.000 HD
ENDBRANCH  31  35
BRANCH  32  37
ATOM     37  O   UNL     1       2.131   4.777  18.395  0.00  0.00    +0.000 OA
ATOM     38  H   UNL     1       1.614   5.552  18.673  0.00  0.00    +0.000 HD
ENDBRANCH  32  37
BRANCH  29  39
ATOM     39  C   UNL     1       7.288   6.916  17.365  0.00  0.00    +0.000 C 
BRANCH  39  40
ATOM     40  O   UNL     1       7.639   6.355  16.101  0.00  0.00    +0.000 OA
ATOM     41  H   UNL     1       7.393   7.021  15.432  0.00  0.00    +0.000 HD
ENDBRANCH  39  40
ENDBRANCH  29  39
ENDBRANCH  26  27
ENDBRANCH   8  26
TORSDOF 12
ENDMDL
MODEL 8
REMARK VINA RESULT:      -7.6      3.615     10.816
REMARK  Name = 
REMARK  12 active torsions:
REMARK  status: ('A' for Active; 'I' for Inactive)
REMARK    1  A    between atoms: C_4  and  C_5
REMARK    2  A    between atoms: C_7  and  O_8
REMARK    3  A    between atoms: C_9  and  O_10
REMARK    4  A    between atoms: C_11  and  O_12
REMARK    5  A    between atoms: C_17  and  O_18
REMARK    6  A    between atoms: O_18  and  C_19
REMARK    7  A    between atoms: C_21  and  C_22
REMARK    8  A    between atoms: C_22  and  O_23
REMARK    9  A    between atoms: C_24  and  O_25
REMARK   10  A    between atoms: C_26  and  O_27
REMARK   11  A    between atoms: C_28  and  O_29
REMARK   12  A    between atoms: C_31  and  O_32
REMARK                            x       y       z     vdW  Elec       q    Type
REMARK                         _______ _______ _______ _____ _____    ______ ____
ROOT
ATOM      1  O   UNL     1       0.553  12.057  18.034  0.00  0.00    +0.000 OA
ATOM      2  C   UNL     1       0.311  11.568  19.126  0.00  0.00    +0.000 C 
ATOM      3  C   UNL     1      -0.612  12.267  20.095  0.00  0.00    +0.000 C 
ATOM      4  C   UNL     1      -0.156  11.993  21.516  0.00  0.00    +0.000 C 
ATOM      5  O   UNL     1      -0.114  10.587  21.785  0.00  0.00    +0.000 OA
ATOM      6  C   UNL     1       0.563   9.844  20.864  0.00  0.00    +0.000 A 
ATOM      7  C   UNL     1       0.957   8.591  21.331  0.00  0.00    +0.000 A 
ATOM      8  C   UNL     1       1.689   7.733  20.519  0.00  0.00    +0.000 A 
ATOM      9  C   UNL     1       1.952   8.109  19.200  0.00  0.00    +0.000 A 
ATOM     10  C   UNL     1       1.521   9.355  18.719  0.00  0.00    +0.000 A 
ATOM     11  C   UNL     1       0.831  10.241  19.557  0.00  0.00    +0.000 A 
ENDROOT
BRANCH   4  12
ATOM     12  C   UNL     1      -1.129  12.595  22.520  0.00  0.00    +0.000 A 
ATOM     13  C   UNL     1      -2.292  11.892  22.910  0.00  0.00    +0.000 A 
ATOM     14  C   UNL     1      -3.180  12.450  23.820  0.00  0.00    +0.000 A 
ATOM     15  C   UNL     1      -2.936  13.706  24.346  0.00  0.00    +0.000 A 
ATOM     16  C   UNL     1      -1.796  14.411  23.971  0.00  0.00    +0.000 A 
ATOM     17  C   UNL     1      -0.892  13.870  23.063  0.00  0.00    +0.000 A 
BRANCH  14  18
ATOM     18  O   UNL     1      -4.308  11.789  24.222  0.00  0.00    +0.000 OA
ATOM     19  H   UNL     1      -4.564  11.166  23.517  0.00  0.00    +0.000 HD
ENDBRANCH  14  18
BRANCH  15  20
ATOM     20  O   UNL     1      -3.804  14.271  25.239  0.00  0.00    +0.000 OA
ATOM     21  H   UNL     1      -3.222  14.729  25.881  0.00  0.00    +0.000 HD
ENDBRANCH  15  20
BRANCH  16  22
ATOM     22  O   UNL     1      -1.564  15.652  24.489  0.00  0.00    +0.000 OA
ATOM     23  H   UNL     1      -2.012  15.646  25.361  0.00  0.00    +0.000 HD
ENDBRANCH  16  22
ENDBRANCH   4  12
BRANCH  10  24
ATOM     24  O   UNL     1       1.777   9.683  17.418  0.00  0.00    +0.000 OA
ATOM     25  H   UNL     1       2.619   9.299  17.129  0.00  0.00    +0.000 HD
ENDBRANCH  10  24
BRANCH   8  26
ATOM     26  O   UNL     1       2.173   6.513  20.916  0.00  0.00    +0.000 OA
BRANCH  26  27
ATOM     27  C   UNL     1       2.330   5.530  19.873  0.00  0.00    +0.000 C 
ATOM     28  O   UNL     1       1.399   4.458  20.055  0.00  0.00    +0.000 OA
ATOM     29  C   UNL     1       1.480   3.476  19.015  0.00  0.00    +0.000 C 
ATOM     30  C   UNL     1       2.848   2.786  19.064  0.00  0.00    +0.000 C 
ATOM     31  C   UNL     1       3.956   3.842  18.910  0.00  0.00    +0.000 C 
ATOM     32  C   UNL     1       3.786   5.015  19.894  0.00  0.00    +0.000 C 
BRANCH  30  33
ATOM     33  O   UNL     1       2.924   1.800  18.034  0.00  0.00    +0.000 OA
ATOM     34  H   UNL     1       3.735   1.922  17.519  0.00  0.00    +0.000 HD
ENDBRANCH  30  33
BRANCH  31  35
ATOM     35  O   UNL     1       5.241   3.228  19.060  0.00  0.00    +0.000 OA
ATOM     36  H   UNL     1       5.781   3.787  19.650  0.00  0.00    +0.000 HD
ENDBRANCH  31  35
BRANCH  32  37
ATOM     37  O   UNL     1       4.708   6.067  19.556  0.00  0.00    +0.000 OA
ATOM     38  H   UNL     1       5.152   5.853  18.718  0.00  0.00    +0.000 HD
ENDBRANCH  32  37
BRANCH  29  39
ATOM     39  C   UNL     1       0.329   2.472  19.190  0.00  0.00    +0.000 C 
BRANCH  39  40
ATOM     40  O   UNL     1       0.251   1.575  18.085  0.00  0.00    +0.000 OA
ATOM     41  H   UNL     1       1.161   1.258  17.929  0.00  0.00    +0.000 HD
ENDBRANCH  39  40
ENDBRANCH  29  39
ENDBRANCH  26  27
ENDBRANCH   8  26
TORSDOF 12
ENDMDL
MODEL 9
REMARK VINA RESULT:      -7.5      3.165      9.778
REMARK  Name = 
REMARK  12 active torsions:
REMARK  status: ('A' for Active; 'I' for Inactive)
REMARK    1  A    between atoms: C_4  and  C_5
REMARK    2  A    between atoms: C_7  and  O_8
REMARK    3  A    between atoms: C_9  and  O_10
REMARK    4  A    between atoms: C_11  and  O_12
REMARK    5  A    between atoms: C_17  and  O_18
REMARK    6  A    between atoms: O_18  and  C_19
REMARK    7  A    between atoms: C_21  and  C_22
REMARK    8  A    between atoms: C_22  and  O_23
REMARK    9  A    between atoms: C_24  and  O_25
REMARK   10  A    between atoms: C_26  and  O_27
REMARK   11  A    between atoms: C_28  and  O_29
REMARK   12  A    between atoms: C_31  and  O_32
REMARK                            x       y       z     vdW  Elec       q    Type
REMARK                         _______ _______ _______ _____ _____    ______ ____
ROOT
ATOM      1  O   UNL     1       0.011  10.800  22.414  0.00  0.00    +0.000 OA
ATOM      2  C   UNL     1       0.496  11.115  21.339  0.00  0.00    +0.000 C 
ATOM      3  C   UNL     1       0.652  12.568  20.962  0.00  0.00    +0.000 C 
ATOM      4  C   UNL     1       0.477  12.725  19.463  0.00  0.00    +0.000 C 
ATOM      5  O   UNL     1       1.413  11.915  18.744  0.00  0.00    +0.000 OA
ATOM      6  C   UNL     1       1.464  10.609  19.134  0.00  0.00    +0.000 A 
ATOM      7  C   UNL     1       2.036   9.761  18.187  0.00  0.00    +0.000 A 
ATOM      8  C   UNL     1       2.124   8.394  18.425  0.00  0.00    +0.000 A 
ATOM      9  C   UNL     1       1.708   7.894  19.660  0.00  0.00    +0.000 A 
ATOM     10  C   UNL     1       1.167   8.755  20.628  0.00  0.00    +0.000 A 
ATOM     11  C   UNL     1       1.029  10.124  20.365  0.00  0.00    +0.000 A 
ENDROOT
BRANCH   4  12
ATOM     12  C   UNL     1       0.735  14.163  19.036  0.00  0.00    +0.000 A 
ATOM     13  C   UNL     1      -0.340  15.045  18.784  0.00  0.00    +0.000 A 
ATOM     14  C   UNL     1      -0.098  16.353  18.387  0.00  0.00    +0.000 A 
ATOM     15  C   UNL     1       1.202  16.801  18.226  0.00  0.00    +0.000 A 
ATOM     16  C   UNL     1       2.270  15.943  18.470  0.00  0.00    +0.000 A 
ATOM     17  C   UNL     1       2.051  14.630  18.871  0.00  0.00    +0.000 A 
BRANCH  14  18
ATOM     18  O   UNL     1      -1.118  17.232  18.144  0.00  0.00    +0.000 OA
ATOM     19  H   UNL     1      -1.849  16.743  17.722  0.00  0.00    +0.000 HD
ENDBRANCH  14  18
BRANCH  15  20
ATOM     20  O   UNL     1       1.456  18.086  17.830  0.00  0.00    +0.000 OA
ATOM     21  H   UNL     1       0.686  18.319  17.271  0.00  0.00    +0.000 HD
ENDBRANCH  15  20
BRANCH  16  22
ATOM     22  O   UNL     1       3.550  16.389  18.304  0.00  0.00    +0.000 OA
ATOM     23  H   UNL     1       3.461  17.210  17.775  0.00  0.00    +0.000 HD
ENDBRANCH  16  22
ENDBRANCH   4  12
BRANCH  10  24
ATOM     24  O   UNL     1       0.790   8.236  21.834  0.00  0.00    +0.000 OA
ATOM     25  H   UNL     1       1.328   8.610  22.549  0.00  0.00    +0.000 HD
ENDBRANCH  10  24
BRANCH   8  26
ATOM     26  O   UNL     1       2.610   7.480  17.526  0.00  0.00    +0.000 OA
BRANCH  26  27
ATOM     27  C   UNL     1       3.689   6.648  17.998  0.00  0.00    +0.000 C 
ATOM     28  O   UNL     1       4.928   7.061  17.414  0.00  0.00    +0.000 OA
ATOM     29  C   UNL     1       6.043   6.296  17.888  0.00  0.00    +0.000 C 
ATOM     30  C   UNL     1       5.894   4.838  17.441  0.00  0.00    +0.000 C 
ATOM     31  C   UNL     1       4.570   4.272  17.981  0.00  0.00    +0.000 C 
ATOM     32  C   UNL     1       3.369   5.178  17.648  0.00  0.00    +0.000 C 
BRANCH  30  33
ATOM     33  O   UNL     1       7.010   4.078  17.905  0.00  0.00    +0.000 OA
ATOM     34  H   UNL     1       6.954   3.171  17.573  0.00  0.00    +0.000 HD
ENDBRANCH  30  33
BRANCH  31  35
ATOM     35  O   UNL     1       4.365   2.945  17.484  0.00  0.00    +0.000 OA
ATOM     36  H   UNL     1       5.112   2.718  16.899  0.00  0.00    +0.000 HD
ENDBRANCH  31  35
BRANCH  32  37
ATOM     37  O   UNL     1       2.206   4.721  18.363  0.00  0.00    +0.000 OA
ATOM     38  H   UNL     1       2.325   3.789  18.614  0.00  0.00    +0.000 HD
ENDBRANCH  32  37
BRANCH  29  39
ATOM     39  C   UNL     1       7.340   6.927  17.356  0.00  0.00    +0.000 C 
BRANCH  39  40
ATOM     40  O   UNL     1       7.690   6.394  16.081  0.00  0.00    +0.000 OA
ATOM     41  H   UNL     1       7.243   5.529  16.016  0.00  0.00    +0.000 HD
ENDBRANCH  39  40
ENDBRANCH  29  39
ENDBRANCH  26  27
ENDBRANCH   8  26
TORSDOF 12
ENDMDL
