MODEL 1
REMARK VINA RESULT:      -7.3      0.000      0.000
REMARK  Name = 
REMARK  10 active torsions:
REMARK  status: ('A' for Active; 'I' for Inactive)
REMARK    1  A    between atoms: C_1  and  N_2
REMARK    2  A    between atoms: C_8  and  S_9
REMARK    3  A    between atoms: S_9  and  C_10
REMARK    4  A    between atoms: N_16  and  C_17
REMARK    5  A    between atoms: C_17  and  C_18
REMARK    6  A    between atoms: C_18  and  O_19
REMARK    7  A    between atoms: O_19  and  P_20
REMARK    8  A    between atoms: P_20  and  O_22
REMARK    9  A    between atoms: P_20  and  O_23
REMARK   10  A    between atoms: N_24  and  C_25
REMARK                            x       y       z     vdW  Elec       q    Type
REMARK                         _______ _______ _______ _____ _____    ______ ____
ROOT
ATOM      1  C   UNL     1       4.871   1.725  20.306  0.00  0.00    +0.000 C 
ATOM      2  N   UNL     1       4.132   2.922  19.961  0.00  0.00    +0.000 N 
ATOM      3  C   UNL     1       4.813   3.945  19.291  0.00  0.00    +0.000 A 
ATOM      4  O   UNL     1       6.020   3.934  19.070  0.00  0.00    +0.000 OA
ATOM      5  C   UNL     1       3.968   5.031  18.922  0.00  0.00    +0.000 A 
ATOM      6  C   UNL     1       2.669   5.112  19.334  0.00  0.00    +0.000 A 
ATOM      7  N   UNL     1       2.090   6.270  18.946  0.00  0.00    +0.000 NA
ATOM      8  C   UNL     1       3.022   6.895  18.258  0.00  0.00    +0.000 A 
ATOM      9  N   UNL     1       4.187   6.154  18.155  0.00  0.00    +0.000 N 
ATOM     10  N   UNL     1       2.078   4.131  20.089  0.00  0.00    +0.000 N 
ATOM     11  C   UNL     1       0.703   4.233  20.544  0.00  0.00    +0.000 C 
ATOM     12  C   UNL     1       2.802   2.984  20.406  0.00  0.00    +0.000 A 
ATOM     13  O   UNL     1       2.302   2.064  21.059  0.00  0.00    +0.000 OA
ENDROOT
BRANCH   8  14
ATOM     14  S   UNL     1       2.781   8.467  17.572  0.00  0.00    +0.000 S 
BRANCH  14  15
ATOM     15  C   UNL     1       1.425   9.082  18.565  0.00  0.00    +0.000 A 
ATOM     16  C   UNL     1       0.306   9.747  18.045  0.00  0.00    +0.000 A 
ATOM     17  C   UNL     1      -0.654  10.305  18.889  0.00  0.00    +0.000 A 
ATOM     18  C   UNL     1      -0.524  10.183  20.268  0.00  0.00    +0.000 A 
ATOM     19  C   UNL     1       0.554   9.482  20.803  0.00  0.00    +0.000 A 
ATOM     20  C   UNL     1       1.522   8.933  19.956  0.00  0.00    +0.000 A 
ENDBRANCH  14  15
ENDBRANCH   8  14
BRANCH   9  21
ATOM     21  C   UNL     1       5.417   6.519  17.461  0.00  0.00    +0.000 C 
BRANCH  21  22
ATOM     22  C   UNL     1       5.366   6.662  15.928  0.00  0.00    +0.000 C 
BRANCH  22  23
ATOM     23  O   UNL     1       5.151   5.406  15.304  0.00  0.00    +0.000 OA
BRANCH  23  24
ATOM     24  P   UNL     1       6.329   4.326  15.241  0.00  0.00    +0.000 P 
ATOM     25  O   UNL     1       7.690   4.846  15.550  0.00  0.00    +0.000 OA
BRANCH  24  26
ATOM     26  O   UNL     1       5.928   3.154  16.249  0.00  0.00    +0.000 OA
ATOM     27  H   UNL     1       6.042   3.464  17.169  0.00  0.00    +0.000 HD
ENDBRANCH  24  26
BRANCH  24  28
ATOM     28  O   UNL     1       6.280   3.603  13.821  0.00  0.00    +0.000 OA
ATOM     29  H   UNL     1       6.751   2.750  13.857  0.00  0.00    +0.000 HD
ENDBRANCH  24  28
ENDBRANCH  23  24
ENDBRANCH  22  23
ENDBRANCH  21  22
ENDBRANCH   9  21
TORSDOF 8
ENDMDL
MODEL 2
REMARK VINA RESULT:      -7.2      0.969      1.357
REMARK  Name = 
REMARK  10 active torsions:
REMARK  status: ('A' for Active; 'I' for Inactive)
REMARK    1  A    between atoms: C_1  and  N_2
REMARK    2  A    between atoms: C_8  and  S_9
REMARK    3  A    between atoms: S_9  and  C_10
REMARK    4  A    between atoms: N_16  and  C_17
REMARK    5  A    between atoms: C_17  and  C_18
REMARK    6  A    between atoms: C_18  and  O_19
REMARK    7  A    between atoms: O_19  and  P_20
REMARK    8  A    between atoms: P_20  and  O_22
REMARK    9  A    between atoms: P_20  and  O_23
REMARK   10  A    between atoms: N_24  and  C_25
REMARK                            x       y       z     vdW  Elec       q    Type
REMARK                         _______ _______ _______ _____ _____    ______ ____
ROOT
ATOM      1  C   UNL     1       4.858   1.398  19.642  0.00  0.00    +0.000 C 
ATOM      2  N   UNL     1       4.041   2.550  19.320  0.00  0.00    +0.000 N 
ATOM      3  C   UNL     1       4.682   3.777  19.119  0.00  0.00    +0.000 A 
ATOM      4  O   UNL     1       5.882   3.960  19.300  0.00  0.00    +0.000 OA
ATOM      5  C   UNL     1       3.792   4.815  18.719  0.00  0.00    +0.000 A 
ATOM      6  C   UNL     1       2.439   4.642  18.699  0.00  0.00    +0.000 A 
ATOM      7  N   UNL     1       1.791   5.785  18.381  0.00  0.00    +0.000 NA
ATOM      8  C   UNL     1       2.748   6.662  18.166  0.00  0.00    +0.000 A 
ATOM      9  N   UNL     1       4.010   6.109  18.299  0.00  0.00    +0.000 N 
ATOM     10  N   UNL     1       1.849   3.446  19.017  0.00  0.00    +0.000 N 
ATOM     11  C   UNL     1       0.408   3.274  19.016  0.00  0.00    +0.000 C 
ATOM     12  C   UNL     1       2.651   2.348  19.317  0.00  0.00    +0.000 A 
ATOM     13  O   UNL     1       2.165   1.244  19.581  0.00  0.00    +0.000 OA
ENDROOT
BRANCH   8  14
ATOM     14  S   UNL     1       2.426   8.315  17.762  0.00  0.00    +0.000 S 
BRANCH  14  15
ATOM     15  C   UNL     1       1.542   8.869  19.216  0.00  0.00    +0.000 A 
ATOM     16  C   UNL     1       1.569   8.209  20.452  0.00  0.00    +0.000 A 
ATOM     17  C   UNL     1       0.761   8.630  21.508  0.00  0.00    +0.000 A 
ATOM     18  C   UNL     1      -0.069   9.735  21.352  0.00  0.00    +0.000 A 
ATOM     19  C   UNL     1      -0.071  10.435  20.148  0.00  0.00    +0.000 A 
ATOM     20  C   UNL     1       0.731  10.006  19.087  0.00  0.00    +0.000 A 
ENDBRANCH  14  15
ENDBRANCH   8  14
BRANCH   9  21
ATOM     21  C   UNL     1       5.297   6.772  18.123  0.00  0.00    +0.000 C 
BRANCH  21  22
ATOM     22  C   UNL     1       5.896   6.820  16.705  0.00  0.00    +0.000 C 
BRANCH  22  23
ATOM     23  O   UNL     1       5.651   5.611  16.005  0.00  0.00    +0.000 OA
BRANCH  23  24
ATOM     24  P   UNL     1       6.873   4.740  15.450  0.00  0.00    +0.000 P 
ATOM     25  O   UNL     1       7.802   5.453  14.530  0.00  0.00    +0.000 OA
BRANCH  24  26
ATOM     26  O   UNL     1       7.655   4.186  16.728  0.00  0.00    +0.000 OA
ATOM     27  H   UNL     1       7.931   4.937  17.289  0.00  0.00    +0.000 HD
ENDBRANCH  24  26
BRANCH  24  28
ATOM     28  O   UNL     1       6.290   3.411  14.790  0.00  0.00    +0.000 OA
ATOM     29  H   UNL     1       5.831   3.619  13.954  0.00  0.00    +0.000 HD
ENDBRANCH  24  28
ENDBRANCH  23  24
ENDBRANCH  22  23
ENDBRANCH  21  22
ENDBRANCH   9  21
TORSDOF 8
ENDMDL
MODEL 3
REMARK VINA RESULT:      -7.2      0.517      1.382
REMARK  Name = 
REMARK  10 active torsions:
REMARK  status: ('A' for Active; 'I' for Inactive)
REMARK    1  A    between atoms: C_1  and  N_2
REMARK    2  A    between atoms: C_8  and  S_9
REMARK    3  A    between atoms: S_9  and  C_10
REMARK    4  A    between atoms: N_16  and  C_17
REMARK    5  A    between atoms: C_17  and  C_18
REMARK    6  A    between atoms: C_18  and  O_19
REMARK    7  A    between atoms: O_19  and  P_20
REMARK    8  A    between atoms: P_20  and  O_22
REMARK    9  A    between atoms: P_20  and  O_23
REMARK   10  A    between atoms: N_24  and  C_25
REMARK                            x       y       z     vdW  Elec       q    Type
REMARK                         _______ _______ _______ _____ _____    ______ ____
ROOT
ATOM      1  C   UNL     1       4.946   1.702  20.132  0.00  0.00    +0.000 C 
ATOM      2  N   UNL     1       4.152   2.868  19.802  0.00  0.00    +0.000 N 
ATOM      3  C   UNL     1       4.809   3.981  19.266  0.00  0.00    +0.000 A 
ATOM      4  O   UNL     1       6.027   4.068  19.153  0.00  0.00    +0.000 OA
ATOM      5  C   UNL     1       3.919   5.031  18.896  0.00  0.00    +0.000 A 
ATOM      6  C   UNL     1       2.589   4.993  19.195  0.00  0.00    +0.000 A 
ATOM      7  N   UNL     1       1.959   6.134  18.835  0.00  0.00    +0.000 NA
ATOM      8  C   UNL     1       2.897   6.869  18.276  0.00  0.00    +0.000 A 
ATOM      9  N   UNL     1       4.119   6.219  18.228  0.00  0.00    +0.000 N 
ATOM     10  N   UNL     1       2.011   3.922  19.828  0.00  0.00    +0.000 N 
ATOM     11  C   UNL     1       0.598   3.897  20.163  0.00  0.00    +0.000 C 
ATOM     12  C   UNL     1       2.788   2.807  20.130  0.00  0.00    +0.000 A 
ATOM     13  O   UNL     1       2.304   1.809  20.673  0.00  0.00    +0.000 OA
ENDROOT
BRANCH   8  14
ATOM     14  S   UNL     1       2.598   8.467  17.678  0.00  0.00    +0.000 S 
BRANCH  14  15
ATOM     15  C   UNL     1       1.467   9.101  18.912  0.00  0.00    +0.000 A 
ATOM     16  C   UNL     1       1.546   8.804  20.280  0.00  0.00    +0.000 A 
ATOM     17  C   UNL     1       0.560   9.235  21.166  0.00  0.00    +0.000 A 
ATOM     18  C   UNL     1      -0.510   9.993  20.702  0.00  0.00    +0.000 A 
ATOM     19  C   UNL     1      -0.580  10.341  19.355  0.00  0.00    +0.000 A 
ATOM     20  C   UNL     1       0.404   9.899  18.466  0.00  0.00    +0.000 A 
ENDBRANCH  14  15
ENDBRANCH   8  14
BRANCH   9  21
ATOM     21  C   UNL     1       5.372   6.717  17.672  0.00  0.00    +0.000 C 
BRANCH  21  22
ATOM     22  C   UNL     1       5.521   6.744  16.140  0.00  0.00    +0.000 C 
BRANCH  22  23
ATOM     23  O   UNL     1       5.343   5.451  15.585  0.00  0.00    +0.000 OA
BRANCH  23  24
ATOM     24  P   UNL     1       6.611   4.583  15.142  0.00  0.00    +0.000 P 
ATOM     25  O   UNL     1       6.318   3.441  14.231  0.00  0.00    +0.000 OA
BRANCH  24  26
ATOM     26  O   UNL     1       7.643   5.596  14.466  0.00  0.00    +0.000 OA
ATOM     27  H   UNL     1       7.921   6.263  15.124  0.00  0.00    +0.000 HD
ENDBRANCH  24  26
BRANCH  24  28
ATOM     28  O   UNL     1       7.386   4.110  16.452  0.00  0.00    +0.000 OA
ATOM     29  H   UNL     1       6.794   3.594  17.030  0.00  0.00    +0.000 HD
ENDBRANCH  24  28
ENDBRANCH  23  24
ENDBRANCH  22  23
ENDBRANCH  21  22
ENDBRANCH   9  21
TORSDOF 8
ENDMDL
MODEL 4
REMARK VINA RESULT:      -7.0      0.498      1.050
REMARK  Name = 
REMARK  10 active torsions:
REMARK  status: ('A' for Active; 'I' for Inactive)
REMARK    1  A    between atoms: C_1  and  N_2
REMARK    2  A    between atoms: C_8  and  S_9
REMARK    3  A    between atoms: S_9  and  C_10
REMARK    4  A    between atoms: N_16  and  C_17
REMARK    5  A    between atoms: C_17  and  C_18
REMARK    6  A    between atoms: C_18  and  O_19
REMARK    7  A    between atoms: O_19  and  P_20
REMARK    8  A    between atoms: P_20  and  O_22
REMARK    9  A    between atoms: P_20  and  O_23
REMARK   10  A    between atoms: N_24  and  C_25
REMARK                            x       y       z     vdW  Elec       q    Type
REMARK                         _______ _______ _______ _____ _____    ______ ____
ROOT
ATOM      1  C   UNL     1       4.784   1.876  20.170  0.00  0.00    +0.000 C 
ATOM      2  N   UNL     1       4.021   3.075  19.887  0.00  0.00    +0.000 N 
ATOM      3  C   UNL     1       4.660   4.115  19.204  0.00  0.00    +0.000 A 
ATOM      4  O   UNL     1       5.854   4.117  18.922  0.00  0.00    +0.000 OA
ATOM      5  C   UNL     1       3.791   5.202  18.900  0.00  0.00    +0.000 A 
ATOM      6  C   UNL     1       2.515   5.266  19.379  0.00  0.00    +0.000 A 
ATOM      7  N   UNL     1       1.909   6.427  19.045  0.00  0.00    +0.000 NA
ATOM      8  C   UNL     1       2.800   7.072  18.323  0.00  0.00    +0.000 A 
ATOM      9  N   UNL     1       3.964   6.342  18.146  0.00  0.00    +0.000 N 
ATOM     10  N   UNL     1       1.969   4.266  20.144  0.00  0.00    +0.000 N 
ATOM     11  C   UNL     1       0.619   4.349  20.670  0.00  0.00    +0.000 C 
ATOM     12  C   UNL     1       2.715   3.118  20.400  0.00  0.00    +0.000 A 
ATOM     13  O   UNL     1       2.255   2.181  21.059  0.00  0.00    +0.000 OA
ENDROOT
BRANCH   8  14
ATOM     14  S   UNL     1       2.515   8.656  17.683  0.00  0.00    +0.000 S 
BRANCH  14  15
ATOM     15  C   UNL     1       1.306   9.292  18.839  0.00  0.00    +0.000 A 
ATOM     16  C   UNL     1       1.441   9.231  20.233  0.00  0.00    +0.000 A 
ATOM     17  C   UNL     1       0.405   9.638  21.073  0.00  0.00    +0.000 A 
ATOM     18  C   UNL     1      -0.775  10.137  20.531  0.00  0.00    +0.000 A 
ATOM     19  C   UNL     1      -0.909  10.253  19.150  0.00  0.00    +0.000 A 
ATOM     20  C   UNL     1       0.126   9.834  18.309  0.00  0.00    +0.000 A 
ENDBRANCH  14  15
ENDBRANCH   8  14
BRANCH   9  21
ATOM     21  C   UNL     1       5.154   6.730  17.398  0.00  0.00    +0.000 C 
BRANCH  21  22
ATOM     22  C   UNL     1       5.111   6.615  15.862  0.00  0.00    +0.000 C 
BRANCH  22  23
ATOM     23  O   UNL     1       6.353   6.164  15.348  0.00  0.00    +0.000 OA
BRANCH  23  24
ATOM     24  P   UNL     1       6.749   4.617  15.442  0.00  0.00    +0.000 P 
ATOM     25  O   UNL     1       7.888   4.302  16.349  0.00  0.00    +0.000 OA
BRANCH  24  26
ATOM     26  O   UNL     1       5.432   3.836  15.895  0.00  0.00    +0.000 OA
ATOM     27  H   UNL     1       4.741   4.481  16.142  0.00  0.00    +0.000 HD
ENDBRANCH  24  26
BRANCH  24  28
ATOM     28  O   UNL     1       6.997   4.066  13.967  0.00  0.00    +0.000 OA
ATOM     29  H   UNL     1       7.653   4.619  13.503  0.00  0.00    +0.000 HD
ENDBRANCH  24  28
ENDBRANCH  23  24
ENDBRANCH  22  23
ENDBRANCH  21  22
ENDBRANCH   9  21
TORSDOF 8
ENDMDL
MODEL 5
REMARK VINA RESULT:      -6.9      1.560      2.157
REMARK  Name = 
REMARK  10 active torsions:
REMARK  status: ('A' for Active; 'I' for Inactive)
REMARK    1  A    between atoms: C_1  and  N_2
REMARK    2  A    between atoms: C_8  and  S_9
REMARK    3  A    between atoms: S_9  and  C_10
REMARK    4  A    between atoms: N_16  and  C_17
REMARK    5  A    between atoms: C_17  and  C_18
REMARK    6  A    between atoms: C_18  and  O_19
REMARK    7  A    between atoms: O_19  and  P_20
REMARK    8  A    between atoms: P_20  and  O_22
REMARK    9  A    between atoms: P_20  and  O_23
REMARK   10  A    between atoms: N_24  and  C_25
REMARK                            x       y       z     vdW  Elec       q    Type
REMARK                         _______ _______ _______ _____ _____    ______ ____
ROOT
ATOM      1  C   UNL     1       3.789   1.298  18.157  0.00  0.00    +0.000 C 
ATOM      2  N   UNL     1       3.334   2.657  18.368  0.00  0.00    +0.000 N 
ATOM      3  C   UNL     1       4.042   3.691  17.746  0.00  0.00    +0.000 A 
ATOM      4  O   UNL     1       5.084   3.528  17.119  0.00  0.00    +0.000 OA
ATOM      5  C   UNL     1       3.452   4.973  17.947  0.00  0.00    +0.000 A 
ATOM      6  C   UNL     1       2.400   5.161  18.796  0.00  0.00    +0.000 A 
ATOM      7  N   UNL     1       2.068   6.467  18.903  0.00  0.00    +0.000 NA
ATOM      8  C   UNL     1       2.893   7.089  18.089  0.00  0.00    +0.000 A 
ATOM      9  N   UNL     1       3.735   6.214  17.421  0.00  0.00    +0.000 N 
ATOM     10  N   UNL     1       1.811   4.124  19.473  0.00  0.00    +0.000 N 
ATOM     11  C   UNL     1       0.706   4.334  20.392  0.00  0.00    +0.000 C 
ATOM     12  C   UNL     1       2.257   2.824  19.253  0.00  0.00    +0.000 A 
ATOM     13  O   UNL     1       1.738   1.857  19.819  0.00  0.00    +0.000 OA
ENDROOT
BRANCH   8  14
ATOM     14  S   UNL     1       2.898   8.810  17.898  0.00  0.00    +0.000 S 
BRANCH  14  15
ATOM     15  C   UNL     1       1.372   9.261  18.717  0.00  0.00    +0.000 A 
ATOM     16  C   UNL     1       0.260   9.810  18.063  0.00  0.00    +0.000 A 
ATOM     17  C   UNL     1      -0.851  10.248  18.783  0.00  0.00    +0.000 A 
ATOM     18  C   UNL     1      -0.878  10.121  20.167  0.00  0.00    +0.000 A 
ATOM     19  C   UNL     1       0.196   9.532  20.830  0.00  0.00    +0.000 A 
ATOM     20  C   UNL     1       1.314   9.103  20.109  0.00  0.00    +0.000 A 
ENDBRANCH  14  15
ENDBRANCH   8  14
BRANCH   9  21
ATOM     21  C   UNL     1       4.762   6.540  16.439  0.00  0.00    +0.000 C 
BRANCH  21  22
ATOM     22  C   UNL     1       6.106   7.090  16.954  0.00  0.00    +0.000 C 
BRANCH  22  23
ATOM     23  O   UNL     1       7.055   6.049  17.118  0.00  0.00    +0.000 OA
BRANCH  23  24
ATOM     24  P   UNL     1       7.590   5.670  18.577  0.00  0.00    +0.000 P 
ATOM     25  O   UNL     1       8.408   4.428  18.655  0.00  0.00    +0.000 OA
BRANCH  24  26
ATOM     26  O   UNL     1       8.420   6.929  19.100  0.00  0.00    +0.000 OA
ATOM     27  H   UNL     1       9.256   6.623  19.502  0.00  0.00    +0.000 HD
ENDBRANCH  24  26
BRANCH  24  28
ATOM     28  O   UNL     1       6.349   5.624  19.577  0.00  0.00    +0.000 OA
ATOM     29  H   UNL     1       6.591   6.015  20.437  0.00  0.00    +0.000 HD
ENDBRANCH  24  28
ENDBRANCH  23  24
ENDBRANCH  22  23
ENDBRANCH  21  22
ENDBRANCH   9  21
TORSDOF 8
ENDMDL
MODEL 6
REMARK VINA RESULT:      -6.8      1.564      2.209
REMARK  Name = 
REMARK  10 active torsions:
REMARK  status: ('A' for Active; 'I' for Inactive)
REMARK    1  A    between atoms: C_1  and  N_2
REMARK    2  A    between atoms: C_8  and  S_9
REMARK    3  A    between atoms: S_9  and  C_10
REMARK    4  A    between atoms: N_16  and  C_17
REMARK    5  A    between atoms: C_17  and  C_18
REMARK    6  A    between atoms: C_18  and  O_19
REMARK    7  A    between atoms: O_19  and  P_20
REMARK    8  A    between atoms: P_20  and  O_22
REMARK    9  A    between atoms: P_20  and  O_23
REMARK   10  A    between atoms: N_24  and  C_25
REMARK                            x       y       z     vdW  Elec       q    Type
REMARK                         _______ _______ _______ _____ _____    ______ ____
ROOT
ATOM      1  C   UNL     1       3.622   1.263  18.085  0.00  0.00    +0.000 C 
ATOM      2  N   UNL     1       3.252   2.645  18.317  0.00  0.00    +0.000 N 
ATOM      3  C   UNL     1       3.943   3.637  17.613  0.00  0.00    +0.000 A 
ATOM      4  O   UNL     1       4.910   3.417  16.890  0.00  0.00    +0.000 OA
ATOM      5  C   UNL     1       3.436   4.947  17.850  0.00  0.00    +0.000 A 
ATOM      6  C   UNL     1       2.481   5.195  18.793  0.00  0.00    +0.000 A 
ATOM      7  N   UNL     1       2.222   6.517  18.911  0.00  0.00    +0.000 NA
ATOM      8  C   UNL     1       2.992   7.089  18.010  0.00  0.00    +0.000 A 
ATOM      9  N   UNL     1       3.723   6.167  17.279  0.00  0.00    +0.000 N 
ATOM     10  N   UNL     1       1.914   4.195  19.541  0.00  0.00    +0.000 N 
ATOM     11  C   UNL     1       0.915   4.468  20.559  0.00  0.00    +0.000 C 
ATOM     12  C   UNL     1       2.276   2.873  19.299  0.00  0.00    +0.000 A 
ATOM     13  O   UNL     1       1.770   1.938  19.929  0.00  0.00    +0.000 OA
ENDROOT
BRANCH   8  14
ATOM     14  S   UNL     1       3.058   8.806  17.792  0.00  0.00    +0.000 S 
BRANCH  14  15
ATOM     15  C   UNL     1       1.566   9.326  18.632  0.00  0.00    +0.000 A 
ATOM     16  C   UNL     1       1.368   9.232  20.016  0.00  0.00    +0.000 A 
ATOM     17  C   UNL     1       0.135   9.545  20.588  0.00  0.00    +0.000 A 
ATOM     18  C   UNL     1      -0.914   9.982  19.785  0.00  0.00    +0.000 A 
ATOM     19  C   UNL     1      -0.721  10.130  18.414  0.00  0.00    +0.000 A 
ATOM     20  C   UNL     1       0.512   9.805  17.841  0.00  0.00    +0.000 A 
ENDBRANCH  14  15
ENDBRANCH   8  14
BRANCH   9  21
ATOM     21  C   UNL     1       4.664   6.432  16.196  0.00  0.00    +0.000 C 
BRANCH  21  22
ATOM     22  C   UNL     1       6.169   6.339  16.508  0.00  0.00    +0.000 C 
BRANCH  22  23
ATOM     23  O   UNL     1       6.429   6.636  17.870  0.00  0.00    +0.000 OA
BRANCH  23  24
ATOM     24  P   UNL     1       7.242   5.601  18.779  0.00  0.00    +0.000 P 
ATOM     25  O   UNL     1       8.459   6.148  19.439  0.00  0.00    +0.000 OA
BRANCH  24  26
ATOM     26  O   UNL     1       6.212   5.040  19.864  0.00  0.00    +0.000 OA
ATOM     27  H   UNL     1       5.419   5.611  19.884  0.00  0.00    +0.000 HD
ENDBRANCH  24  26
BRANCH  24  28
ATOM     28  O   UNL     1       7.572   4.309  17.906  0.00  0.00    +0.000 OA
ATOM     29  H   UNL     1       7.968   4.567  17.052  0.00  0.00    +0.000 HD
ENDBRANCH  24  28
ENDBRANCH  23  24
ENDBRANCH  22  23
ENDBRANCH  21  22
ENDBRANCH   9  21
TORSDOF 8
ENDMDL
MODEL 7
REMARK VINA RESULT:      -6.7      2.989      6.009
REMARK  Name = 
REMARK  10 active torsions:
REMARK  status: ('A' for Active; 'I' for Inactive)
REMARK    1  A    between atoms: C_1  and  N_2
REMARK    2  A    between atoms: C_8  and  S_9
REMARK    3  A    between atoms: S_9  and  C_10
REMARK    4  A    between atoms: N_16  and  C_17
REMARK    5  A    between atoms: C_17  and  C_18
REMARK    6  A    between atoms: C_18  and  O_19
REMARK    7  A    between atoms: O_19  and  P_20
REMARK    8  A    between atoms: P_20  and  O_22
REMARK    9  A    between atoms: P_20  and  O_23
REMARK   10  A    between atoms: N_24  and  C_25
REMARK                            x       y       z     vdW  Elec       q    Type
REMARK                         _______ _______ _______ _____ _____    ______ ____
ROOT
ATOM      1  C   UNL     1      -0.335   9.012  22.029  0.00  0.00    +0.000 C 
ATOM      2  N   UNL     1       0.521   8.907  20.865  0.00  0.00    +0.000 N 
ATOM      3  C   UNL     1       1.255   7.729  20.692  0.00  0.00    +0.000 A 
ATOM      4  O   UNL     1       1.298   6.822  21.516  0.00  0.00    +0.000 OA
ATOM      5  C   UNL     1       1.988   7.701  19.471  0.00  0.00    +0.000 A 
ATOM      6  C   UNL     1       2.076   8.789  18.652  0.00  0.00    +0.000 A 
ATOM      7  N   UNL     1       2.898   8.565  17.603  0.00  0.00    +0.000 NA
ATOM      8  C   UNL     1       3.294   7.319  17.751  0.00  0.00    +0.000 A 
ATOM      9  N   UNL     1       2.719   6.710  18.853  0.00  0.00    +0.000 N 
ATOM     10  N   UNL     1       1.425   9.966  18.927  0.00  0.00    +0.000 N 
ATOM     11  C   UNL     1       1.540  11.128  18.064  0.00  0.00    +0.000 C 
ATOM     12  C   UNL     1       0.601  10.045  20.046  0.00  0.00    +0.000 A 
ATOM     13  O   UNL     1      -0.026  11.074  20.316  0.00  0.00    +0.000 OA
ENDROOT
BRANCH   8  14
ATOM     14  S   UNL     1       4.411   6.559  16.666  0.00  0.00    +0.000 S 
BRANCH  14  15
ATOM     15  C   UNL     1       5.945   6.713  17.574  0.00  0.00    +0.000 A 
ATOM     16  C   UNL     1       6.863   7.758  17.397  0.00  0.00    +0.000 A 
ATOM     17  C   UNL     1       8.094   7.750  18.052  0.00  0.00    +0.000 A 
ATOM     18  C   UNL     1       8.417   6.708  18.915  0.00  0.00    +0.000 A 
ATOM     19  C   UNL     1       7.498   5.687  19.143  0.00  0.00    +0.000 A 
ATOM     20  C   UNL     1       6.269   5.691  18.477  0.00  0.00    +0.000 A 
ENDBRANCH  14  15
ENDBRANCH   8  14
BRANCH   9  21
ATOM     21  C   UNL     1       2.913   5.341  19.317  0.00  0.00    +0.000 C 
BRANCH  21  22
ATOM     22  C   UNL     1       2.033   4.238  18.700  0.00  0.00    +0.000 C 
BRANCH  22  23
ATOM     23  O   UNL     1       2.498   2.949  19.063  0.00  0.00    +0.000 OA
BRANCH  23  24
ATOM     24  P   UNL     1       3.879   2.395  18.474  0.00  0.00    +0.000 P 
ATOM     25  O   UNL     1       4.324   3.018  17.197  0.00  0.00    +0.000 OA
BRANCH  24  26
ATOM     26  O   UNL     1       4.976   2.599  19.617  0.00  0.00    +0.000 OA
ATOM     27  H   UNL     1       5.857   2.699  19.206  0.00  0.00    +0.000 HD
ENDBRANCH  24  26
BRANCH  24  28
ATOM     28  O   UNL     1       3.781   0.809  18.356  0.00  0.00    +0.000 OA
ATOM     29  H   UNL     1       3.866   0.531  17.425  0.00  0.00    +0.000 HD
ENDBRANCH  24  28
ENDBRANCH  23  24
ENDBRANCH  22  23
ENDBRANCH  21  22
ENDBRANCH   9  21
TORSDOF 8
ENDMDL
MODEL 8
REMARK VINA RESULT:      -6.7      1.002      1.357
REMARK  Name = 
REMARK  10 active torsions:
REMARK  status: ('A' for Active; 'I' for Inactive)
REMARK    1  A    between atoms: C_1  and  N_2
REMARK    2  A    between atoms: C_8  and  S_9
REMARK    3  A    between atoms: S_9  and  C_10
REMARK    4  A    between atoms: N_16  and  C_17
REMARK    5  A    between atoms: C_17  and  C_18
REMARK    6  A    between atoms: C_18  and  O_19
REMARK    7  A    between atoms: O_19  and  P_20
REMARK    8  A    between atoms: P_20  and  O_22
REMARK    9  A    between atoms: P_20  and  O_23
REMARK   10  A    between atoms: N_24  and  C_25
REMARK                            x       y       z     vdW  Elec       q    Type
REMARK                         _______ _______ _______ _____ _____    ______ ____
ROOT
ATOM      1  C   UNL     1       4.957   1.537  19.639  0.00  0.00    +0.000 C 
ATOM      2  N   UNL     1       4.139   2.673  19.266  0.00  0.00    +0.000 N 
ATOM      3  C   UNL     1       4.761   3.920  19.142  0.00  0.00    +0.000 A 
ATOM      4  O   UNL     1       5.934   4.131  19.430  0.00  0.00    +0.000 OA
ATOM      5  C   UNL     1       3.880   4.941  18.682  0.00  0.00    +0.000 A 
ATOM      6  C   UNL     1       2.539   4.732  18.541  0.00  0.00    +0.000 A 
ATOM      7  N   UNL     1       1.888   5.863  18.186  0.00  0.00    +0.000 NA
ATOM      8  C   UNL     1       2.835   6.770  18.070  0.00  0.00    +0.000 A 
ATOM      9  N   UNL     1       4.097   6.248  18.305  0.00  0.00    +0.000 N 
ATOM     10  N   UNL     1       1.958   3.514  18.786  0.00  0.00    +0.000 N 
ATOM     11  C   UNL     1       0.527   3.304  18.656  0.00  0.00    +0.000 C 
ATOM     12  C   UNL     1       2.761   2.433  19.138  0.00  0.00    +0.000 A 
ATOM     13  O   UNL     1       2.285   1.312  19.340  0.00  0.00    +0.000 OA
ENDROOT
BRANCH   8  14
ATOM     14  S   UNL     1       2.503   8.421  17.667  0.00  0.00    +0.000 S 
BRANCH  14  15
ATOM     15  C   UNL     1       1.444   8.910  19.024  0.00  0.00    +0.000 A 
ATOM     16  C   UNL     1       0.467   9.911  18.939  0.00  0.00    +0.000 A 
ATOM     17  C   UNL     1      -0.238  10.323  20.069  0.00  0.00    +0.000 A 
ATOM     18  C   UNL     1       0.003   9.721  21.299  0.00  0.00    +0.000 A 
ATOM     19  C   UNL     1       0.934   8.689  21.394  0.00  0.00    +0.000 A 
ATOM     20  C   UNL     1       1.649   8.285  20.263  0.00  0.00    +0.000 A 
ENDBRANCH  14  15
ENDBRANCH   8  14
BRANCH   9  21
ATOM     21  C   UNL     1       5.374   6.948  18.253  0.00  0.00    +0.000 C 
BRANCH  21  22
ATOM     22  C   UNL     1       6.370   6.553  17.146  0.00  0.00    +0.000 C 
BRANCH  22  23
ATOM     23  O   UNL     1       5.692   6.117  15.980  0.00  0.00    +0.000 OA
BRANCH  23  24
ATOM     24  P   UNL     1       6.206   4.828  15.184  0.00  0.00    +0.000 P 
ATOM     25  O   UNL     1       5.290   4.324  14.123  0.00  0.00    +0.000 OA
BRANCH  24  26
ATOM     26  O   UNL     1       7.630   5.210  14.568  0.00  0.00    +0.000 OA
ATOM     27  H   UNL     1       8.206   5.559  15.276  0.00  0.00    +0.000 HD
ENDBRANCH  24  26
BRANCH  24  28
ATOM     28  O   UNL     1       6.571   3.691  16.239  0.00  0.00    +0.000 OA
ATOM     29  H   UNL     1       5.806   3.103  16.384  0.00  0.00    +0.000 HD
ENDBRANCH  24  28
ENDBRANCH  23  24
ENDBRANCH  22  23
ENDBRANCH  21  22
ENDBRANCH   9  21
TORSDOF 8
ENDMDL
MODEL 9
REMARK VINA RESULT:      -6.7      3.688      6.328
REMARK  Name = 
REMARK  10 active torsions:
REMARK  status: ('A' for Active; 'I' for Inactive)
REMARK    1  A    between atoms: C_1  and  N_2
REMARK    2  A    between atoms: C_8  and  S_9
REMARK    3  A    between atoms: S_9  and  C_10
REMARK    4  A    between atoms: N_16  and  C_17
REMARK    5  A    between atoms: C_17  and  C_18
REMARK    6  A    between atoms: C_18  and  O_19
REMARK    7  A    between atoms: O_19  and  P_20
REMARK    8  A    between atoms: P_20  and  O_22
REMARK    9  A    between atoms: P_20  and  O_23
REMARK   10  A    between atoms: N_24  and  C_25
REMARK                            x       y       z     vdW  Elec       q    Type
REMARK                         _______ _______ _______ _____ _____    ______ ____
ROOT
ATOM      1  C   UNL     1       0.570   3.663  20.247  0.00  0.00    +0.000 C 
ATOM      2  N   UNL     1       1.951   3.734  19.815  0.00  0.00    +0.000 N 
ATOM      3  C   UNL     1       2.287   4.676  18.837  0.00  0.00    +0.000 A 
ATOM      4  O   UNL     1       1.467   5.374  18.248  0.00  0.00    +0.000 OA
ATOM      5  C   UNL     1       3.683   4.718  18.557  0.00  0.00    +0.000 A 
ATOM      6  C   UNL     1       4.556   3.812  19.085  0.00  0.00    +0.000 A 
ATOM      7  N   UNL     1       5.810   3.985  18.609  0.00  0.00    +0.000 NA
ATOM      8  C   UNL     1       5.722   5.027  17.810  0.00  0.00    +0.000 A 
ATOM      9  N   UNL     1       4.446   5.564  17.781  0.00  0.00    +0.000 N 
ATOM     10  N   UNL     1       4.156   2.831  19.956  0.00  0.00    +0.000 N 
ATOM     11  C   UNL     1       5.085   1.856  20.497  0.00  0.00    +0.000 C 
ATOM     12  C   UNL     1       2.825   2.784  20.365  0.00  0.00    +0.000 A 
ATOM     13  O   UNL     1       2.426   1.936  21.169  0.00  0.00    +0.000 OA
ENDROOT
BRANCH   8  14
ATOM     14  S   UNL     1       7.074   5.631  16.911  0.00  0.00    +0.000 S 
BRANCH  14  15
ATOM     15  C   UNL     1       6.726   4.990  15.277  0.00  0.00    +0.000 A 
ATOM     16  C   UNL     1       5.694   4.086  14.989  0.00  0.00    +0.000 A 
ATOM     17  C   UNL     1       5.557   3.535  13.715  0.00  0.00    +0.000 A 
ATOM     18  C   UNL     1       6.435   3.901  12.700  0.00  0.00    +0.000 A 
ATOM     19  C   UNL     1       7.436   4.836  12.953  0.00  0.00    +0.000 A 
ATOM     20  C   UNL     1       7.579   5.379  14.234  0.00  0.00    +0.000 A 
ENDBRANCH  14  15
ENDBRANCH   8  14
BRANCH   9  21
ATOM     21  C   UNL     1       3.983   6.721  17.025  0.00  0.00    +0.000 C 
BRANCH  21  22
ATOM     22  C   UNL     1       3.578   7.982  17.810  0.00  0.00    +0.000 C 
BRANCH  22  23
ATOM     23  O   UNL     1       2.410   8.573  17.263  0.00  0.00    +0.000 OA
BRANCH  23  24
ATOM     24  P   UNL     1       1.494   9.529  18.160  0.00  0.00    +0.000 P 
ATOM     25  O   UNL     1       1.374   9.139  19.593  0.00  0.00    +0.000 OA
BRANCH  24  26
ATOM     26  O   UNL     1       2.100  11.000  18.023  0.00  0.00    +0.000 OA
ATOM     27  H   UNL     1       3.044  10.941  17.780  0.00  0.00    +0.000 HD
ENDBRANCH  24  26
BRANCH  24  28
ATOM     28  O   UNL     1       0.068   9.667  17.463  0.00  0.00    +0.000 OA
ATOM     29  H   UNL     1      -0.264   8.792  17.189  0.00  0.00    +0.000 HD
ENDBRANCH  24  28
ENDBRANCH  23  24
ENDBRANCH  22  23
ENDBRANCH  21  22
ENDBRANCH   9  21
TORSDOF 8
ENDMDL
