MODEL 1
REMARK VINA RESULT:      -8.6      0.000      0.000
REMARK  Name = 
REMARK  8 active torsions:
REMARK  status: ('A' for Active; 'I' for Inactive)
REMARK    1  A    between atoms: S_2  and  C_4
REMARK    2  A    between atoms: S_2  and  C_23
REMARK    3  A    between atoms: C_4  and  C_5
REMARK    4  A    between atoms: C_5  and  C_6
REMARK    5  A    between atoms: C_6  and  C_7
REMARK    6  A    between atoms: C_7  and  O_8
REMARK    7  A    between atoms: O_8  and  C_9
REMARK    8  A    between atoms: C_16  and  O_17
REMARK                            x       y       z     vdW  Elec       q    Type
REMARK                         _______ _______ _______ _____ _____    ______ ____
ROOT
ATOM      1  C   UNL     1       6.696   6.786  17.018  0.00  0.00    +0.000 A 
ATOM      2  C   UNL     1       7.353   5.592  16.716  0.00  0.00    +0.000 A 
ATOM      3  C   UNL     1       6.660   4.378  16.739  0.00  0.00    +0.000 A 
ATOM      4  C   UNL     1       5.309   4.346  17.077  0.00  0.00    +0.000 A 
ATOM      5  N   UNL     1       4.619   3.123  17.149  0.00  0.00    +0.000 N 
ATOM      6  C   UNL     1       3.330   3.115  17.584  0.00  0.00    +0.000 A 
ATOM      7  N   UNL     1       2.537   2.104  17.806  0.00  0.00    +0.000 NA
ATOM      8  C   UNL     1       1.388   2.729  18.227  0.00  0.00    +0.000 A 
ATOM      9  N   UNL     1       1.334   4.021  18.290  0.00  0.00    +0.000 NA
ATOM     10  C   UNL     1       2.590   4.359  17.893  0.00  0.00    +0.000 A 
ATOM     11  C   UNL     1       3.210   5.536  17.784  0.00  0.00    +0.000 A 
ATOM     12  C   UNL     1       4.636   5.559  17.390  0.00  0.00    +0.000 A 
ATOM     13  C   UNL     1       5.341   6.769  17.360  0.00  0.00    +0.000 A 
ATOM     14  H   UNL     1       5.088   2.256  16.937  0.00  0.00    +0.000 HD
ENDROOT
BRANCH   8  15
ATOM     15  O   UNL     1       0.408   1.891  18.559  0.00  0.00    +0.000 OA
ATOM     16  H   UNL     1       0.611   1.042  18.141  0.00  0.00    +0.000 HD
ENDBRANCH   8  15
BRANCH   1  17
ATOM     17  O   UNL     1       7.300   8.013  17.076  0.00  0.00    +0.000 OA
BRANCH  17  18
ATOM     18  C   UNL     1       8.168   8.232  18.190  0.00  0.00    +0.000 C 
BRANCH  18  19
ATOM     19  C   UNL     1       8.564   9.709  18.216  0.00  0.00    +0.000 C 
BRANCH  19  20
ATOM     20  C   UNL     1       9.388  10.103  19.453  0.00  0.00    +0.000 C 
BRANCH  20  21
ATOM     21  C   UNL     1       9.573  11.610  19.572  0.00  0.00    +0.000 C 
BRANCH  21  23
ATOM     22  O   UNL     1      12.104  11.560  20.110  0.00  0.00    +0.000 OA
ATOM     23  S   UNL     1      11.208  12.186  19.157  0.00  0.00    +0.000 S 
ATOM     24  O   UNL     1      11.394  11.954  17.736  0.00  0.00    +0.000 OA
BRANCH  23  25
ATOM     25  C   UNL     1      11.218  13.976  19.420  0.00  0.00    +0.000 C 
ATOM     26  C   UNL     1       9.787  14.534  19.398  0.00  0.00    +0.000 C 
ATOM     27  C   UNL     1       9.254  14.740  17.980  0.00  0.00    +0.000 C 
ATOM     28  N   UNL     1      10.163  15.555  17.175  0.00  0.00    +0.000 NA
ATOM     29  C   UNL     1      11.483  14.942  17.079  0.00  0.00    +0.000 C 
ATOM     30  C   UNL     1      12.113  14.756  18.455  0.00  0.00    +0.000 C 
ATOM     31  H   UNL     1      10.241  16.486  17.585  0.00  0.00    +0.000 HD
ENDBRANCH  23  25
ENDBRANCH  21  23
ENDBRANCH  20  21
ENDBRANCH  19  20
ENDBRANCH  18  19
ENDBRANCH  17  18
ENDBRANCH   1  17
TORSDOF 8
ENDMDL
MODEL 2
REMARK VINA RESULT:      -8.3      1.522      1.846
REMARK  Name = 
REMARK  8 active torsions:
REMARK  status: ('A' for Active; 'I' for Inactive)
REMARK    1  A    between atoms: S_2  and  C_4
REMARK    2  A    between atoms: S_2  and  C_23
REMARK    3  A    between atoms: C_4  and  C_5
REMARK    4  A    between atoms: C_5  and  C_6
REMARK    5  A    between atoms: C_6  and  C_7
REMARK    6  A    between atoms: C_7  and  O_8
REMARK    7  A    between atoms: O_8  and  C_9
REMARK    8  A    between atoms: C_16  and  O_17
REMARK                            x       y       z     vdW  Elec       q    Type
REMARK                         _______ _______ _______ _____ _____    ______ ____
ROOT
ATOM      1  C   UNL     1       7.345   6.761  17.626  0.00  0.00    +0.000 A 
ATOM      2  C   UNL     1       7.788   6.133  18.791  0.00  0.00    +0.000 A 
ATOM      3  C   UNL     1       7.085   5.046  19.321  0.00  0.00    +0.000 A 
ATOM      4  C   UNL     1       5.927   4.587  18.697  0.00  0.00    +0.000 A 
ATOM      5  N   UNL     1       5.190   3.526  19.252  0.00  0.00    +0.000 N 
ATOM      6  C   UNL     1       4.009   3.171  18.680  0.00  0.00    +0.000 A 
ATOM      7  N   UNL     1       3.132   2.288  19.068  0.00  0.00    +0.000 NA
ATOM      8  C   UNL     1       2.169   2.391  18.093  0.00  0.00    +0.000 A 
ATOM      9  N   UNL     1       2.321   3.224  17.113  0.00  0.00    +0.000 NA
ATOM     10  C   UNL     1       3.513   3.796  17.432  0.00  0.00    +0.000 A 
ATOM     11  C   UNL     1       4.221   4.771  16.860  0.00  0.00    +0.000 A 
ATOM     12  C   UNL     1       5.469   5.227  17.513  0.00  0.00    +0.000 A 
ATOM     13  C   UNL     1       6.184   6.311  16.991  0.00  0.00    +0.000 A 
ATOM     14  H   UNL     1       5.501   3.071  20.097  0.00  0.00    +0.000 HD
ENDROOT
BRANCH   8  15
ATOM     15  O   UNL     1       1.120   1.595  18.283  0.00  0.00    +0.000 OA
ATOM     16  H   UNL     1       0.550   2.030  18.934  0.00  0.00    +0.000 HD
ENDBRANCH   8  15
BRANCH   1  17
ATOM     17  O   UNL     1       7.932   7.862  17.064  0.00  0.00    +0.000 OA
BRANCH  17  18
ATOM     18  C   UNL     1       7.600   9.119  17.655  0.00  0.00    +0.000 C 
BRANCH  18  19
ATOM     19  C   UNL     1       8.754   9.551  18.562  0.00  0.00    +0.000 C 
BRANCH  19  20
ATOM     20  C   UNL     1       9.403  10.880  18.142  0.00  0.00    +0.000 C 
BRANCH  20  21
ATOM     21  C   UNL     1      10.358  11.421  19.198  0.00  0.00    +0.000 C 
BRANCH  21  23
ATOM     22  O   UNL     1       9.000  13.596  18.849  0.00  0.00    +0.000 OA
ATOM     23  S   UNL     1      10.253  13.182  19.452  0.00  0.00    +0.000 S 
ATOM     24  O   UNL     1      10.486  13.424  20.864  0.00  0.00    +0.000 OA
BRANCH  23  25
ATOM     25  C   UNL     1      11.626  13.927  18.541  0.00  0.00    +0.000 C 
ATOM     26  C   UNL     1      12.329  14.991  19.396  0.00  0.00    +0.000 C 
ATOM     27  C   UNL     1      11.595  16.332  19.396  0.00  0.00    +0.000 C 
ATOM     28  N   UNL     1      11.347  16.810  18.036  0.00  0.00    +0.000 NA
ATOM     29  C   UNL     1      10.550  15.856  17.273  0.00  0.00    +0.000 C 
ATOM     30  C   UNL     1      11.246  14.503  17.174  0.00  0.00    +0.000 C 
ATOM     31  H   UNL     1      12.237  16.976  17.566  0.00  0.00    +0.000 HD
ENDBRANCH  23  25
ENDBRANCH  21  23
ENDBRANCH  20  21
ENDBRANCH  19  20
ENDBRANCH  18  19
ENDBRANCH  17  18
ENDBRANCH   1  17
TORSDOF 8
ENDMDL
MODEL 3
REMARK VINA RESULT:      -8.3      1.584      1.877
REMARK  Name = 
REMARK  8 active torsions:
REMARK  status: ('A' for Active; 'I' for Inactive)
REMARK    1  A    between atoms: S_2  and  C_4
REMARK    2  A    between atoms: S_2  and  C_23
REMARK    3  A    between atoms: C_4  and  C_5
REMARK    4  A    between atoms: C_5  and  C_6
REMARK    5  A    between atoms: C_6  and  C_7
REMARK    6  A    between atoms: C_7  and  O_8
REMARK    7  A    between atoms: O_8  and  C_9
REMARK    8  A    between atoms: C_16  and  O_17
REMARK                            x       y       z     vdW  Elec       q    Type
REMARK                         _______ _______ _______ _____ _____    ______ ____
ROOT
ATOM      1  C   UNL     1       6.823   6.220  16.759  0.00  0.00    +0.000 A 
ATOM      2  C   UNL     1       6.870   5.034  16.026  0.00  0.00    +0.000 A 
ATOM      3  C   UNL     1       5.855   4.080  16.155  0.00  0.00    +0.000 A 
ATOM      4  C   UNL     1       4.791   4.301  17.028  0.00  0.00    +0.000 A 
ATOM      5  N   UNL     1       3.793   3.326  17.198  0.00  0.00    +0.000 N 
ATOM      6  C   UNL     1       2.827   3.524  18.134  0.00  0.00    +0.000 A 
ATOM      7  N   UNL     1       1.867   2.729  18.516  0.00  0.00    +0.000 NA
ATOM      8  C   UNL     1       1.236   3.481  19.478  0.00  0.00    +0.000 A 
ATOM      9  N   UNL     1       1.661   4.672  19.755  0.00  0.00    +0.000 NA
ATOM     10  C   UNL     1       2.728   4.776  18.918  0.00  0.00    +0.000 A 
ATOM     11  C   UNL     1       3.636   5.737  18.737  0.00  0.00    +0.000 A 
ATOM     12  C   UNL     1       4.741   5.506  17.781  0.00  0.00    +0.000 A 
ATOM     13  C   UNL     1       5.762   6.454  17.639  0.00  0.00    +0.000 A 
ATOM     14  H   UNL     1       3.823   2.463  16.676  0.00  0.00    +0.000 HD
ENDROOT
BRANCH   8  15
ATOM     15  O   UNL     1       0.212   2.863  20.062  0.00  0.00    +0.000 OA
ATOM     16  H   UNL     1       0.584   2.301  20.757  0.00  0.00    +0.000 HD
ENDBRANCH   8  15
BRANCH   1  17
ATOM     17  O   UNL     1       7.793   7.185  16.742  0.00  0.00    +0.000 OA
BRANCH  17  18
ATOM     18  C   UNL     1       8.062   7.826  17.990  0.00  0.00    +0.000 C 
BRANCH  18  19
ATOM     19  C   UNL     1       7.875   9.333  17.815  0.00  0.00    +0.000 C 
BRANCH  19  20
ATOM     20  C   UNL     1       9.133  10.152  18.145  0.00  0.00    +0.000 C 
BRANCH  20  21
ATOM     21  C   UNL     1       9.315  10.363  19.642  0.00  0.00    +0.000 C 
BRANCH  21  23
ATOM     22  O   UNL     1       8.791  12.823  19.033  0.00  0.00    +0.000 OA
ATOM     23  S   UNL     1       9.337  12.072  20.147  0.00  0.00    +0.000 S 
ATOM     24  O   UNL     1       8.692  12.142  21.446  0.00  0.00    +0.000 OA
BRANCH  23  25
ATOM     25  C   UNL     1      11.071  12.529  20.379  0.00  0.00    +0.000 C 
ATOM     26  C   UNL     1      11.251  14.050  20.257  0.00  0.00    +0.000 C 
ATOM     27  C   UNL     1      11.316  14.524  18.805  0.00  0.00    +0.000 C 
ATOM     28  N   UNL     1      12.333  13.797  18.045  0.00  0.00    +0.000 NA
ATOM     29  C   UNL     1      12.072  12.362  18.043  0.00  0.00    +0.000 C 
ATOM     30  C   UNL     1      12.051  11.797  19.460  0.00  0.00    +0.000 C 
ATOM     31  H   UNL     1      13.253  13.983  18.443  0.00  0.00    +0.000 HD
ENDBRANCH  23  25
ENDBRANCH  21  23
ENDBRANCH  20  21
ENDBRANCH  19  20
ENDBRANCH  18  19
ENDBRANCH  17  18
ENDBRANCH   1  17
TORSDOF 8
ENDMDL
MODEL 4
REMARK VINA RESULT:      -8.3      1.105      1.321
REMARK  Name = 
REMARK  8 active torsions:
REMARK  status: ('A' for Active; 'I' for Inactive)
REMARK    1  A    between atoms: S_2  and  C_4
REMARK    2  A    between atoms: S_2  and  C_23
REMARK    3  A    between atoms: C_4  and  C_5
REMARK    4  A    between atoms: C_5  and  C_6
REMARK    5  A    between atoms: C_6  and  C_7
REMARK    6  A    between atoms: C_7  and  O_8
REMARK    7  A    between atoms: O_8  and  C_9
REMARK    8  A    between atoms: C_16  and  O_17
REMARK                            x       y       z     vdW  Elec       q    Type
REMARK                         _______ _______ _______ _____ _____    ______ ____
ROOT
ATOM      1  C   UNL     1       6.745   6.904  17.415  0.00  0.00    +0.000 A 
ATOM      2  C   UNL     1       7.510   5.764  17.667  0.00  0.00    +0.000 A 
ATOM      3  C   UNL     1       6.893   4.520  17.839  0.00  0.00    +0.000 A 
ATOM      4  C   UNL     1       5.505   4.410  17.774  0.00  0.00    +0.000 A 
ATOM      5  N   UNL     1       4.876   3.173  17.994  0.00  0.00    +0.000 N 
ATOM      6  C   UNL     1       3.518   3.118  18.029  0.00  0.00    +0.000 A 
ATOM      7  N   UNL     1       2.735   2.110  18.297  0.00  0.00    +0.000 NA
ATOM      8  C   UNL     1       1.488   2.675  18.177  0.00  0.00    +0.000 A 
ATOM      9  N   UNL     1       1.367   3.921  17.850  0.00  0.00    +0.000 NA
ATOM     10  C   UNL     1       2.670   4.298  17.746  0.00  0.00    +0.000 A 
ATOM     11  C   UNL     1       3.246   5.473  17.486  0.00  0.00    +0.000 A 
ATOM     12  C   UNL     1       4.722   5.570  17.523  0.00  0.00    +0.000 A 
ATOM     13  C   UNL     1       5.353   6.807  17.348  0.00  0.00    +0.000 A 
ATOM     14  H   UNL     1       5.421   2.345  18.181  0.00  0.00    +0.000 HD
ENDROOT
BRANCH   8  15
ATOM     15  O   UNL     1       0.488   1.837  18.442  0.00  0.00    +0.000 OA
ATOM     16  H   UNL     1      -0.301   2.198  18.013  0.00  0.00    +0.000 HD
ENDBRANCH   8  15
BRANCH   1  17
ATOM     17  O   UNL     1       7.253   8.168  17.288  0.00  0.00    +0.000 OA
BRANCH  17  18
ATOM     18  C   UNL     1       8.301   8.517  18.195  0.00  0.00    +0.000 C 
BRANCH  18  19
ATOM     19  C   UNL     1       8.625  10.001  18.018  0.00  0.00    +0.000 C 
BRANCH  19  20
ATOM     20  C   UNL     1       9.644  10.534  19.038  0.00  0.00    +0.000 C 
BRANCH  20  21
ATOM     21  C   UNL     1       9.329  11.955  19.488  0.00  0.00    +0.000 C 
BRANCH  21  23
ATOM     22  O   UNL     1      10.533  12.674  17.313  0.00  0.00    +0.000 OA
ATOM     23  S   UNL     1       9.522  13.188  18.216  0.00  0.00    +0.000 S 
ATOM     24  O   UNL     1       8.195  13.491  17.711  0.00  0.00    +0.000 OA
BRANCH  23  25
ATOM     25  C   UNL     1      10.148  14.681  19.022  0.00  0.00    +0.000 C 
ATOM     26  C   UNL     1       9.569  15.939  18.357  0.00  0.00    +0.000 C 
ATOM     27  C   UNL     1      10.302  16.320  17.071  0.00  0.00    +0.000 C 
ATOM     28  N   UNL     1      11.744  16.439  17.287  0.00  0.00    +0.000 NA
ATOM     29  C   UNL     1      12.313  15.190  17.781  0.00  0.00    +0.000 C 
ATOM     30  C   UNL     1      11.674  14.770  19.101  0.00  0.00    +0.000 C 
ATOM     31  H   UNL     1      11.928  17.192  17.950  0.00  0.00    +0.000 HD
ENDBRANCH  23  25
ENDBRANCH  21  23
ENDBRANCH  20  21
ENDBRANCH  19  20
ENDBRANCH  18  19
ENDBRANCH  17  18
ENDBRANCH   1  17
TORSDOF 8
ENDMDL
MODEL 5
REMARK VINA RESULT:      -8.2      1.197      1.304
REMARK  Name = 
REMARK  8 active torsions:
REMARK  status: ('A' for Active; 'I' for Inactive)
REMARK    1  A    between atoms: S_2  and  C_4
REMARK    2  A    between atoms: S_2  and  C_23
REMARK    3  A    between atoms: C_4  and  C_5
REMARK    4  A    between atoms: C_5  and  C_6
REMARK    5  A    between atoms: C_6  and  C_7
REMARK    6  A    between atoms: C_7  and  O_8
REMARK    7  A    between atoms: O_8  and  C_9
REMARK    8  A    between atoms: C_16  and  O_17
REMARK                            x       y       z     vdW  Elec       q    Type
REMARK                         _______ _______ _______ _____ _____    ______ ____
ROOT
ATOM      1  C   UNL     1       6.972   7.076  17.647  0.00  0.00    +0.000 A 
ATOM      2  C   UNL     1       7.738   6.170  18.382  0.00  0.00    +0.000 A 
ATOM      3  C   UNL     1       7.212   4.924  18.739  0.00  0.00    +0.000 A 
ATOM      4  C   UNL     1       5.912   4.580  18.374  0.00  0.00    +0.000 A 
ATOM      5  N   UNL     1       5.361   3.349  18.771  0.00  0.00    +0.000 N 
ATOM      6  C   UNL     1       4.057   3.087  18.491  0.00  0.00    +0.000 A 
ATOM      7  N   UNL     1       3.325   2.063  18.832  0.00  0.00    +0.000 NA
ATOM      8  C   UNL     1       2.113   2.373  18.263  0.00  0.00    +0.000 A 
ATOM      9  N   UNL     1       1.974   3.466  17.583  0.00  0.00    +0.000 NA
ATOM     10  C   UNL     1       3.215   4.010  17.696  0.00  0.00    +0.000 A 
ATOM     11  C   UNL     1       3.732   5.163  17.266  0.00  0.00    +0.000 A 
ATOM     12  C   UNL     1       5.126   5.502  17.629  0.00  0.00    +0.000 A 
ATOM     13  C   UNL     1       5.666   6.744  17.276  0.00  0.00    +0.000 A 
ATOM     14  H   UNL     1       5.906   2.691  19.307  0.00  0.00    +0.000 HD
ENDROOT
BRANCH   8  15
ATOM     15  O   UNL     1       1.159   1.476  18.501  0.00  0.00    +0.000 OA
ATOM     16  H   UNL     1       1.461   0.638  18.124  0.00  0.00    +0.000 HD
ENDBRANCH   8  15
BRANCH   1  17
ATOM     17  O   UNL     1       7.377   8.336  17.300  0.00  0.00    +0.000 OA
BRANCH  17  18
ATOM     18  C   UNL     1       8.385   8.920  18.127  0.00  0.00    +0.000 C 
BRANCH  18  19
ATOM     19  C   UNL     1       8.613  10.363  17.674  0.00  0.00    +0.000 C 
BRANCH  19  20
ATOM     20  C   UNL     1       9.775  11.060  18.401  0.00  0.00    +0.000 C 
BRANCH  20  21
ATOM     21  C   UNL     1       9.292  12.080  19.424  0.00  0.00    +0.000 C 
BRANCH  21  23
ATOM     22  O   UNL     1       9.896  12.743  21.851  0.00  0.00    +0.000 OA
ATOM     23  S   UNL     1      10.549  12.632  20.561  0.00  0.00    +0.000 S 
ATOM     24  O   UNL     1      11.686  11.743  20.405  0.00  0.00    +0.000 OA
BRANCH  23  25
ATOM     25  C   UNL     1      11.068  14.276  20.014  0.00  0.00    +0.000 C 
ATOM     26  C   UNL     1       9.867  15.075  19.486  0.00  0.00    +0.000 C 
ATOM     27  C   UNL     1       9.497  14.708  18.049  0.00  0.00    +0.000 C 
ATOM     28  N   UNL     1      10.649  14.810  17.153  0.00  0.00    +0.000 NA
ATOM     29  C   UNL     1      11.735  13.934  17.580  0.00  0.00    +0.000 C 
ATOM     30  C   UNL     1      12.205  14.277  18.990  0.00  0.00    +0.000 C 
ATOM     31  H   UNL     1      10.973  15.777  17.122  0.00  0.00    +0.000 HD
ENDBRANCH  23  25
ENDBRANCH  21  23
ENDBRANCH  20  21
ENDBRANCH  19  20
ENDBRANCH  18  19
ENDBRANCH  17  18
ENDBRANCH   1  17
TORSDOF 8
ENDMDL
MODEL 6
REMARK VINA RESULT:      -8.2      1.477      1.643
REMARK  Name = 
REMARK  8 active torsions:
REMARK  status: ('A' for Active; 'I' for Inactive)
REMARK    1  A    between atoms: S_2  and  C_4
REMARK    2  A    between atoms: S_2  and  C_23
REMARK    3  A    between atoms: C_4  and  C_5
REMARK    4  A    between atoms: C_5  and  C_6
REMARK    5  A    between atoms: C_6  and  C_7
REMARK    6  A    between atoms: C_7  and  O_8
REMARK    7  A    between atoms: O_8  and  C_9
REMARK    8  A    between atoms: C_16  and  O_17
REMARK                            x       y       z     vdW  Elec       q    Type
REMARK                         _______ _______ _______ _____ _____    ______ ____
ROOT
ATOM      1  C   UNL     1       7.381   6.926  17.634  0.00  0.00    +0.000 A 
ATOM      2  C   UNL     1       7.874   6.290  18.774  0.00  0.00    +0.000 A 
ATOM      3  C   UNL     1       7.208   5.185  19.314  0.00  0.00    +0.000 A 
ATOM      4  C   UNL     1       6.036   4.715  18.724  0.00  0.00    +0.000 A 
ATOM      5  N   UNL     1       5.336   3.635  19.289  0.00  0.00    +0.000 N 
ATOM      6  C   UNL     1       4.141   3.268  18.753  0.00  0.00    +0.000 A 
ATOM      7  N   UNL     1       3.293   2.365  19.159  0.00  0.00    +0.000 NA
ATOM      8  C   UNL     1       2.295   2.466  18.220  0.00  0.00    +0.000 A 
ATOM      9  N   UNL     1       2.399   3.314  17.247  0.00  0.00    +0.000 NA
ATOM     10  C   UNL     1       3.592   3.901  17.532  0.00  0.00    +0.000 A 
ATOM     11  C   UNL     1       4.265   4.896  16.950  0.00  0.00    +0.000 A 
ATOM     12  C   UNL     1       5.527   5.363  17.565  0.00  0.00    +0.000 A 
ATOM     13  C   UNL     1       6.206   6.466  17.034  0.00  0.00    +0.000 A 
ATOM     14  H   UNL     1       5.683   3.174  20.116  0.00  0.00    +0.000 HD
ENDROOT
BRANCH   8  15
ATOM     15  O   UNL     1       1.266   1.650  18.434  0.00  0.00    +0.000 OA
ATOM     16  H   UNL     1       0.885   1.444  17.568  0.00  0.00    +0.000 HD
ENDBRANCH   8  15
BRANCH   1  17
ATOM     17  O   UNL     1       7.930   8.044  17.068  0.00  0.00    +0.000 OA
BRANCH  17  18
ATOM     18  C   UNL     1       7.640   9.283  17.718  0.00  0.00    +0.000 C 
BRANCH  18  19
ATOM     19  C   UNL     1       8.842   9.674  18.580  0.00  0.00    +0.000 C 
BRANCH  19  20
ATOM     20  C   UNL     1       9.491  11.004  18.164  0.00  0.00    +0.000 C 
BRANCH  20  21
ATOM     21  C   UNL     1      10.127  11.734  19.339  0.00  0.00    +0.000 C 
BRANCH  21  23
ATOM     22  O   UNL     1      12.331  13.082  19.491  0.00  0.00    +0.000 OA
ATOM     23  S   UNL     1      11.016  13.213  18.893  0.00  0.00    +0.000 S 
ATOM     24  O   UNL     1      10.892  13.368  17.455  0.00  0.00    +0.000 OA
BRANCH  23  25
ATOM     25  C   UNL     1      10.148  14.601  19.664  0.00  0.00    +0.000 C 
ATOM     26  C   UNL     1       9.366  15.402  18.613  0.00  0.00    +0.000 C 
ATOM     27  C   UNL     1      10.249  16.379  17.836  0.00  0.00    +0.000 C 
ATOM     28  N   UNL     1      11.001  17.256  18.732  0.00  0.00    +0.000 NA
ATOM     29  C   UNL     1      11.856  16.490  19.633  0.00  0.00    +0.000 C 
ATOM     30  C   UNL     1      11.041  15.529  20.491  0.00  0.00    +0.000 C 
ATOM     31  H   UNL     1      10.353  17.830  19.272  0.00  0.00    +0.000 HD
ENDBRANCH  23  25
ENDBRANCH  21  23
ENDBRANCH  20  21
ENDBRANCH  19  20
ENDBRANCH  18  19
ENDBRANCH  17  18
ENDBRANCH   1  17
TORSDOF 8
ENDMDL
MODEL 7
REMARK VINA RESULT:      -8.2      6.692      9.773
REMARK  Name = 
REMARK  8 active torsions:
REMARK  status: ('A' for Active; 'I' for Inactive)
REMARK    1  A    between atoms: S_2  and  C_4
REMARK    2  A    between atoms: S_2  and  C_23
REMARK    3  A    between atoms: C_4  and  C_5
REMARK    4  A    between atoms: C_5  and  C_6
REMARK    5  A    between atoms: C_6  and  C_7
REMARK    6  A    between atoms: C_7  and  O_8
REMARK    7  A    between atoms: O_8  and  C_9
REMARK    8  A    between atoms: C_16  and  O_17
REMARK                            x       y       z     vdW  Elec       q    Type
REMARK                         _______ _______ _______ _____ _____    ______ ____
ROOT
ATOM      1  C   UNL     1       0.891  10.169  18.689  0.00  0.00    +0.000 A 
ATOM      2  C   UNL     1       0.695  10.953  19.827  0.00  0.00    +0.000 A 
ATOM      3  C   UNL     1      -0.556  11.521  20.088  0.00  0.00    +0.000 A 
ATOM      4  C   UNL     1      -1.616  11.321  19.206  0.00  0.00    +0.000 A 
ATOM      5  N   UNL     1      -2.862  11.930  19.438  0.00  0.00    +0.000 N 
ATOM      6  C   UNL     1      -3.844  11.803  18.506  0.00  0.00    +0.000 A 
ATOM      7  N   UNL     1      -5.030  12.343  18.472  0.00  0.00    +0.000 NA
ATOM      8  C   UNL     1      -5.540  11.844  17.298  0.00  0.00    +0.000 A 
ATOM      9  N   UNL     1      -4.835  11.034  16.574  0.00  0.00    +0.000 NA
ATOM     10  C   UNL     1      -3.685  10.964  17.297  0.00  0.00    +0.000 A 
ATOM     11  C   UNL     1      -2.527  10.336  17.081  0.00  0.00    +0.000 A 
ATOM     12  C   UNL     1      -1.420  10.528  18.043  0.00  0.00    +0.000 A 
ATOM     13  C   UNL     1      -0.164   9.961  17.796  0.00  0.00    +0.000 A 
ATOM     14  H   UNL     1      -3.011  12.502  20.255  0.00  0.00    +0.000 HD
ENDROOT
BRANCH   8  15
ATOM     15  O   UNL     1      -6.762  12.284  17.009  0.00  0.00    +0.000 OA
ATOM     16  H   UNL     1      -7.387  11.655  17.398  0.00  0.00    +0.000 HD
ENDBRANCH   8  15
BRANCH   1  17
ATOM     17  O   UNL     1       2.089   9.618  18.321  0.00  0.00    +0.000 OA
BRANCH  17  18
ATOM     18  C   UNL     1       2.077   8.215  18.053  0.00  0.00    +0.000 C 
BRANCH  18  19
ATOM     19  C   UNL     1       2.267   7.464  19.371  0.00  0.00    +0.000 C 
BRANCH  19  20
ATOM     20  C   UNL     1       2.466   5.950  19.194  0.00  0.00    +0.000 C 
BRANCH  20  21
ATOM     21  C   UNL     1       3.870   5.499  19.578  0.00  0.00    +0.000 C 
BRANCH  21  23
ATOM     22  O   UNL     1       5.956   4.115  18.925  0.00  0.00    +0.000 OA
ATOM     23  S   UNL     1       4.609   4.344  18.440  0.00  0.00    +0.000 S 
ATOM     24  O   UNL     1       3.692   3.226  18.311  0.00  0.00    +0.000 OA
BRANCH  23  25
ATOM     25  C   UNL     1       4.687   5.168  16.832  0.00  0.00    +0.000 C 
ATOM     26  C   UNL     1       5.479   4.318  15.827  0.00  0.00    +0.000 C 
ATOM     27  C   UNL     1       6.992   4.471  15.985  0.00  0.00    +0.000 C 
ATOM     28  N   UNL     1       7.399   5.875  15.943  0.00  0.00    +0.000 NA
ATOM     29  C   UNL     1       6.753   6.649  16.998  0.00  0.00    +0.000 C 
ATOM     30  C   UNL     1       5.233   6.597  16.874  0.00  0.00    +0.000 C 
ATOM     31  H   UNL     1       7.170   6.270  15.031  0.00  0.00    +0.000 HD
ENDBRANCH  23  25
ENDBRANCH  21  23
ENDBRANCH  20  21
ENDBRANCH  19  20
ENDBRANCH  18  19
ENDBRANCH  17  18
ENDBRANCH   1  17
TORSDOF 8
ENDMDL
MODEL 8
REMARK VINA RESULT:      -8.1      6.912     10.380
REMARK  Name = 
REMARK  8 active torsions:
REMARK  status: ('A' for Active; 'I' for Inactive)
REMARK    1  A    between atoms: S_2  and  C_4
REMARK    2  A    between atoms: S_2  and  C_23
REMARK    3  A    between atoms: C_4  and  C_5
REMARK    4  A    between atoms: C_5  and  C_6
REMARK    5  A    between atoms: C_6  and  C_7
REMARK    6  A    between atoms: C_7  and  O_8
REMARK    7  A    between atoms: O_8  and  C_9
REMARK    8  A    between atoms: C_16  and  O_17
REMARK                            x       y       z     vdW  Elec       q    Type
REMARK                         _______ _______ _______ _____ _____    ______ ____
ROOT
ATOM      1  C   UNL     1       2.196   7.815  19.058  0.00  0.00    +0.000 A 
ATOM      2  C   UNL     1       1.807   8.654  18.013  0.00  0.00    +0.000 A 
ATOM      3  C   UNL     1       0.985   9.759  18.260  0.00  0.00    +0.000 A 
ATOM      4  C   UNL     1       0.535  10.025  19.551  0.00  0.00    +0.000 A 
ATOM      5  N   UNL     1      -0.330  11.105  19.798  0.00  0.00    +0.000 N 
ATOM      6  C   UNL     1      -0.836  11.276  21.048  0.00  0.00    +0.000 A 
ATOM      7  N   UNL     1      -1.708  12.144  21.478  0.00  0.00    +0.000 NA
ATOM      8  C   UNL     1      -1.811  11.814  22.808  0.00  0.00    +0.000 A 
ATOM      9  N   UNL     1      -1.101  10.847  23.295  0.00  0.00    +0.000 NA
ATOM     10  C   UNL     1      -0.434  10.423  22.189  0.00  0.00    +0.000 A 
ATOM     11  C   UNL     1       0.426   9.421  21.989  0.00  0.00    +0.000 A 
ATOM     12  C   UNL     1       0.924   9.170  20.619  0.00  0.00    +0.000 A 
ATOM     13  C   UNL     1       1.750   8.070  20.359  0.00  0.00    +0.000 A 
ATOM     14  H   UNL     1      -0.620  11.713  19.047  0.00  0.00    +0.000 HD
ENDROOT
BRANCH   8  15
ATOM     15  O   UNL     1      -2.689  12.552  23.483  0.00  0.00    +0.000 OA
ATOM     16  H   UNL     1      -2.732  13.412  23.039  0.00  0.00    +0.000 HD
ENDBRANCH   8  15
BRANCH   1  17
ATOM     17  O   UNL     1       2.949   6.683  18.908  0.00  0.00    +0.000 OA
BRANCH  17  18
ATOM     18  C   UNL     1       3.840   6.667  17.791  0.00  0.00    +0.000 C 
BRANCH  18  19
ATOM     19  C   UNL     1       3.867   5.254  17.208  0.00  0.00    +0.000 C 
BRANCH  19  20
ATOM     20  C   UNL     1       4.894   4.329  17.881  0.00  0.00    +0.000 C 
BRANCH  20  21
ATOM     21  C   UNL     1       4.478   3.926  19.290  0.00  0.00    +0.000 C 
BRANCH  21  23
ATOM     22  O   UNL     1       3.966   1.667  18.136  0.00  0.00    +0.000 OA
ATOM     23  S   UNL     1       4.107   2.193  19.480  0.00  0.00    +0.000 S 
ATOM     24  O   UNL     1       5.113   1.636  20.367  0.00  0.00    +0.000 OA
BRANCH  23  25
ATOM     25  C   UNL     1       2.515   2.085  20.331  0.00  0.00    +0.000 C 
ATOM     26  C   UNL     1       1.360   2.350  19.353  0.00  0.00    +0.000 C 
ATOM     27  C   UNL     1       1.129   3.839  19.099  0.00  0.00    +0.000 C 
ATOM     28  N   UNL     1       0.959   4.580  20.348  0.00  0.00    +0.000 NA
ATOM     29  C   UNL     1       2.126   4.443  21.212  0.00  0.00    +0.000 C 
ATOM     30  C   UNL     1       2.390   2.983  21.564  0.00  0.00    +0.000 C 
ATOM     31  H   UNL     1       0.126   4.244  20.833  0.00  0.00    +0.000 HD
ENDBRANCH  23  25
ENDBRANCH  21  23
ENDBRANCH  20  21
ENDBRANCH  19  20
ENDBRANCH  18  19
ENDBRANCH  17  18
ENDBRANCH   1  17
TORSDOF 8
ENDMDL
MODEL 9
REMARK VINA RESULT:      -8.1      6.899      9.654
REMARK  Name = 
REMARK  8 active torsions:
REMARK  status: ('A' for Active; 'I' for Inactive)
REMARK    1  A    between atoms: S_2  and  C_4
REMARK    2  A    between atoms: S_2  and  C_23
REMARK    3  A    between atoms: C_4  and  C_5
REMARK    4  A    between atoms: C_5  and  C_6
REMARK    5  A    between atoms: C_6  and  C_7
REMARK    6  A    between atoms: C_7  and  O_8
REMARK    7  A    between atoms: O_8  and  C_9
REMARK    8  A    between atoms: C_16  and  O_17
REMARK                            x       y       z     vdW  Elec       q    Type
REMARK                         _______ _______ _______ _____ _____    ______ ____
ROOT
ATOM      1  C   UNL     1       2.279   7.275  19.558  0.00  0.00    +0.000 A 
ATOM      2  C   UNL     1       2.443   7.670  18.229  0.00  0.00    +0.000 A 
ATOM      3  C   UNL     1       1.882   8.868  17.773  0.00  0.00    +0.000 A 
ATOM      4  C   UNL     1       1.144   9.672  18.638  0.00  0.00    +0.000 A 
ATOM      5  N   UNL     1       0.538  10.853  18.173  0.00  0.00    +0.000 N 
ATOM      6  C   UNL     1      -0.263  11.561  19.013  0.00  0.00    +0.000 A 
ATOM      7  N   UNL     1      -0.983  12.621  18.775  0.00  0.00    +0.000 NA
ATOM      8  C   UNL     1      -1.560  12.858  19.999  0.00  0.00    +0.000 A 
ATOM      9  N   UNL     1      -1.291  12.089  21.005  0.00  0.00    +0.000 NA
ATOM     10  C   UNL     1      -0.446  11.189  20.434  0.00  0.00    +0.000 A 
ATOM     11  C   UNL     1       0.159  10.099  20.911  0.00  0.00    +0.000 A 
ATOM     12  C   UNL     1       0.970   9.271  19.991  0.00  0.00    +0.000 A 
ATOM     13  C   UNL     1       1.540   8.072  20.436  0.00  0.00    +0.000 A 
ATOM     14  H   UNL     1       0.647  11.142  17.213  0.00  0.00    +0.000 HD
ENDROOT
BRANCH   8  15
ATOM     15  O   UNL     1      -2.390  13.898  20.014  0.00  0.00    +0.000 OA
ATOM     16  H   UNL     1      -1.847  14.693  19.914  0.00  0.00    +0.000 HD
ENDBRANCH   8  15
BRANCH   1  17
ATOM     17  O   UNL     1       2.741   6.098  20.082  0.00  0.00    +0.000 OA
BRANCH  17  18
ATOM     18  C   UNL     1       1.872   5.440  21.005  0.00  0.00    +0.000 C 
BRANCH  18  19
ATOM     19  C   UNL     1       0.959   4.492  20.226  0.00  0.00    +0.000 C 
BRANCH  19  20
ATOM     20  C   UNL     1       1.593   3.952  18.933  0.00  0.00    +0.000 C 
BRANCH  20  21
ATOM     21  C   UNL     1       2.350   2.649  19.157  0.00  0.00    +0.000 C 
BRANCH  21  23
ATOM     22  O   UNL     1       4.838   2.595  19.866  0.00  0.00    +0.000 OA
ATOM     23  S   UNL     1       4.058   2.694  18.648  0.00  0.00    +0.000 S 
ATOM     24  O   UNL     1       4.219   1.695  17.608  0.00  0.00    +0.000 OA
BRANCH  23  25
ATOM     25  C   UNL     1       4.339   4.313  17.892  0.00  0.00    +0.000 C 
ATOM     26  C   UNL     1       4.468   4.183  16.367  0.00  0.00    +0.000 C 
ATOM     27  C   UNL     1       5.860   3.731  15.928  0.00  0.00    +0.000 C 
ATOM     28  N   UNL     1       6.907   4.586  16.487  0.00  0.00    +0.000 NA
ATOM     29  C   UNL     1       6.870   4.588  17.945  0.00  0.00    +0.000 C 
ATOM     30  C   UNL     1       5.527   5.087  18.468  0.00  0.00    +0.000 C 
ATOM     31  H   UNL     1       6.795   5.537  16.135  0.00  0.00    +0.000 HD
ENDBRANCH  23  25
ENDBRANCH  21  23
ENDBRANCH  20  21
ENDBRANCH  19  20
ENDBRANCH  18  19
ENDBRANCH  17  18
ENDBRANCH   1  17
TORSDOF 8
ENDMDL
