MODEL 1
REMARK VINA RESULT:      -8.6      0.000      0.000
REMARK  Name = 
REMARK  4 active torsions:
REMARK  status: ('A' for Active; 'I' for Inactive)
REMARK    1  A    between atoms: C_2  and  C_3
REMARK    2  A    between atoms: C_2  and  C_13
REMARK    3  A    between atoms: C_3  and  C_4
REMARK    4  A    between atoms: N_15  and  C_16
REMARK                            x       y       z     vdW  Elec       q    Type
REMARK                         _______ _______ _______ _____ _____    ______ ____
ROOT
ATOM      1  O   UNL     1       7.101   4.820  19.349  0.00  0.00    +0.000 OA
ATOM      2  C   UNL     1       6.564   5.187  18.308  0.00  0.00    +0.000 C 
ENDROOT
BRANCH   2   3
ATOM      3  C   UNL     1       7.139   4.730  16.974  0.00  0.00    +0.000 C 
ATOM      4  O   UNL     1       8.224   4.160  16.993  0.00  0.00    +0.000 OA
ATOM      5  N   UNL     1       6.351   5.018  15.878  0.00  0.00    +0.000 N 
ATOM      6  H   UNL     1       5.525   5.589  16.061  0.00  0.00    +0.000 HD
BRANCH   5   7
ATOM      7  C   UNL     1       6.689   4.731  14.535  0.00  0.00    +0.000 A 
ATOM      8  C   UNL     1       7.650   5.471  13.836  0.00  0.00    +0.000 A 
ATOM      9  C   UNL     1       7.881   5.253  12.478  0.00  0.00    +0.000 A 
ATOM     10  C   UNL     1       7.162   4.277  11.801  0.00  0.00    +0.000 A 
ATOM     11  C   UNL     1       6.245   3.495  12.502  0.00  0.00    +0.000 A 
ATOM     12 CL   UNL     1       5.355   2.285  11.658  0.00  0.00    +0.000 Cl
ATOM     13  C   UNL     1       6.018   3.701  13.869  0.00  0.00    +0.000 A 
ENDBRANCH   5   7
ENDBRANCH   2   3
BRANCH   2  14
ATOM     14  C   UNL     1       5.353   6.078  18.224  0.00  0.00    +0.000 C 
BRANCH  14  15
ATOM     15  C   UNL     1       4.161   5.323  18.661  0.00  0.00    +0.000 A 
ATOM     16  N   UNL     1       3.385   5.516  19.711  0.00  0.00    +0.000 NA
ATOM     17  C   UNL     1       2.430   4.535  19.597  0.00  0.00    +0.000 A 
ATOM     18  C   UNL     1       1.315   4.233  20.388  0.00  0.00    +0.000 A 
ATOM     19  C   UNL     1       0.494   3.165  19.997  0.00  0.00    +0.000 A 
ATOM     20  C   UNL     1       0.784   2.409  18.853  0.00  0.00    +0.000 A 
ATOM     21  C   UNL     1       1.902   2.691  18.058  0.00  0.00    +0.000 A 
ATOM     22  C   UNL     1       2.683   3.763  18.473  0.00  0.00    +0.000 A 
ATOM     23  O   UNL     1       3.803   4.258  17.872  0.00  0.00    +0.000 OA
ENDBRANCH  14  15
ENDBRANCH   2  14
TORSDOF 4
ENDMDL
MODEL 2
REMARK VINA RESULT:      -8.6      0.763      1.251
REMARK  Name = 
REMARK  4 active torsions:
REMARK  status: ('A' for Active; 'I' for Inactive)
REMARK    1  A    between atoms: C_2  and  C_3
REMARK    2  A    between atoms: C_2  and  C_13
REMARK    3  A    between atoms: C_3  and  C_4
REMARK    4  A    between atoms: N_15  and  C_16
REMARK                            x       y       z     vdW  Elec       q    Type
REMARK                         _______ _______ _______ _____ _____    ______ ____
ROOT
ATOM      1  O   UNL     1       7.178   5.219  19.272  0.00  0.00    +0.000 OA
ATOM      2  C   UNL     1       6.571   5.433  18.227  0.00  0.00    +0.000 C 
ENDROOT
BRANCH   2   3
ATOM      3  C   UNL     1       7.117   4.867  16.922  0.00  0.00    +0.000 C 
ATOM      4  O   UNL     1       8.129   4.179  16.984  0.00  0.00    +0.000 OA
ATOM      5  N   UNL     1       6.388   5.203  15.799  0.00  0.00    +0.000 N 
ATOM      6  H   UNL     1       5.629   5.870  15.944  0.00  0.00    +0.000 HD
BRANCH   5   7
ATOM      7  C   UNL     1       6.717   4.832  14.474  0.00  0.00    +0.000 A 
ATOM      8  C   UNL     1       7.706   5.499  13.740  0.00  0.00    +0.000 A 
ATOM      9  C   UNL     1       7.930   5.201  12.396  0.00  0.00    +0.000 A 
ATOM     10  C   UNL     1       7.177   4.216  11.770  0.00  0.00    +0.000 A 
ATOM     11  C   UNL     1       6.231   3.507  12.508  0.00  0.00    +0.000 A 
ATOM     12 CL   UNL     1       5.299   2.287  11.727  0.00  0.00    +0.000 Cl
ATOM     13  C   UNL     1       6.010   3.794  13.862  0.00  0.00    +0.000 A 
ENDBRANCH   5   7
ENDBRANCH   2   3
BRANCH   2  14
ATOM     14  C   UNL     1       5.300   6.231  18.109  0.00  0.00    +0.000 C 
BRANCH  14  15
ATOM     15  C   UNL     1       4.150   5.367  18.446  0.00  0.00    +0.000 A 
ATOM     16  N   UNL     1       3.410   4.610  17.658  0.00  0.00    +0.000 NA
ATOM     17  C   UNL     1       2.512   4.024  18.517  0.00  0.00    +0.000 A 
ATOM     18  C   UNL     1       1.486   3.098  18.291  0.00  0.00    +0.000 A 
ATOM     19  C   UNL     1       0.737   2.656  19.392  0.00  0.00    +0.000 A 
ATOM     20  C   UNL     1       0.998   3.133  20.684  0.00  0.00    +0.000 A 
ATOM     21  C   UNL     1       2.014   4.067  20.924  0.00  0.00    +0.000 A 
ATOM     22  C   UNL     1       2.738   4.471  19.809  0.00  0.00    +0.000 A 
ATOM     23  O   UNL     1       3.785   5.346  19.769  0.00  0.00    +0.000 OA
ENDBRANCH  14  15
ENDBRANCH   2  14
TORSDOF 4
ENDMDL
MODEL 3
REMARK VINA RESULT:      -8.3      3.799      6.890
REMARK  Name = 
REMARK  4 active torsions:
REMARK  status: ('A' for Active; 'I' for Inactive)
REMARK    1  A    between atoms: C_2  and  C_3
REMARK    2  A    between atoms: C_2  and  C_13
REMARK    3  A    between atoms: C_3  and  C_4
REMARK    4  A    between atoms: N_15  and  C_16
REMARK                            x       y       z     vdW  Elec       q    Type
REMARK                         _______ _______ _______ _____ _____    ______ ____
ROOT
ATOM      1  O   UNL     1       2.562   3.088  22.204  0.00  0.00    +0.000 OA
ATOM      2  C   UNL     1       2.703   3.244  20.994  0.00  0.00    +0.000 C 
ENDROOT
BRANCH   2   3
ATOM      3  C   UNL     1       2.009   4.416  20.312  0.00  0.00    +0.000 C 
ATOM      4  O   UNL     1       0.870   4.234  19.899  0.00  0.00    +0.000 OA
ATOM      5  N   UNL     1       2.764   5.569  20.239  0.00  0.00    +0.000 N 
ATOM      6  H   UNL     1       3.731   5.488  20.554  0.00  0.00    +0.000 HD
BRANCH   5   7
ATOM      7  C   UNL     1       2.354   6.772  19.618  0.00  0.00    +0.000 A 
ATOM      8  C   UNL     1       2.664   7.063  18.284  0.00  0.00    +0.000 A 
ATOM      9  C   UNL     1       2.359   8.304  17.726  0.00  0.00    +0.000 A 
ATOM     10  C   UNL     1       1.723   9.270  18.495  0.00  0.00    +0.000 A 
ATOM     11  C   UNL     1       1.358   8.970  19.806  0.00  0.00    +0.000 A 
ATOM     12 CL   UNL     1       0.569  10.172  20.754  0.00  0.00    +0.000 Cl
ATOM     13  C   UNL     1       1.651   7.720  20.366  0.00  0.00    +0.000 A 
ENDBRANCH   5   7
ENDBRANCH   2   3
BRANCH   2  14
ATOM     14  C   UNL     1       3.520   2.357  20.094  0.00  0.00    +0.000 C 
BRANCH  14  15
ATOM     15  C   UNL     1       4.255   3.193  19.123  0.00  0.00    +0.000 A 
ATOM     16  N   UNL     1       4.011   3.403  17.843  0.00  0.00    +0.000 NA
ATOM     17  C   UNL     1       5.000   4.277  17.461  0.00  0.00    +0.000 A 
ATOM     18  C   UNL     1       5.264   4.894  16.232  0.00  0.00    +0.000 A 
ATOM     19  C   UNL     1       6.353   5.775  16.152  0.00  0.00    +0.000 A 
ATOM     20  C   UNL     1       7.165   6.025  17.267  0.00  0.00    +0.000 A 
ATOM     21  C   UNL     1       6.920   5.408  18.500  0.00  0.00    +0.000 A 
ATOM     22  C   UNL     1       5.826   4.551  18.539  0.00  0.00    +0.000 A 
ATOM     23  O   UNL     1       5.359   3.847  19.611  0.00  0.00    +0.000 OA
ENDBRANCH  14  15
ENDBRANCH   2  14
TORSDOF 4
ENDMDL
MODEL 4
REMARK VINA RESULT:      -8.3      3.802      6.891
REMARK  Name = 
REMARK  4 active torsions:
REMARK  status: ('A' for Active; 'I' for Inactive)
REMARK    1  A    between atoms: C_2  and  C_3
REMARK    2  A    between atoms: C_2  and  C_13
REMARK    3  A    between atoms: C_3  and  C_4
REMARK    4  A    between atoms: N_15  and  C_16
REMARK                            x       y       z     vdW  Elec       q    Type
REMARK                         _______ _______ _______ _____ _____    ______ ____
ROOT
ATOM      1  O   UNL     1       2.723   2.618  22.048  0.00  0.00    +0.000 OA
ATOM      2  C   UNL     1       2.799   2.934  20.864  0.00  0.00    +0.000 C 
ENDROOT
BRANCH   2   3
ATOM      3  C   UNL     1       2.041   4.161  20.373  0.00  0.00    +0.000 C 
ATOM      4  O   UNL     1       0.839   4.038  20.170  0.00  0.00    +0.000 OA
ATOM      5  N   UNL     1       2.817   5.292  20.213  0.00  0.00    +0.000 N 
ATOM      6  H   UNL     1       3.822   5.163  20.340  0.00  0.00    +0.000 HD
BRANCH   5   7
ATOM      7  C   UNL     1       2.351   6.537  19.731  0.00  0.00    +0.000 A 
ATOM      8  C   UNL     1       2.586   6.961  18.417  0.00  0.00    +0.000 A 
ATOM      9  C   UNL     1       2.226   8.241  17.997  0.00  0.00    +0.000 A 
ATOM     10  C   UNL     1       1.609   9.113  18.885  0.00  0.00    +0.000 A 
ATOM     11  C   UNL     1       1.319   8.680  20.178  0.00  0.00    +0.000 A 
ATOM     12 CL   UNL     1       0.554   9.765  21.275  0.00  0.00    +0.000 Cl
ATOM     13  C   UNL     1       1.666   7.390  20.600  0.00  0.00    +0.000 A 
ENDBRANCH   5   7
ENDBRANCH   2   3
BRANCH   2  14
ATOM     14  C   UNL     1       3.595   2.199  19.819  0.00  0.00    +0.000 C 
BRANCH  14  15
ATOM     15  C   UNL     1       4.429   3.164  19.074  0.00  0.00    +0.000 A 
ATOM     16  N   UNL     1       5.518   3.804  19.459  0.00  0.00    +0.000 NA
ATOM     17  C   UNL     1       5.872   4.540  18.355  0.00  0.00    +0.000 A 
ATOM     18  C   UNL     1       6.951   5.403  18.126  0.00  0.00    +0.000 A 
ATOM     19  C   UNL     1       7.063   6.005  16.863  0.00  0.00    +0.000 A 
ATOM     20  C   UNL     1       6.116   5.763  15.859  0.00  0.00    +0.000 A 
ATOM     21  C   UNL     1       5.025   4.911  16.076  0.00  0.00    +0.000 A 
ATOM     22  C   UNL     1       4.957   4.327  17.336  0.00  0.00    +0.000 A 
ATOM     23  O   UNL     1       4.018   3.450  17.795  0.00  0.00    +0.000 OA
ENDBRANCH  14  15
ENDBRANCH   2  14
TORSDOF 4
ENDMDL
MODEL 5
REMARK VINA RESULT:      -8.3      2.693      6.748
REMARK  Name = 
REMARK  4 active torsions:
REMARK  status: ('A' for Active; 'I' for Inactive)
REMARK    1  A    between atoms: C_2  and  C_3
REMARK    2  A    between atoms: C_2  and  C_13
REMARK    3  A    between atoms: C_3  and  C_4
REMARK    4  A    between atoms: N_15  and  C_16
REMARK                            x       y       z     vdW  Elec       q    Type
REMARK                         _______ _______ _______ _____ _____    ______ ____
ROOT
ATOM      1  O   UNL     1       7.839   4.763  18.938  0.00  0.00    +0.000 OA
ATOM      2  C   UNL     1       6.909   5.302  18.347  0.00  0.00    +0.000 C 
ENDROOT
BRANCH   2   3
ATOM      3  C   UNL     1       5.481   5.022  18.799  0.00  0.00    +0.000 C 
ATOM      4  O   UNL     1       4.930   5.872  19.488  0.00  0.00    +0.000 OA
ATOM      5  N   UNL     1       4.966   3.816  18.366  0.00  0.00    +0.000 N 
ATOM      6  H   UNL     1       5.621   3.201  17.882  0.00  0.00    +0.000 HD
BRANCH   5   7
ATOM      7  C   UNL     1       3.683   3.317  18.688  0.00  0.00    +0.000 A 
ATOM      8  C   UNL     1       2.701   3.104  17.711  0.00  0.00    +0.000 A 
ATOM      9  C   UNL     1       1.405   2.730  18.062  0.00  0.00    +0.000 A 
ATOM     10  C   UNL     1       1.075   2.545  19.399  0.00  0.00    +0.000 A 
ATOM     11  C   UNL     1       2.060   2.697  20.373  0.00  0.00    +0.000 A 
ATOM     12 CL   UNL     1       1.645   2.467  22.029  0.00  0.00    +0.000 Cl
ATOM     13  C   UNL     1       3.367   3.061  20.025  0.00  0.00    +0.000 A 
ENDBRANCH   5   7
ENDBRANCH   2   3
BRANCH   2  14
ATOM     14  C   UNL     1       7.049   6.241  17.179  0.00  0.00    +0.000 C 
BRANCH  14  15
ATOM     15  C   UNL     1       6.790   5.502  15.926  0.00  0.00    +0.000 A 
ATOM     16  N   UNL     1       5.815   4.660  15.635  0.00  0.00    +0.000 NA
ATOM     17  C   UNL     1       6.067   4.306  14.332  0.00  0.00    +0.000 A 
ATOM     18  C   UNL     1       5.376   3.464  13.453  0.00  0.00    +0.000 A 
ATOM     19  C   UNL     1       5.872   3.314  12.150  0.00  0.00    +0.000 A 
ATOM     20  C   UNL     1       7.036   3.977  11.737  0.00  0.00    +0.000 A 
ATOM     21  C   UNL     1       7.745   4.814  12.608  0.00  0.00    +0.000 A 
ATOM     22  C   UNL     1       7.214   4.944  13.886  0.00  0.00    +0.000 A 
ATOM     23  O   UNL     1       7.691   5.707  14.911  0.00  0.00    +0.000 OA
ENDBRANCH  14  15
ENDBRANCH   2  14
TORSDOF 4
ENDMDL
MODEL 6
REMARK VINA RESULT:      -8.2      2.232      6.685
REMARK  Name = 
REMARK  4 active torsions:
REMARK  status: ('A' for Active; 'I' for Inactive)
REMARK    1  A    between atoms: C_2  and  C_3
REMARK    2  A    between atoms: C_2  and  C_13
REMARK    3  A    between atoms: C_3  and  C_4
REMARK    4  A    between atoms: N_15  and  C_16
REMARK                            x       y       z     vdW  Elec       q    Type
REMARK                         _______ _______ _______ _____ _____    ______ ____
ROOT
ATOM      1  O   UNL     1       8.077   4.518  18.249  0.00  0.00    +0.000 OA
ATOM      2  C   UNL     1       7.037   5.140  18.057  0.00  0.00    +0.000 C 
ENDROOT
BRANCH   2   3
ATOM      3  C   UNL     1       5.823   4.842  18.928  0.00  0.00    +0.000 C 
ATOM      4  O   UNL     1       6.030   4.418  20.059  0.00  0.00    +0.000 OA
ATOM      5  N   UNL     1       4.606   5.094  18.326  0.00  0.00    +0.000 N 
ATOM      6  H   UNL     1       4.643   5.352  17.339  0.00  0.00    +0.000 HD
BRANCH   5   7
ATOM      7  C   UNL     1       3.342   4.859  18.916  0.00  0.00    +0.000 A 
ATOM      8  C   UNL     1       2.831   5.680  19.930  0.00  0.00    +0.000 A 
ATOM      9  C   UNL     1       1.641   5.362  20.584  0.00  0.00    +0.000 A 
ATOM     10  C   UNL     1       0.935   4.223  20.220  0.00  0.00    +0.000 A 
ATOM     11  C   UNL     1       1.406   3.432  19.174  0.00  0.00    +0.000 A 
ATOM     12 CL   UNL     1       0.525   2.020  18.727  0.00  0.00    +0.000 Cl
ATOM     13  C   UNL     1       2.593   3.754  18.505  0.00  0.00    +0.000 A 
ENDBRANCH   5   7
ENDBRANCH   2   3
BRANCH   2  14
ATOM     14  C   UNL     1       6.839   6.199  17.006  0.00  0.00    +0.000 C 
BRANCH  14  15
ATOM     15  C   UNL     1       6.798   5.562  15.674  0.00  0.00    +0.000 A 
ATOM     16  N   UNL     1       7.709   5.553  14.719  0.00  0.00    +0.000 NA
ATOM     17  C   UNL     1       7.138   4.793  13.729  0.00  0.00    +0.000 A 
ATOM     18  C   UNL     1       7.618   4.395  12.475  0.00  0.00    +0.000 A 
ATOM     19  C   UNL     1       6.798   3.583  11.677  0.00  0.00    +0.000 A 
ATOM     20  C   UNL     1       5.526   3.188  12.113  0.00  0.00    +0.000 A 
ATOM     21  C   UNL     1       5.027   3.586  13.359  0.00  0.00    +0.000 A 
ATOM     22  C   UNL     1       5.874   4.381  14.123  0.00  0.00    +0.000 A 
ATOM     23  O   UNL     1       5.644   4.882  15.371  0.00  0.00    +0.000 OA
ENDBRANCH  14  15
ENDBRANCH   2  14
TORSDOF 4
ENDMDL
MODEL 7
REMARK VINA RESULT:      -8.1      2.833      6.985
REMARK  Name = 
REMARK  4 active torsions:
REMARK  status: ('A' for Active; 'I' for Inactive)
REMARK    1  A    between atoms: C_2  and  C_3
REMARK    2  A    between atoms: C_2  and  C_13
REMARK    3  A    between atoms: C_3  and  C_4
REMARK    4  A    between atoms: N_15  and  C_16
REMARK                            x       y       z     vdW  Elec       q    Type
REMARK                         _______ _______ _______ _____ _____    ______ ____
ROOT
ATOM      1  O   UNL     1       8.371   4.196  17.907  0.00  0.00    +0.000 OA
ATOM      2  C   UNL     1       7.425   4.976  17.843  0.00  0.00    +0.000 C 
ENDROOT
BRANCH   2   3
ATOM      3  C   UNL     1       6.373   4.958  18.944  0.00  0.00    +0.000 C 
ATOM      4  O   UNL     1       6.747   5.193  20.086  0.00  0.00    +0.000 OA
ATOM      5  N   UNL     1       5.093   4.673  18.512  0.00  0.00    +0.000 N 
ATOM      6  H   UNL     1       5.003   4.407  17.530  0.00  0.00    +0.000 HD
BRANCH   5   7
ATOM      7  C   UNL     1       3.958   4.559  19.348  0.00  0.00    +0.000 A 
ATOM      8  C   UNL     1       3.460   3.317  19.762  0.00  0.00    +0.000 A 
ATOM      9  C   UNL     1       2.271   3.220  20.483  0.00  0.00    +0.000 A 
ATOM     10  C   UNL     1       1.569   4.371  20.818  0.00  0.00    +0.000 A 
ATOM     11  C   UNL     1       2.087   5.615  20.461  0.00  0.00    +0.000 A 
ATOM     12 CL   UNL     1       1.211   7.039  20.878  0.00  0.00    +0.000 Cl
ATOM     13  C   UNL     1       3.287   5.718  19.748  0.00  0.00    +0.000 A 
ENDBRANCH   5   7
ENDBRANCH   2   3
BRANCH   2  14
ATOM     14  C   UNL     1       7.199   5.978  16.742  0.00  0.00    +0.000 C 
BRANCH  14  15
ATOM     15  C   UNL     1       6.796   5.266  15.511  0.00  0.00    +0.000 A 
ATOM     16  N   UNL     1       5.711   4.554  15.272  0.00  0.00    +0.000 NA
ATOM     17  C   UNL     1       5.862   4.158  13.965  0.00  0.00    +0.000 A 
ATOM     18  C   UNL     1       5.034   3.403  13.126  0.00  0.00    +0.000 A 
ATOM     19  C   UNL     1       5.453   3.179  11.806  0.00  0.00    +0.000 A 
ATOM     20  C   UNL     1       6.674   3.684  11.338  0.00  0.00    +0.000 A 
ATOM     21  C   UNL     1       7.519   4.432  12.168  0.00  0.00    +0.000 A 
ATOM     22  C   UNL     1       7.062   4.640  13.464  0.00  0.00    +0.000 A 
ATOM     23  O   UNL     1       7.674   5.346  14.459  0.00  0.00    +0.000 OA
ENDBRANCH  14  15
ENDBRANCH   2  14
TORSDOF 4
ENDMDL
MODEL 8
REMARK VINA RESULT:      -8.0      2.165      6.645
REMARK  Name = 
REMARK  4 active torsions:
REMARK  status: ('A' for Active; 'I' for Inactive)
REMARK    1  A    between atoms: C_2  and  C_3
REMARK    2  A    between atoms: C_2  and  C_13
REMARK    3  A    between atoms: C_3  and  C_4
REMARK    4  A    between atoms: N_15  and  C_16
REMARK                            x       y       z     vdW  Elec       q    Type
REMARK                         _______ _______ _______ _____ _____    ______ ____
ROOT
ATOM      1  O   UNL     1       8.068   5.249  18.786  0.00  0.00    +0.000 OA
ATOM      2  C   UNL     1       6.951   5.578  18.397  0.00  0.00    +0.000 C 
ENDROOT
BRANCH   2   3
ATOM      3  C   UNL     1       5.725   5.020  19.107  0.00  0.00    +0.000 C 
ATOM      4  O   UNL     1       5.909   4.171  19.970  0.00  0.00    +0.000 OA
ATOM      5  N   UNL     1       4.523   5.551  18.682  0.00  0.00    +0.000 N 
ATOM      6  H   UNL     1       4.572   6.178  17.878  0.00  0.00    +0.000 HD
BRANCH   5   7
ATOM      7  C   UNL     1       3.249   5.165  19.160  0.00  0.00    +0.000 A 
ATOM      8  C   UNL     1       2.585   5.878  20.167  0.00  0.00    +0.000 A 
ATOM      9  C   UNL     1       1.388   5.412  20.710  0.00  0.00    +0.000 A 
ATOM     10  C   UNL     1       0.827   4.232  20.241  0.00  0.00    +0.000 A 
ATOM     11  C   UNL     1       1.450   3.546  19.199  0.00  0.00    +0.000 A 
ATOM     12 CL   UNL     1       0.750   2.082  18.621  0.00  0.00    +0.000 Cl
ATOM     13  C   UNL     1       2.646   4.016  18.641  0.00  0.00    +0.000 A 
ENDBRANCH   5   7
ENDBRANCH   2   3
BRANCH   2  14
ATOM     14  C   UNL     1       6.671   6.506  17.245  0.00  0.00    +0.000 C 
BRANCH  14  15
ATOM     15  C   UNL     1       6.492   5.712  16.012  0.00  0.00    +0.000 A 
ATOM     16  N   UNL     1       5.481   4.946  15.647  0.00  0.00    +0.000 NA
ATOM     17  C   UNL     1       5.851   4.483  14.408  0.00  0.00    +0.000 A 
ATOM     18  C   UNL     1       5.190   3.652  13.496  0.00  0.00    +0.000 A 
ATOM     19  C   UNL     1       5.822   3.370  12.276  0.00  0.00    +0.000 A 
ATOM     20  C   UNL     1       7.087   3.894  11.978  0.00  0.00    +0.000 A 
ATOM     21  C   UNL     1       7.766   4.719  12.884  0.00  0.00    +0.000 A 
ATOM     22  C   UNL     1       7.101   4.982  14.076  0.00  0.00    +0.000 A 
ATOM     23  O   UNL     1       7.525   5.765  15.109  0.00  0.00    +0.000 OA
ENDBRANCH  14  15
ENDBRANCH   2  14
TORSDOF 4
ENDMDL
MODEL 9
REMARK VINA RESULT:      -8.0      2.761      6.672
REMARK  Name = 
REMARK  4 active torsions:
REMARK  status: ('A' for Active; 'I' for Inactive)
REMARK    1  A    between atoms: C_2  and  C_3
REMARK    2  A    between atoms: C_2  and  C_13
REMARK    3  A    between atoms: C_3  and  C_4
REMARK    4  A    between atoms: N_15  and  C_16
REMARK                            x       y       z     vdW  Elec       q    Type
REMARK                         _______ _______ _______ _____ _____    ______ ____
ROOT
ATOM      1  O   UNL     1       7.895   4.578  18.765  0.00  0.00    +0.000 OA
ATOM      2  C   UNL     1       6.977   5.197  18.236  0.00  0.00    +0.000 C 
ENDROOT
BRANCH   2   3
ATOM      3  C   UNL     1       5.544   4.912  18.668  0.00  0.00    +0.000 C 
ATOM      4  O   UNL     1       4.946   5.798  19.265  0.00  0.00    +0.000 OA
ATOM      5  N   UNL     1       5.079   3.657  18.325  0.00  0.00    +0.000 N 
ATOM      6  H   UNL     1       5.767   3.025  17.915  0.00  0.00    +0.000 HD
BRANCH   5   7
ATOM      7  C   UNL     1       3.801   3.147  18.650  0.00  0.00    +0.000 A 
ATOM      8  C   UNL     1       2.852   2.838  17.667  0.00  0.00    +0.000 A 
ATOM      9  C   UNL     1       1.556   2.453  18.011  0.00  0.00    +0.000 A 
ATOM     10  C   UNL     1       1.196   2.355  19.349  0.00  0.00    +0.000 A 
ATOM     11  C   UNL     1       2.150   2.603  20.334  0.00  0.00    +0.000 A 
ATOM     12 CL   UNL     1       1.698   2.480  21.991  0.00  0.00    +0.000 Cl
ATOM     13  C   UNL     1       3.456   2.978  19.993  0.00  0.00    +0.000 A 
ENDBRANCH   5   7
ENDBRANCH   2   3
BRANCH   2  14
ATOM     14  C   UNL     1       7.138   6.244  17.166  0.00  0.00    +0.000 C 
BRANCH  14  15
ATOM     15  C   UNL     1       6.980   5.612  15.840  0.00  0.00    +0.000 A 
ATOM     16  N   UNL     1       7.821   5.575  14.823  0.00  0.00    +0.000 NA
ATOM     17  C   UNL     1       7.154   4.837  13.875  0.00  0.00    +0.000 A 
ATOM     18  C   UNL     1       7.531   4.427  12.590  0.00  0.00    +0.000 A 
ATOM     19  C   UNL     1       6.629   3.645  11.852  0.00  0.00    +0.000 A 
ATOM     20  C   UNL     1       5.378   3.293  12.378  0.00  0.00    +0.000 A 
ATOM     21  C   UNL     1       4.983   3.704  13.657  0.00  0.00    +0.000 A 
ATOM     22  C   UNL     1       5.909   4.467  14.358  0.00  0.00    +0.000 A 
ATOM     23  O   UNL     1       5.785   4.972  15.620  0.00  0.00    +0.000 OA
ENDBRANCH  14  15
ENDBRANCH   2  14
TORSDOF 4
ENDMDL
