MODEL 1
REMARK VINA RESULT:      -7.3      0.000      0.000
REMARK  Name = 
REMARK  5 active torsions:
REMARK  status: ('A' for Active; 'I' for Inactive)
REMARK    1  A    between atoms: C_1  and  N_2
REMARK    2  A    between atoms: N_5  and  N_6
REMARK    3  A    between atoms: C_7  and  C_9
REMARK    4  A    between atoms: C_9  and  N_10
REMARK    5  A    between atoms: C_14  and  C_15
REMARK                            x       y       z     vdW  Elec       q    Type
REMARK                         _______ _______ _______ _____ _____    ______ ____
ROOT
ATOM      1  N   UNL     1       1.385   9.340  19.580  0.00  0.00    +0.000 N 
ATOM      2  C   UNL     1       1.914   8.698  18.476  0.00  0.00    +0.000 C 
ATOM      3  O   UNL     1       2.166   9.237  17.402  0.00  0.00    +0.000 OA
ATOM      4  C   UNL     1       2.167   7.265  18.780  0.00  0.00    +0.000 C 
ATOM      5  C   UNL     1       2.576   6.386  17.855  0.00  0.00    +0.000 C 
ATOM      6  S   UNL     1       1.850   6.958  20.441  0.00  0.00    +0.000 S 
ATOM      7  C   UNL     1       1.281   8.598  20.738  0.00  0.00    +0.000 C 
ATOM      8  S   UNL     1       0.691   9.068  22.222  0.00  0.00    +0.000 S 
ENDROOT
BRANCH   5   9
ATOM      9  C   UNL     1       2.875   4.967  18.127  0.00  0.00    +0.000 A 
ATOM     10  C   UNL     1       1.924   3.983  17.831  0.00  0.00    +0.000 A 
ATOM     11  F   UNL     1       0.757   4.325  17.259  0.00  0.00    +0.000 F 
ATOM     12  C   UNL     1       2.150   2.637  18.115  0.00  0.00    +0.000 A 
ATOM     13  C   UNL     1       3.349   2.247  18.706  0.00  0.00    +0.000 A 
ATOM     14  C   UNL     1       4.319   3.208  18.997  0.00  0.00    +0.000 A 
ATOM     15  C   UNL     1       4.084   4.558  18.710  0.00  0.00    +0.000 A 
ATOM     16 CL   UNL     1       5.334   5.693  19.092  0.00  0.00    +0.000 Cl
ENDBRANCH   5   9
BRANCH   1  17
ATOM     17  C   UNL     1       0.991  10.740  19.447  0.00  0.00    +0.000 C 
BRANCH  17  19
ATOM     18  N   UNL     1      -1.162  10.599  18.323  0.00  0.00    +0.000 N 
ATOM     19  C   UNL     1      -0.527  10.880  19.530  0.00  0.00    +0.000 C 
ATOM     20  O   UNL     1      -1.087  11.265  20.553  0.00  0.00    +0.000 OA
ATOM     21  H   UNL     1      -0.608  10.491  17.474  0.00  0.00    +0.000 HD
BRANCH  18  26
ATOM     22  C   UNL     1      -3.281  10.095  14.016  0.00  0.00    +0.000 C 
ATOM     23  N   UNL     1      -3.482  10.276  15.449  0.00  0.00    +0.000 NA
ATOM     24  C   UNL     1      -2.904  11.552  15.915  0.00  0.00    +0.000 C 
ATOM     25  C   UNL     1      -3.073  11.748  17.438  0.00  0.00    +0.000 C 
ATOM     26  N   UNL     1      -2.572  10.619  18.251  0.00  0.00    +0.000 NA
ATOM     27  C   UNL     1      -3.120   9.351  17.733  0.00  0.00    +0.000 C 
ATOM     28  C   UNL     1      -2.908   9.159  16.216  0.00  0.00    +0.000 C 
ENDBRANCH  18  26
ENDBRANCH  17  19
ENDBRANCH   1  17
TORSDOF 4
ENDMDL
MODEL 2
REMARK VINA RESULT:      -7.1      2.492      3.754
REMARK  Name = 
REMARK  5 active torsions:
REMARK  status: ('A' for Active; 'I' for Inactive)
REMARK    1  A    between atoms: C_1  and  N_2
REMARK    2  A    between atoms: N_5  and  N_6
REMARK    3  A    between atoms: C_7  and  C_9
REMARK    4  A    between atoms: C_9  and  N_10
REMARK    5  A    between atoms: C_14  and  C_15
REMARK                            x       y       z     vdW  Elec       q    Type
REMARK                         _______ _______ _______ _____ _____    ______ ____
ROOT
ATOM      1  N   UNL     1       1.458   9.294  19.570  0.00  0.00    +0.000 N 
ATOM      2  C   UNL     1       1.978   8.637  18.470  0.00  0.00    +0.000 C 
ATOM      3  O   UNL     1       2.240   9.165  17.393  0.00  0.00    +0.000 OA
ATOM      4  C   UNL     1       2.209   7.202  18.784  0.00  0.00    +0.000 C 
ATOM      5  C   UNL     1       2.605   6.311  17.864  0.00  0.00    +0.000 C 
ATOM      6  S   UNL     1       1.886   6.910  20.446  0.00  0.00    +0.000 S 
ATOM      7  C   UNL     1       1.341   8.561  20.732  0.00  0.00    +0.000 C 
ATOM      8  S   UNL     1       0.757   9.050  22.212  0.00  0.00    +0.000 S 
ENDROOT
BRANCH   5   9
ATOM      9  C   UNL     1       2.881   4.889  18.146  0.00  0.00    +0.000 A 
ATOM     10  C   UNL     1       1.923   3.916  17.839  0.00  0.00    +0.000 A 
ATOM     11  F   UNL     1       0.769   4.272  17.249  0.00  0.00    +0.000 F 
ATOM     12  C   UNL     1       2.127   2.568  18.132  0.00  0.00    +0.000 A 
ATOM     13  C   UNL     1       3.313   2.166  18.741  0.00  0.00    +0.000 A 
ATOM     14  C   UNL     1       4.290   3.115  19.043  0.00  0.00    +0.000 A 
ATOM     15  C   UNL     1       4.077   4.467  18.747  0.00  0.00    +0.000 A 
ATOM     16 CL   UNL     1       5.335   5.587  19.144  0.00  0.00    +0.000 Cl
ENDBRANCH   5   9
BRANCH   1  17
ATOM     17  C   UNL     1       1.086  10.698  19.427  0.00  0.00    +0.000 C 
BRANCH  17  19
ATOM     18  N   UNL     1      -0.657  11.807  20.712  0.00  0.00    +0.000 N 
ATOM     19  C   UNL     1      -0.404  10.889  19.697  0.00  0.00    +0.000 C 
ATOM     20  O   UNL     1      -1.259  10.237  19.103  0.00  0.00    +0.000 OA
ATOM     21  H   UNL     1       0.112  12.145  21.291  0.00  0.00    +0.000 HD
BRANCH  18  26
ATOM     22  C   UNL     1      -1.484  15.820  23.264  0.00  0.00    +0.000 C 
ATOM     23  N   UNL     1      -2.078  14.667  22.597  0.00  0.00    +0.000 NA
ATOM     24  C   UNL     1      -1.631  13.402  23.213  0.00  0.00    +0.000 C 
ATOM     25  C   UNL     1      -2.219  12.165  22.497  0.00  0.00    +0.000 C 
ATOM     26  N   UNL     1      -1.988  12.146  21.037  0.00  0.00    +0.000 NA
ATOM     27  C   UNL     1      -2.391  13.439  20.453  0.00  0.00    +0.000 C 
ATOM     28  C   UNL     1      -1.764  14.660  21.158  0.00  0.00    +0.000 C 
ENDBRANCH  18  26
ENDBRANCH  17  19
ENDBRANCH   1  17
TORSDOF 4
ENDMDL
MODEL 3
REMARK VINA RESULT:      -7.1      3.195      4.484
REMARK  Name = 
REMARK  5 active torsions:
REMARK  status: ('A' for Active; 'I' for Inactive)
REMARK    1  A    between atoms: C_1  and  N_2
REMARK    2  A    between atoms: N_5  and  N_6
REMARK    3  A    between atoms: C_7  and  C_9
REMARK    4  A    between atoms: C_9  and  N_10
REMARK    5  A    between atoms: C_14  and  C_15
REMARK                            x       y       z     vdW  Elec       q    Type
REMARK                         _______ _______ _______ _____ _____    ______ ____
ROOT
ATOM      1  N   UNL     1       1.102   9.896  19.425  0.00  0.00    +0.000 N 
ATOM      2  C   UNL     1       1.884   9.526  18.348  0.00  0.00    +0.000 C 
ATOM      3  O   UNL     1       2.177  10.257  17.406  0.00  0.00    +0.000 OA
ATOM      4  C   UNL     1       2.353   8.124  18.503  0.00  0.00    +0.000 C 
ATOM      5  C   UNL     1       3.038   7.475  17.550  0.00  0.00    +0.000 C 
ATOM      6  S   UNL     1       1.875   7.517  20.038  0.00  0.00    +0.000 S 
ATOM      7  C   UNL     1       0.979   8.978  20.447  0.00  0.00    +0.000 C 
ATOM      8  S   UNL     1       0.117   9.113  21.864  0.00  0.00    +0.000 S 
ENDROOT
BRANCH   5   9
ATOM      9  C   UNL     1       3.551   6.099  17.684  0.00  0.00    +0.000 A 
ATOM     10  C   UNL     1       2.659   5.023  17.756  0.00  0.00    +0.000 A 
ATOM     11  F   UNL     1       1.335   5.239  17.661  0.00  0.00    +0.000 F 
ATOM     12  C   UNL     1       3.103   3.713  17.928  0.00  0.00    +0.000 A 
ATOM     13  C   UNL     1       4.467   3.453  18.028  0.00  0.00    +0.000 A 
ATOM     14  C   UNL     1       5.378   4.507  17.944  0.00  0.00    +0.000 A 
ATOM     15  C   UNL     1       4.924   5.820  17.773  0.00  0.00    +0.000 A 
ATOM     16 CL   UNL     1       6.111   7.076  17.671  0.00  0.00    +0.000 Cl
ENDBRANCH   5   9
BRANCH   1  17
ATOM     17  C   UNL     1       0.480  11.217  19.410  0.00  0.00    +0.000 C 
BRANCH  17  19
ATOM     18  N   UNL     1       2.106  13.022  19.290  0.00  0.00    +0.000 N 
ATOM     19  C   UNL     1       1.351  12.229  20.149  0.00  0.00    +0.000 C 
ATOM     20  O   UNL     1       1.400  12.268  21.376  0.00  0.00    +0.000 OA
ATOM     21  H   UNL     1       2.160  12.783  18.299  0.00  0.00    +0.000 HD
BRANCH  18  26
ATOM     22  C   UNL     1       2.467  17.170  16.848  0.00  0.00    +0.000 C 
ATOM     23  N   UNL     1       2.872  16.426  18.036  0.00  0.00    +0.000 NA
ATOM     24  C   UNL     1       3.634  15.214  17.676  0.00  0.00    +0.000 C 
ATOM     25  C   UNL     1       4.041  14.390  18.918  0.00  0.00    +0.000 C 
ATOM     26  N   UNL     1       2.915  14.053  19.815  0.00  0.00    +0.000 NA
ATOM     27  C   UNL     1       2.137  15.270  20.116  0.00  0.00    +0.000 C 
ATOM     28  C   UNL     1       1.709  16.059  18.860  0.00  0.00    +0.000 C 
ENDBRANCH  18  26
ENDBRANCH  17  19
ENDBRANCH   1  17
TORSDOF 4
ENDMDL
MODEL 4
REMARK VINA RESULT:      -7.0      3.860      4.490
REMARK  Name = 
REMARK  5 active torsions:
REMARK  status: ('A' for Active; 'I' for Inactive)
REMARK    1  A    between atoms: C_1  and  N_2
REMARK    2  A    between atoms: N_5  and  N_6
REMARK    3  A    between atoms: C_7  and  C_9
REMARK    4  A    between atoms: C_9  and  N_10
REMARK    5  A    between atoms: C_14  and  C_15
REMARK                            x       y       z     vdW  Elec       q    Type
REMARK                         _______ _______ _______ _____ _____    ______ ____
ROOT
ATOM      1  N   UNL     1       1.482   7.504  20.142  0.00  0.00    +0.000 N 
ATOM      2  C   UNL     1       2.123   6.299  20.353  0.00  0.00    +0.000 C 
ATOM      3  O   UNL     1       1.831   5.490  21.230  0.00  0.00    +0.000 OA
ATOM      4  C   UNL     1       3.199   6.099  19.347  0.00  0.00    +0.000 C 
ATOM      5  C   UNL     1       4.050   5.063  19.386  0.00  0.00    +0.000 C 
ATOM      6  S   UNL     1       3.160   7.371  18.192  0.00  0.00    +0.000 S 
ATOM      7  C   UNL     1       1.870   8.228  19.034  0.00  0.00    +0.000 C 
ATOM      8  S   UNL     1       1.304   9.702  18.506  0.00  0.00    +0.000 S 
ENDROOT
BRANCH   5   9
ATOM      9  C   UNL     1       5.103   4.812  18.385  0.00  0.00    +0.000 A 
ATOM     10  C   UNL     1       6.420   5.218  18.637  0.00  0.00    +0.000 A 
ATOM     11  F   UNL     1       6.732   5.798  19.809  0.00  0.00    +0.000 F 
ATOM     12  C   UNL     1       7.434   5.039  17.697  0.00  0.00    +0.000 A 
ATOM     13  C   UNL     1       7.145   4.440  16.474  0.00  0.00    +0.000 A 
ATOM     14  C   UNL     1       5.844   4.013  16.205  0.00  0.00    +0.000 A 
ATOM     15  C   UNL     1       4.831   4.197  17.153  0.00  0.00    +0.000 A 
ATOM     16 CL   UNL     1       3.242   3.637  16.754  0.00  0.00    +0.000 Cl
ENDBRANCH   5   9
BRANCH   1  17
ATOM     17  C   UNL     1       0.447   7.915  21.086  0.00  0.00    +0.000 C 
BRANCH  17  19
ATOM     18  N   UNL     1      -0.131  10.231  21.560  0.00  0.00    +0.000 N 
ATOM     19  C   UNL     1       0.822   9.235  21.754  0.00  0.00    +0.000 C 
ATOM     20  O   UNL     1       1.892   9.383  22.340  0.00  0.00    +0.000 OA
ATOM     21  H   UNL     1      -0.885  10.083  20.889  0.00  0.00    +0.000 HD
BRANCH  18  26
ATOM     22  C   UNL     1      -3.351  13.708  20.645  0.00  0.00    +0.000 C 
ATOM     23  N   UNL     1      -2.137  13.343  21.366  0.00  0.00    +0.000 NA
ATOM     24  C   UNL     1      -1.044  12.996  20.436  0.00  0.00    +0.000 C 
ATOM     25  C   UNL     1       0.241  12.570  21.180  0.00  0.00    +0.000 C 
ATOM     26  N   UNL     1       0.036  11.492  22.171  0.00  0.00    +0.000 NA
ATOM     27  C   UNL     1      -1.095  11.837  23.053  0.00  0.00    +0.000 C 
ATOM     28  C   UNL     1      -2.380  12.224  22.291  0.00  0.00    +0.000 C 
ENDBRANCH  18  26
ENDBRANCH  17  19
ENDBRANCH   1  17
TORSDOF 4
ENDMDL
MODEL 5
REMARK VINA RESULT:      -6.9      3.545      4.174
REMARK  Name = 
REMARK  5 active torsions:
REMARK  status: ('A' for Active; 'I' for Inactive)
REMARK    1  A    between atoms: C_1  and  N_2
REMARK    2  A    between atoms: N_5  and  N_6
REMARK    3  A    between atoms: C_7  and  C_9
REMARK    4  A    between atoms: C_9  and  N_10
REMARK    5  A    between atoms: C_14  and  C_15
REMARK                            x       y       z     vdW  Elec       q    Type
REMARK                         _______ _______ _______ _____ _____    ______ ____
ROOT
ATOM      1  N   UNL     1       1.631   7.378  20.121  0.00  0.00    +0.000 N 
ATOM      2  C   UNL     1       2.290   6.170  20.250  0.00  0.00    +0.000 C 
ATOM      3  O   UNL     1       2.064   5.334  21.120  0.00  0.00    +0.000 OA
ATOM      4  C   UNL     1       3.290   6.005  19.163  0.00  0.00    +0.000 C 
ATOM      5  C   UNL     1       4.145   4.974  19.110  0.00  0.00    +0.000 C 
ATOM      6  S   UNL     1       3.164   7.311  18.053  0.00  0.00    +0.000 S 
ATOM      7  C   UNL     1       1.936   8.136  19.010  0.00  0.00    +0.000 C 
ATOM      8  S   UNL     1       1.329   9.622  18.569  0.00  0.00    +0.000 S 
ENDROOT
BRANCH   5   9
ATOM      9  C   UNL     1       5.125   4.758  18.028  0.00  0.00    +0.000 A 
ATOM     10  C   UNL     1       4.704   4.241  16.797  0.00  0.00    +0.000 A 
ATOM     11  F   UNL     1       3.402   3.981  16.586  0.00  0.00    +0.000 F 
ATOM     12  C   UNL     1       5.606   3.980  15.766  0.00  0.00    +0.000 A 
ATOM     13  C   UNL     1       6.961   4.239  15.951  0.00  0.00    +0.000 A 
ATOM     14  C   UNL     1       7.403   4.769  17.164  0.00  0.00    +0.000 A 
ATOM     15  C   UNL     1       6.492   5.027  18.195  0.00  0.00    +0.000 A 
ATOM     16 CL   UNL     1       7.110   5.690  19.670  0.00  0.00    +0.000 Cl
ENDBRANCH   5   9
BRANCH   1  17
ATOM     17  C   UNL     1       0.665   7.755  21.149  0.00  0.00    +0.000 C 
BRANCH  17  19
ATOM     18  N   UNL     1      -0.010  10.052  21.584  0.00  0.00    +0.000 N 
ATOM     19  C   UNL     1       1.013   9.120  21.738  0.00  0.00    +0.000 C 
ATOM     20  O   UNL     1       2.113   9.351  22.232  0.00  0.00    +0.000 OA
ATOM     21  H   UNL     1      -0.803   9.836  20.980  0.00  0.00    +0.000 HD
BRANCH  18  26
ATOM     22  C   UNL     1      -3.299  13.413  20.496  0.00  0.00    +0.000 C 
ATOM     23  N   UNL     1      -2.080  13.109  21.236  0.00  0.00    +0.000 NA
ATOM     24  C   UNL     1      -0.977  12.740  20.327  0.00  0.00    +0.000 C 
ATOM     25  C   UNL     1       0.315  12.377  21.092  0.00  0.00    +0.000 C 
ATOM     26  N   UNL     1       0.130  11.344  22.134  0.00  0.00    +0.000 NA
ATOM     27  C   UNL     1      -1.011  11.707  22.996  0.00  0.00    +0.000 C 
ATOM     28  C   UNL     1      -2.302  12.030  22.214  0.00  0.00    +0.000 C 
ENDBRANCH  18  26
ENDBRANCH  17  19
ENDBRANCH   1  17
TORSDOF 4
ENDMDL
MODEL 6
REMARK VINA RESULT:      -6.7      3.885      4.520
REMARK  Name = 
REMARK  5 active torsions:
REMARK  status: ('A' for Active; 'I' for Inactive)
REMARK    1  A    between atoms: C_1  and  N_2
REMARK    2  A    between atoms: N_5  and  N_6
REMARK    3  A    between atoms: C_7  and  C_9
REMARK    4  A    between atoms: C_9  and  N_10
REMARK    5  A    between atoms: C_14  and  C_15
REMARK                            x       y       z     vdW  Elec       q    Type
REMARK                         _______ _______ _______ _____ _____    ______ ____
ROOT
ATOM      1  N   UNL     1       1.579   7.741  19.954  0.00  0.00    +0.000 N 
ATOM      2  C   UNL     1       2.206   6.545  20.249  0.00  0.00    +0.000 C 
ATOM      3  O   UNL     1       1.915   5.811  21.189  0.00  0.00    +0.000 OA
ATOM      4  C   UNL     1       3.263   6.252  19.246  0.00  0.00    +0.000 C 
ATOM      5  C   UNL     1       4.100   5.209  19.354  0.00  0.00    +0.000 C 
ATOM      6  S   UNL     1       3.226   7.432  17.998  0.00  0.00    +0.000 S 
ATOM      7  C   UNL     1       1.962   8.371  18.789  0.00  0.00    +0.000 C 
ATOM      8  S   UNL     1       1.409   9.809  18.157  0.00  0.00    +0.000 S 
ENDROOT
BRANCH   5   9
ATOM      9  C   UNL     1       5.135   4.865  18.361  0.00  0.00    +0.000 A 
ATOM     10  C   UNL     1       6.471   5.214  18.593  0.00  0.00    +0.000 A 
ATOM     11  F   UNL     1       6.817   5.824  19.740  0.00  0.00    +0.000 F 
ATOM     12  C   UNL     1       7.471   4.947  17.659  0.00  0.00    +0.000 A 
ATOM     13  C   UNL     1       7.147   4.315  16.461  0.00  0.00    +0.000 A 
ATOM     14  C   UNL     1       5.824   3.943  16.213  0.00  0.00    +0.000 A 
ATOM     15  C   UNL     1       4.826   4.216  17.156  0.00  0.00    +0.000 A 
ATOM     16 CL   UNL     1       3.209   3.722  16.783  0.00  0.00    +0.000 Cl
ENDBRANCH   5   9
BRANCH   1  17
ATOM     17  C   UNL     1       0.564   8.239  20.878  0.00  0.00    +0.000 C 
BRANCH  17  19
ATOM     18  N   UNL     1       0.458  10.656  21.139  0.00  0.00    +0.000 N 
ATOM     19  C   UNL     1       1.061   9.489  21.599  0.00  0.00    +0.000 C 
ATOM     20  O   UNL     1       1.947   9.437  22.448  0.00  0.00    +0.000 OA
ATOM     21  H   UNL     1      -0.111  10.630  20.292  0.00  0.00    +0.000 HD
BRANCH  18  26
ATOM     22  C   UNL     1      -0.337  14.731  18.677  0.00  0.00    +0.000 C 
ATOM     23  N   UNL     1       0.131  14.145  19.928  0.00  0.00    +0.000 NA
ATOM     24  C   UNL     1       1.318  13.295  19.711  0.00  0.00    +0.000 C 
ATOM     25  C   UNL     1       1.809  12.634  21.019  0.00  0.00    +0.000 C 
ATOM     26  N   UNL     1       0.761  11.891  21.750  0.00  0.00    +0.000 NA
ATOM     27  C   UNL     1      -0.434  12.742  21.907  0.00  0.00    +0.000 C 
ATOM     28  C   UNL     1      -0.930  13.363  20.583  0.00  0.00    +0.000 C 
ENDBRANCH  18  26
ENDBRANCH  17  19
ENDBRANCH   1  17
TORSDOF 4
ENDMDL
MODEL 7
REMARK VINA RESULT:      -6.6      1.425      1.698
REMARK  Name = 
REMARK  5 active torsions:
REMARK  status: ('A' for Active; 'I' for Inactive)
REMARK    1  A    between atoms: C_1  and  N_2
REMARK    2  A    between atoms: N_5  and  N_6
REMARK    3  A    between atoms: C_7  and  C_9
REMARK    4  A    between atoms: C_9  and  N_10
REMARK    5  A    between atoms: C_14  and  C_15
REMARK                            x       y       z     vdW  Elec       q    Type
REMARK                         _______ _______ _______ _____ _____    ______ ____
ROOT
ATOM      1  N   UNL     1       1.358   9.522  19.584  0.00  0.00    +0.000 N 
ATOM      2  C   UNL     1       1.985   8.877  18.535  0.00  0.00    +0.000 C 
ATOM      3  O   UNL     1       2.281   9.398  17.464  0.00  0.00    +0.000 OA
ATOM      4  C   UNL     1       2.282   7.466  18.895  0.00  0.00    +0.000 C 
ATOM      5  C   UNL     1       2.788   6.582  18.023  0.00  0.00    +0.000 C 
ATOM      6  S   UNL     1       1.873   7.187  20.541  0.00  0.00    +0.000 S 
ATOM      7  C   UNL     1       1.213   8.807  20.754  0.00  0.00    +0.000 C 
ATOM      8  S   UNL     1       0.509   9.288  22.184  0.00  0.00    +0.000 S 
ENDROOT
BRANCH   5   9
ATOM      9  C   UNL     1       3.131   5.186  18.355  0.00  0.00    +0.000 A 
ATOM     10  C   UNL     1       4.338   4.897  19.002  0.00  0.00    +0.000 A 
ATOM     11  F   UNL     1       5.165   5.895  19.359  0.00  0.00    +0.000 F 
ATOM     12  C   UNL     1       4.719   3.588  19.292  0.00  0.00    +0.000 A 
ATOM     13  C   UNL     1       3.885   2.531  18.938  0.00  0.00    +0.000 A 
ATOM     14  C   UNL     1       2.669   2.794  18.305  0.00  0.00    +0.000 A 
ATOM     15  C   UNL     1       2.294   4.112  18.016  0.00  0.00    +0.000 A 
ATOM     16 CL   UNL     1       0.770   4.363  17.236  0.00  0.00    +0.000 Cl
ENDBRANCH   5   9
BRANCH   1  17
ATOM     17  C   UNL     1       0.912  10.898  19.386  0.00  0.00    +0.000 C 
BRANCH  17  19
ATOM     18  N   UNL     1      -1.222  10.544  18.273  0.00  0.00    +0.000 N 
ATOM     19  C   UNL     1      -0.611  10.982  19.444  0.00  0.00    +0.000 C 
ATOM     20  O   UNL     1      -1.197  11.452  20.416  0.00  0.00    +0.000 OA
ATOM     21  H   UNL     1      -0.655  10.368  17.443  0.00  0.00    +0.000 HD
BRANCH  18  26
ATOM     22  C   UNL     1      -3.291  10.133  13.931  0.00  0.00    +0.000 C 
ATOM     23  N   UNL     1      -3.508  10.238  15.369  0.00  0.00    +0.000 NA
ATOM     24  C   UNL     1      -2.998  11.518  15.898  0.00  0.00    +0.000 C 
ATOM     25  C   UNL     1      -3.184  11.635  17.427  0.00  0.00    +0.000 C 
ATOM     26  N   UNL     1      -2.630  10.497  18.191  0.00  0.00    +0.000 NA
ATOM     27  C   UNL     1      -3.111   9.228  17.611  0.00  0.00    +0.000 C 
ATOM     28  C   UNL     1      -2.882   9.116  16.089  0.00  0.00    +0.000 C 
ENDBRANCH  18  26
ENDBRANCH  17  19
ENDBRANCH   1  17
TORSDOF 4
ENDMDL
MODEL 8
REMARK VINA RESULT:      -6.6      3.636      4.221
REMARK  Name = 
REMARK  5 active torsions:
REMARK  status: ('A' for Active; 'I' for Inactive)
REMARK    1  A    between atoms: C_1  and  N_2
REMARK    2  A    between atoms: N_5  and  N_6
REMARK    3  A    between atoms: C_7  and  C_9
REMARK    4  A    between atoms: C_9  and  N_10
REMARK    5  A    between atoms: C_14  and  C_15
REMARK                            x       y       z     vdW  Elec       q    Type
REMARK                         _______ _______ _______ _____ _____    ______ ____
ROOT
ATOM      1  N   UNL     1       1.639   7.652  19.853  0.00  0.00    +0.000 N 
ATOM      2  C   UNL     1       2.285   6.456  20.101  0.00  0.00    +0.000 C 
ATOM      3  O   UNL     1       2.033   5.700  21.035  0.00  0.00    +0.000 OA
ATOM      4  C   UNL     1       3.310   6.192  19.057  0.00  0.00    +0.000 C 
ATOM      5  C   UNL     1       4.157   5.155  19.114  0.00  0.00    +0.000 C 
ATOM      6  S   UNL     1       3.220   7.398  17.836  0.00  0.00    +0.000 S 
ATOM      7  C   UNL     1       1.977   8.309  18.689  0.00  0.00    +0.000 C 
ATOM      8  S   UNL     1       1.392   9.756  18.106  0.00  0.00    +0.000 S 
ENDROOT
BRANCH   5   9
ATOM      9  C   UNL     1       5.160   4.840  18.078  0.00  0.00    +0.000 A 
ATOM     10  C   UNL     1       4.755   4.292  16.856  0.00  0.00    +0.000 A 
ATOM     11  F   UNL     1       3.449   4.092  16.608  0.00  0.00    +0.000 F 
ATOM     12  C   UNL     1       5.675   3.939  15.870  0.00  0.00    +0.000 A 
ATOM     13  C   UNL     1       7.036   4.135  16.093  0.00  0.00    +0.000 A 
ATOM     14  C   UNL     1       7.464   4.694  17.298  0.00  0.00    +0.000 A 
ATOM     15  C   UNL     1       6.533   5.045  18.283  0.00  0.00    +0.000 A 
ATOM     16 CL   UNL     1       7.135   5.739  19.750  0.00  0.00    +0.000 Cl
ENDBRANCH   5   9
BRANCH   1  17
ATOM     17  C   UNL     1       0.653   8.123  20.821  0.00  0.00    +0.000 C 
BRANCH  17  19
ATOM     18  N   UNL     1       0.614  10.546  21.035  0.00  0.00    +0.000 N 
ATOM     19  C   UNL     1       1.159   9.370  21.541  0.00  0.00    +0.000 C 
ATOM     20  O   UNL     1       2.007   9.306  22.428  0.00  0.00    +0.000 OA
ATOM     21  H   UNL     1       0.080  10.522  20.165  0.00  0.00    +0.000 HD
BRANCH  18  26
ATOM     22  C   UNL     1      -0.432  14.623  18.671  0.00  0.00    +0.000 C 
ATOM     23  N   UNL     1       0.131  14.037  19.883  0.00  0.00    +0.000 NA
ATOM     24  C   UNL     1       1.319  13.216  19.579  0.00  0.00    +0.000 C 
ATOM     25  C   UNL     1       1.911  12.555  20.844  0.00  0.00    +0.000 C 
ATOM     26  N   UNL     1       0.930  11.783  21.637  0.00  0.00    +0.000 NA
ATOM     27  C   UNL     1      -0.270  12.606  21.881  0.00  0.00    +0.000 C 
ATOM     28  C   UNL     1      -0.867  13.226  20.600  0.00  0.00    +0.000 C 
ENDBRANCH  18  26
ENDBRANCH  17  19
ENDBRANCH   1  17
TORSDOF 4
ENDMDL
MODEL 9
REMARK VINA RESULT:      -6.6      3.289      4.611
REMARK  Name = 
REMARK  5 active torsions:
REMARK  status: ('A' for Active; 'I' for Inactive)
REMARK    1  A    between atoms: C_1  and  N_2
REMARK    2  A    between atoms: N_5  and  N_6
REMARK    3  A    between atoms: C_7  and  C_9
REMARK    4  A    between atoms: C_9  and  N_10
REMARK    5  A    between atoms: C_14  and  C_15
REMARK                            x       y       z     vdW  Elec       q    Type
REMARK                         _______ _______ _______ _____ _____    ______ ____
ROOT
ATOM      1  N   UNL     1       1.077   9.634  19.522  0.00  0.00    +0.000 N 
ATOM      2  C   UNL     1       1.857   9.282  18.437  0.00  0.00    +0.000 C 
ATOM      3  O   UNL     1       2.103  10.011  17.480  0.00  0.00    +0.000 OA
ATOM      4  C   UNL     1       2.387   7.903  18.604  0.00  0.00    +0.000 C 
ATOM      5  C   UNL     1       3.084   7.270  17.649  0.00  0.00    +0.000 C 
ATOM      6  S   UNL     1       1.961   7.299  20.155  0.00  0.00    +0.000 S 
ATOM      7  C   UNL     1       1.010   8.727  20.558  0.00  0.00    +0.000 C 
ATOM      8  S   UNL     1       0.165   8.845  21.988  0.00  0.00    +0.000 S 
ENDROOT
BRANCH   5   9
ATOM      9  C   UNL     1       3.658   5.919  17.793  0.00  0.00    +0.000 A 
ATOM     10  C   UNL     1       5.037   5.761  17.982  0.00  0.00    +0.000 A 
ATOM     11  F   UNL     1       5.831   6.842  18.075  0.00  0.00    +0.000 F 
ATOM     12  C   UNL     1       5.623   4.500  18.078  0.00  0.00    +0.000 A 
ATOM     13  C   UNL     1       4.829   3.360  17.988  0.00  0.00    +0.000 A 
ATOM     14  C   UNL     1       3.450   3.492  17.814  0.00  0.00    +0.000 A 
ATOM     15  C   UNL     1       2.869   4.761  17.719  0.00  0.00    +0.000 A 
ATOM     16 CL   UNL     1       1.153   4.849  17.510  0.00  0.00    +0.000 Cl
ENDBRANCH   5   9
BRANCH   1  17
ATOM     17  C   UNL     1       0.398  10.927  19.499  0.00  0.00    +0.000 C 
BRANCH  17  19
ATOM     18  N   UNL     1       2.004  12.754  19.472  0.00  0.00    +0.000 N 
ATOM     19  C   UNL     1       1.195  11.965  20.285  0.00  0.00    +0.000 C 
ATOM     20  O   UNL     1       1.148  12.026  21.511  0.00  0.00    +0.000 OA
ATOM     21  H   UNL     1       2.139  12.499  18.493  0.00  0.00    +0.000 HD
BRANCH  18  26
ATOM     22  C   UNL     1       1.348  17.240  17.814  0.00  0.00    +0.000 C 
ATOM     23  N   UNL     1       2.065  16.393  18.761  0.00  0.00    +0.000 NA
ATOM     24  C   UNL     1       2.897  15.393  18.063  0.00  0.00    +0.000 C 
ATOM     25  C   UNL     1       3.637  14.460  19.048  0.00  0.00    +0.000 C 
ATOM     26  N   UNL     1       2.755  13.806  20.039  0.00  0.00    +0.000 NA
ATOM     27  C   UNL     1       1.896  14.818  20.683  0.00  0.00    +0.000 C 
ATOM     28  C   UNL     1       1.137  15.715  19.682  0.00  0.00    +0.000 C 
ENDBRANCH  18  26
ENDBRANCH  17  19
ENDBRANCH   1  17
TORSDOF 4
ENDMDL
