MODEL 1
REMARK VINA RESULT:      -7.8      0.000      0.000
REMARK  Name = 
REMARK  5 active torsions:
REMARK  status: ('A' for Active; 'I' for Inactive)
REMARK    1  A    between atoms: N_6  and  C_7
REMARK    2  A    between atoms: C_9  and  O_10
REMARK    3  A    between atoms: C_11  and  C_12
REMARK    4  A    between atoms: C_12  and  O_13
REMARK    5  A    between atoms: O_13  and  P_14
REMARK                            x       y       z     vdW  Elec       q    Type
REMARK                         _______ _______ _______ _____ _____    ______ ____
ROOT
ATOM      1  C   UNL     1       2.817   4.095  19.063  0.00  0.00    +0.000 C 
ATOM      2  C   UNL     1       1.946   3.341  18.067  0.00  0.00    +0.000 C 
ATOM      3  C   UNL     1       2.903   2.299  17.533  0.00  0.00    +0.000 C 
ATOM      4  C   UNL     1       4.246   3.032  17.526  0.00  0.00    +0.000 C 
ATOM      5  O   UNL     1       4.179   3.981  18.614  0.00  0.00    +0.000 OA
ENDROOT
BRANCH   1  11
ATOM      6  O   UNL     1       1.573   9.372  19.841  0.00  0.00    +0.000 OA
ATOM      7  C   UNL     1       1.814   8.189  19.633  0.00  0.00    +0.000 A 
ATOM      8  N   UNL     1       1.702   7.233  20.611  0.00  0.00    +0.000 N 
ATOM      9  C   UNL     1       1.998   5.897  20.483  0.00  0.00    +0.000 A 
ATOM     10  O   UNL     1       1.859   5.138  21.437  0.00  0.00    +0.000 OA
ATOM     11  N   UNL     1       2.452   5.496  19.229  0.00  0.00    +0.000 N 
ATOM     12  C   UNL     1       2.541   6.390  18.175  0.00  0.00    +0.000 A 
ATOM     13  C   UNL     1       2.244   7.681  18.319  0.00  0.00    +0.000 A 
ATOM     14  F   UNL     1       2.334   8.558  17.304  0.00  0.00    +0.000 F 
ATOM     15  H   UNL     1       1.408   7.546  21.523  0.00  0.00    +0.000 HD
ENDBRANCH   1  11
BRANCH   3  16
ATOM     16  O   UNL     1       2.925   1.177  18.416  0.00  0.00    +0.000 OA
ATOM     17  H   UNL     1       2.911   0.354  17.892  0.00  0.00    +0.000 HD
ENDBRANCH   3  16
BRANCH   4  18
ATOM     18  C   UNL     1       4.470   3.775  16.205  0.00  0.00    +0.000 C 
BRANCH  18  19
ATOM     19  O   UNL     1       5.831   3.687  15.794  0.00  0.00    +0.000 OA
BRANCH  19  20
ATOM     20  P   UNL     1       6.726   4.984  16.127  0.00  0.00    +0.000 P 
ATOM     21  O   UNL     1       7.749   5.330  15.097  0.00  0.00    +0.000 OA
ATOM     22  O   UNL     1       7.289   4.736  17.610  0.00  0.00    +0.000 OA
ATOM     23  C   UNL     1       7.829   5.860  18.289  0.00  0.00    +0.000 C 
ATOM     24  C   UNL     1       7.462   7.194  17.642  0.00  0.00    +0.000 C 
ATOM     25  C   UNL     1       6.002   7.229  17.206  0.00  0.00    +0.000 C 
ATOM     26  O   UNL     1       5.626   6.130  16.392  0.00  0.00    +0.000 OA
ENDBRANCH  19  20
ENDBRANCH  18  19
ENDBRANCH   4  18
TORSDOF 5
ENDMDL
MODEL 2
REMARK VINA RESULT:      -7.1      1.933      2.542
REMARK  Name = 
REMARK  5 active torsions:
REMARK  status: ('A' for Active; 'I' for Inactive)
REMARK    1  A    between atoms: N_6  and  C_7
REMARK    2  A    between atoms: C_9  and  O_10
REMARK    3  A    between atoms: C_11  and  C_12
REMARK    4  A    between atoms: C_12  and  O_13
REMARK    5  A    between atoms: O_13  and  P_14
REMARK                            x       y       z     vdW  Elec       q    Type
REMARK                         _______ _______ _______ _____ _____    ______ ____
ROOT
ATOM      1  C   UNL     1       3.239   4.676  18.934  0.00  0.00    +0.000 C 
ATOM      2  C   UNL     1       3.144   4.238  17.478  0.00  0.00    +0.000 C 
ATOM      3  C   UNL     1       4.372   3.369  17.327  0.00  0.00    +0.000 C 
ATOM      4  C   UNL     1       5.397   4.056  18.230  0.00  0.00    +0.000 C 
ATOM      5  O   UNL     1       4.633   4.671  19.292  0.00  0.00    +0.000 OA
ENDROOT
BRANCH   1  11
ATOM      6  O   UNL     1       1.145   9.601  20.099  0.00  0.00    +0.000 OA
ATOM      7  C   UNL     1       1.580   8.495  19.802  0.00  0.00    +0.000 A 
ATOM      8  N   UNL     1       1.550   7.435  20.672  0.00  0.00    +0.000 N 
ATOM      9  C   UNL     1       2.056   6.178  20.443  0.00  0.00    +0.000 A 
ATOM     10  O   UNL     1       1.970   5.310  21.307  0.00  0.00    +0.000 OA
ATOM     11  N   UNL     1       2.652   5.984  19.200  0.00  0.00    +0.000 N 
ATOM     12  C   UNL     1       2.674   6.987  18.246  0.00  0.00    +0.000 A 
ATOM     13  C   UNL     1       2.171   8.198  18.486  0.00  0.00    +0.000 A 
ATOM     14  F   UNL     1       2.194   9.182  17.569  0.00  0.00    +0.000 F 
ATOM     15  H   UNL     1       1.149   7.603  21.581  0.00  0.00    +0.000 HD
ENDBRANCH   1  11
BRANCH   3  16
ATOM     16  O   UNL     1       4.078   2.047  17.780  0.00  0.00    +0.000 OA
ATOM     17  H   UNL     1       4.544   1.402  17.218  0.00  0.00    +0.000 HD
ENDBRANCH   3  16
BRANCH   4  18
ATOM     18  C   UNL     1       6.182   5.130  17.470  0.00  0.00    +0.000 C 
BRANCH  18  19
ATOM     19  O   UNL     1       7.009   4.547  16.468  0.00  0.00    +0.000 OA
BRANCH  19  20
ATOM     20  P   UNL     1       6.625   4.945  14.955  0.00  0.00    +0.000 P 
ATOM     21  O   UNL     1       5.527   5.947  14.823  0.00  0.00    +0.000 OA
ATOM     22  O   UNL     1       6.386   3.548  14.201  0.00  0.00    +0.000 OA
ATOM     23  C   UNL     1       6.365   3.580  12.781  0.00  0.00    +0.000 C 
ATOM     24  C   UNL     1       6.930   4.873  12.195  0.00  0.00    +0.000 C 
ATOM     25  C   UNL     1       8.192   5.320  12.923  0.00  0.00    +0.000 C 
ATOM     26  O   UNL     1       8.035   5.408  14.330  0.00  0.00    +0.000 OA
ENDBRANCH  19  20
ENDBRANCH  18  19
ENDBRANCH   4  18
TORSDOF 5
ENDMDL
MODEL 3
REMARK VINA RESULT:      -6.9      1.333      1.514
REMARK  Name = 
REMARK  5 active torsions:
REMARK  status: ('A' for Active; 'I' for Inactive)
REMARK    1  A    between atoms: N_6  and  C_7
REMARK    2  A    between atoms: C_9  and  O_10
REMARK    3  A    between atoms: C_11  and  C_12
REMARK    4  A    between atoms: C_12  and  O_13
REMARK    5  A    between atoms: O_13  and  P_14
REMARK                            x       y       z     vdW  Elec       q    Type
REMARK                         _______ _______ _______ _____ _____    ______ ____
ROOT
ATOM      1  C   UNL     1       2.571   5.575  20.021  0.00  0.00    +0.000 C 
ATOM      2  C   UNL     1       1.706   4.479  19.413  0.00  0.00    +0.000 C 
ATOM      3  C   UNL     1       2.683   3.331  19.297  0.00  0.00    +0.000 C 
ATOM      4  C   UNL     1       4.004   4.031  18.974  0.00  0.00    +0.000 C 
ATOM      5  O   UNL     1       3.929   5.324  19.615  0.00  0.00    +0.000 OA
ENDROOT
BRANCH   1  11
ATOM      6  O   UNL     1       1.157  10.717  18.770  0.00  0.00    +0.000 OA
ATOM      7  C   UNL     1       1.444   9.551  19.013  0.00  0.00    +0.000 A 
ATOM      8  N   UNL     1       1.146   8.954  20.211  0.00  0.00    +0.000 N 
ATOM      9  C   UNL     1       1.471   7.673  20.588  0.00  0.00    +0.000 A 
ATOM     10  O   UNL     1       1.149   7.253  21.696  0.00  0.00    +0.000 OA
ATOM     11  N   UNL     1       2.170   6.925  19.644  0.00  0.00    +0.000 N 
ATOM     12  C   UNL     1       2.461   7.436  18.391  0.00  0.00    +0.000 A 
ATOM     13  C   UNL     1       2.132   8.680  18.044  0.00  0.00    +0.000 A 
ATOM     14  F   UNL     1       2.416   9.189  16.832  0.00  0.00    +0.000 F 
ATOM     15  H   UNL     1       0.672   9.521  20.898  0.00  0.00    +0.000 HD
ENDBRANCH   1  11
BRANCH   3  16
ATOM     16  O   UNL     1       2.750   2.636  20.542  0.00  0.00    +0.000 OA
ATOM     17  H   UNL     1       2.084   1.923  20.550  0.00  0.00    +0.000 HD
ENDBRANCH   3  16
BRANCH   4  18
ATOM     18  C   UNL     1       4.187   4.213  17.464  0.00  0.00    +0.000 C 
BRANCH  18  19
ATOM     19  O   UNL     1       5.456   3.725  17.040  0.00  0.00    +0.000 OA
BRANCH  19  20
ATOM     20  P   UNL     1       6.655   4.797  17.116  0.00  0.00    +0.000 P 
ATOM     21  O   UNL     1       7.774   4.566  16.155  0.00  0.00    +0.000 OA
ATOM     22  O   UNL     1       7.071   4.852  18.666  0.00  0.00    +0.000 OA
ATOM     23  C   UNL     1       7.869   5.953  19.078  0.00  0.00    +0.000 C 
ATOM     24  C   UNL     1       7.904   7.092  18.062  0.00  0.00    +0.000 C 
ATOM     25  C   UNL     1       6.526   7.363  17.468  0.00  0.00    +0.000 C 
ATOM     26  O   UNL     1       5.898   6.207  16.939  0.00  0.00    +0.000 OA
ENDBRANCH  19  20
ENDBRANCH  18  19
ENDBRANCH   4  18
TORSDOF 5
ENDMDL
MODEL 4
REMARK VINA RESULT:      -6.8      2.639      5.112
REMARK  Name = 
REMARK  5 active torsions:
REMARK  status: ('A' for Active; 'I' for Inactive)
REMARK    1  A    between atoms: N_6  and  C_7
REMARK    2  A    between atoms: C_9  and  O_10
REMARK    3  A    between atoms: C_11  and  C_12
REMARK    4  A    between atoms: C_12  and  O_13
REMARK    5  A    between atoms: O_13  and  P_14
REMARK                            x       y       z     vdW  Elec       q    Type
REMARK                         _______ _______ _______ _____ _____    ______ ____
ROOT
ATOM      1  C   UNL     1       4.929   3.892  18.481  0.00  0.00    +0.000 C 
ATOM      2  C   UNL     1       4.485   3.674  17.040  0.00  0.00    +0.000 C 
ATOM      3  C   UNL     1       5.303   4.706  16.296  0.00  0.00    +0.000 C 
ATOM      4  C   UNL     1       5.380   5.868  17.287  0.00  0.00    +0.000 C 
ATOM      5  O   UNL     1       5.336   5.267  18.600  0.00  0.00    +0.000 OA
ENDROOT
BRANCH   1  11
ATOM      6  O   UNL     1       1.228   2.721  22.344  0.00  0.00    +0.000 OA
ATOM      7  C   UNL     1       2.021   2.972  21.445  0.00  0.00    +0.000 A 
ATOM      8  N   UNL     1       3.181   2.261  21.268  0.00  0.00    +0.000 N 
ATOM      9  C   UNL     1       4.149   2.502  20.322  0.00  0.00    +0.000 A 
ATOM     10  O   UNL     1       5.149   1.792  20.265  0.00  0.00    +0.000 OA
ATOM     11  N   UNL     1       3.907   3.577  19.471  0.00  0.00    +0.000 N 
ATOM     12  C   UNL     1       2.735   4.310  19.550  0.00  0.00    +0.000 A 
ATOM     13  C   UNL     1       1.806   4.056  20.471  0.00  0.00    +0.000 A 
ATOM     14  F   UNL     1       0.668   4.767  20.562  0.00  0.00    +0.000 F 
ATOM     15  H   UNL     1       3.359   1.510  21.916  0.00  0.00    +0.000 HD
ENDBRANCH   1  11
BRANCH   3  16
ATOM     16  O   UNL     1       6.597   4.173  16.014  0.00  0.00    +0.000 OA
ATOM     17  H   UNL     1       6.527   3.210  15.875  0.00  0.00    +0.000 HD
ENDBRANCH   3  16
BRANCH   4  18
ATOM     18  C   UNL     1       4.197   6.827  17.118  0.00  0.00    +0.000 C 
BRANCH  18  19
ATOM     19  O   UNL     1       3.769   7.338  18.376  0.00  0.00    +0.000 OA
BRANCH  19  20
ATOM     20  P   UNL     1       2.300   8.000  18.376  0.00  0.00    +0.000 P 
ATOM     21  O   UNL     1       1.293   7.307  17.520  0.00  0.00    +0.000 OA
ATOM     22  O   UNL     1       2.539   9.554  18.049  0.00  0.00    +0.000 OA
ATOM     23  C   UNL     1       1.462  10.439  18.316  0.00  0.00    +0.000 C 
ATOM     24  C   UNL     1       0.379   9.829  19.204  0.00  0.00    +0.000 C 
ATOM     25  C   UNL     1       0.977   9.028  20.355  0.00  0.00    +0.000 C 
ATOM     26  O   UNL     1       1.924   8.058  19.941  0.00  0.00    +0.000 OA
ENDBRANCH  19  20
ENDBRANCH  18  19
ENDBRANCH   4  18
TORSDOF 5
ENDMDL
MODEL 5
REMARK VINA RESULT:      -6.8      1.869      2.775
REMARK  Name = 
REMARK  5 active torsions:
REMARK  status: ('A' for Active; 'I' for Inactive)
REMARK    1  A    between atoms: N_6  and  C_7
REMARK    2  A    between atoms: C_9  and  O_10
REMARK    3  A    between atoms: C_11  and  C_12
REMARK    4  A    between atoms: C_12  and  O_13
REMARK    5  A    between atoms: O_13  and  P_14
REMARK                            x       y       z     vdW  Elec       q    Type
REMARK                         _______ _______ _______ _____ _____    ______ ____
ROOT
ATOM      1  C   UNL     1       1.749   5.298  20.791  0.00  0.00    +0.000 C 
ATOM      2  C   UNL     1       0.894   4.211  20.152  0.00  0.00    +0.000 C 
ATOM      3  C   UNL     1       1.541   2.949  20.677  0.00  0.00    +0.000 C 
ATOM      4  C   UNL     1       3.022   3.320  20.745  0.00  0.00    +0.000 C 
ATOM      5  O   UNL     1       3.058   4.741  21.006  0.00  0.00    +0.000 OA
ENDROOT
BRANCH   1  11
ATOM      6  O   UNL     1       2.178   9.983  17.987  0.00  0.00    +0.000 OA
ATOM      7  C   UNL     1       2.055   8.916  18.576  0.00  0.00    +0.000 A 
ATOM      8  N   UNL     1       1.418   8.815  19.787  0.00  0.00    +0.000 N 
ATOM      9  C   UNL     1       1.276   7.674  20.541  0.00  0.00    +0.000 A 
ATOM     10  O   UNL     1       0.683   7.712  21.615  0.00  0.00    +0.000 OA
ATOM     11  N   UNL     1       1.841   6.521  20.002  0.00  0.00    +0.000 N 
ATOM     12  C   UNL     1       2.453   6.529  18.761  0.00  0.00    +0.000 A 
ATOM     13  C   UNL     1       2.575   7.646  18.043  0.00  0.00    +0.000 A 
ATOM     14  F   UNL     1       3.174   7.666  16.840  0.00  0.00    +0.000 F 
ATOM     15  H   UNL     1       1.047   9.666  20.180  0.00  0.00    +0.000 HD
ENDBRANCH   1  11
BRANCH   3  16
ATOM     16  O   UNL     1       1.016   2.649  21.971  0.00  0.00    +0.000 OA
ATOM     17  H   UNL     1       0.839   1.692  22.034  0.00  0.00    +0.000 HD
ENDBRANCH   3  16
BRANCH   4  18
ATOM     18  C   UNL     1       3.736   3.020  19.423  0.00  0.00    +0.000 C 
BRANCH  18  19
ATOM     19  O   UNL     1       5.126   3.317  19.513  0.00  0.00    +0.000 OA
BRANCH  19  20
ATOM     20  P   UNL     1       5.618   4.547  18.596  0.00  0.00    +0.000 P 
ATOM     21  O   UNL     1       5.611   5.880  19.267  0.00  0.00    +0.000 OA
ATOM     22  O   UNL     1       4.747   4.442  17.250  0.00  0.00    +0.000 OA
ATOM     23  C   UNL     1       5.202   5.189  16.132  0.00  0.00    +0.000 C 
ATOM     24  C   UNL     1       6.638   5.688  16.277  0.00  0.00    +0.000 C 
ATOM     25  C   UNL     1       7.551   4.620  16.868  0.00  0.00    +0.000 C 
ATOM     26  O   UNL     1       7.064   4.063  18.078  0.00  0.00    +0.000 OA
ENDBRANCH  19  20
ENDBRANCH  18  19
ENDBRANCH   4  18
TORSDOF 5
ENDMDL
MODEL 6
REMARK VINA RESULT:      -6.8      1.653      2.585
REMARK  Name = 
REMARK  5 active torsions:
REMARK  status: ('A' for Active; 'I' for Inactive)
REMARK    1  A    between atoms: N_6  and  C_7
REMARK    2  A    between atoms: C_9  and  O_10
REMARK    3  A    between atoms: C_11  and  C_12
REMARK    4  A    between atoms: C_12  and  O_13
REMARK    5  A    between atoms: O_13  and  P_14
REMARK                            x       y       z     vdW  Elec       q    Type
REMARK                         _______ _______ _______ _____ _____    ______ ____
ROOT
ATOM      1  C   UNL     1       2.247   5.715  20.715  0.00  0.00    +0.000 C 
ATOM      2  C   UNL     1       1.085   4.733  20.641  0.00  0.00    +0.000 C 
ATOM      3  C   UNL     1       1.795   3.398  20.671  0.00  0.00    +0.000 C 
ATOM      4  C   UNL     1       3.086   3.674  19.900  0.00  0.00    +0.000 C 
ATOM      5  O   UNL     1       3.394   5.066  20.136  0.00  0.00    +0.000 OA
ENDROOT
BRANCH   1  11
ATOM      6  O   UNL     1       1.382  10.586  18.365  0.00  0.00    +0.000 OA
ATOM      7  C   UNL     1       1.547   9.476  18.855  0.00  0.00    +0.000 A 
ATOM      8  N   UNL     1       1.134   9.165  20.126  0.00  0.00    +0.000 N 
ATOM      9  C   UNL     1       1.319   7.966  20.773  0.00  0.00    +0.000 A 
ATOM     10  O   UNL     1       0.904   7.810  21.918  0.00  0.00    +0.000 OA
ATOM     11  N   UNL     1       1.993   6.986  20.049  0.00  0.00    +0.000 N 
ATOM     12  C   UNL     1       2.393   7.204  18.742  0.00  0.00    +0.000 A 
ATOM     13  C   UNL     1       2.198   8.372  18.130  0.00  0.00    +0.000 A 
ATOM     14  F   UNL     1       2.590   8.596  16.863  0.00  0.00    +0.000 F 
ATOM     15  H   UNL     1       0.681   9.897  20.651  0.00  0.00    +0.000 HD
ENDBRANCH   1  11
BRANCH   3  16
ATOM     16  O   UNL     1       2.063   3.033  22.026  0.00  0.00    +0.000 OA
ATOM     17  H   UNL     1       1.323   3.325  22.591  0.00  0.00    +0.000 HD
ENDBRANCH   3  16
BRANCH   4  18
ATOM     18  C   UNL     1       2.903   3.433  18.398  0.00  0.00    +0.000 C 
BRANCH  18  19
ATOM     19  O   UNL     1       4.119   3.000  17.797  0.00  0.00    +0.000 OA
BRANCH  19  20
ATOM     20  P   UNL     1       5.005   4.172  17.136  0.00  0.00    +0.000 P 
ATOM     21  O   UNL     1       4.284   5.459  16.908  0.00  0.00    +0.000 OA
ATOM     22  O   UNL     1       5.674   3.510  15.836  0.00  0.00    +0.000 OA
ATOM     23  C   UNL     1       6.765   4.206  15.250  0.00  0.00    +0.000 C 
ATOM     24  C   UNL     1       7.356   5.283  16.158  0.00  0.00    +0.000 C 
ATOM     25  C   UNL     1       7.477   4.804  17.600  0.00  0.00    +0.000 C 
ATOM     26  O   UNL     1       6.270   4.278  18.127  0.00  0.00    +0.000 OA
ENDBRANCH  19  20
ENDBRANCH  18  19
ENDBRANCH   4  18
TORSDOF 5
ENDMDL
MODEL 7
REMARK VINA RESULT:      -6.8      2.543      4.217
REMARK  Name = 
REMARK  5 active torsions:
REMARK  status: ('A' for Active; 'I' for Inactive)
REMARK    1  A    between atoms: N_6  and  C_7
REMARK    2  A    between atoms: C_9  and  O_10
REMARK    3  A    between atoms: C_11  and  C_12
REMARK    4  A    between atoms: C_12  and  O_13
REMARK    5  A    between atoms: O_13  and  P_14
REMARK                            x       y       z     vdW  Elec       q    Type
REMARK                         _______ _______ _______ _____ _____    ______ ____
ROOT
ATOM      1  C   UNL     1       4.805   4.783  19.563  0.00  0.00    +0.000 C 
ATOM      2  C   UNL     1       6.072   4.171  18.978  0.00  0.00    +0.000 C 
ATOM      3  C   UNL     1       6.968   5.380  18.827  0.00  0.00    +0.000 C 
ATOM      4  C   UNL     1       5.987   6.496  18.467  0.00  0.00    +0.000 C 
ATOM      5  O   UNL     1       4.742   6.148  19.114  0.00  0.00    +0.000 OA
ENDROOT
BRANCH   1  11
ATOM      6  O   UNL     1       0.165   2.111  18.410  0.00  0.00    +0.000 OA
ATOM      7  C   UNL     1       1.217   2.703  18.620  0.00  0.00    +0.000 A 
ATOM      8  N   UNL     1       2.161   2.235  19.498  0.00  0.00    +0.000 N 
ATOM      9  C   UNL     1       3.342   2.855  19.832  0.00  0.00    +0.000 A 
ATOM     10  O   UNL     1       4.108   2.334  20.639  0.00  0.00    +0.000 OA
ATOM     11  N   UNL     1       3.583   4.074  19.204  0.00  0.00    +0.000 N 
ATOM     12  C   UNL     1       2.706   4.587  18.265  0.00  0.00    +0.000 A 
ATOM     13  C   UNL     1       1.569   3.967  17.951  0.00  0.00    +0.000 A 
ATOM     14  F   UNL     1       0.706   4.461  17.045  0.00  0.00    +0.000 F 
ATOM     15  H   UNL     1       1.954   1.370  19.973  0.00  0.00    +0.000 HD
ENDBRANCH   1  11
BRANCH   3  16
ATOM     16  O   UNL     1       7.625   5.642  20.067  0.00  0.00    +0.000 OA
ATOM     17  H   UNL     1       7.101   6.284  20.582  0.00  0.00    +0.000 HD
ENDBRANCH   3  16
BRANCH   4  18
ATOM     18  C   UNL     1       5.773   6.586  16.952  0.00  0.00    +0.000 C 
BRANCH  18  19
ATOM     19  O   UNL     1       6.997   6.391  16.250  0.00  0.00    +0.000 OA
BRANCH  19  20
ATOM     20  P   UNL     1       7.036   5.087  15.305  0.00  0.00    +0.000 P 
ATOM     21  O   UNL     1       7.675   3.883  15.913  0.00  0.00    +0.000 OA
ATOM     22  O   UNL     1       7.678   5.591  13.922  0.00  0.00    +0.000 OA
ATOM     23  C   UNL     1       7.525   4.740  12.796  0.00  0.00    +0.000 C 
ATOM     24  C   UNL     1       6.468   3.654  12.993  0.00  0.00    +0.000 C 
ATOM     25  C   UNL     1       5.221   4.197  13.680  0.00  0.00    +0.000 C 
ATOM     26  O   UNL     1       5.494   4.890  14.888  0.00  0.00    +0.000 OA
ENDBRANCH  19  20
ENDBRANCH  18  19
ENDBRANCH   4  18
TORSDOF 5
ENDMDL
MODEL 8
REMARK VINA RESULT:      -6.7      3.623      6.711
REMARK  Name = 
REMARK  5 active torsions:
REMARK  status: ('A' for Active; 'I' for Inactive)
REMARK    1  A    between atoms: N_6  and  C_7
REMARK    2  A    between atoms: C_9  and  O_10
REMARK    3  A    between atoms: C_11  and  C_12
REMARK    4  A    between atoms: C_12  and  O_13
REMARK    5  A    between atoms: O_13  and  P_14
REMARK                            x       y       z     vdW  Elec       q    Type
REMARK                         _______ _______ _______ _____ _____    ______ ____
ROOT
ATOM      1  C   UNL     1       6.043   4.575  16.936  0.00  0.00    +0.000 C 
ATOM      2  C   UNL     1       5.305   5.823  17.405  0.00  0.00    +0.000 C 
ATOM      3  C   UNL     1       4.426   5.277  18.507  0.00  0.00    +0.000 C 
ATOM      4  C   UNL     1       4.065   3.879  18.003  0.00  0.00    +0.000 C 
ATOM      5  O   UNL     1       5.190   3.448  17.205  0.00  0.00    +0.000 OA
ENDROOT
BRANCH   1  11
ATOM      6  O   UNL     1       7.650   4.660  11.701  0.00  0.00    +0.000 OA
ATOM      7  C   UNL     1       7.244   4.652  12.857  0.00  0.00    +0.000 A 
ATOM      8  N   UNL     1       7.722   5.516  13.809  0.00  0.00    +0.000 N 
ATOM      9  C   UNL     1       7.363   5.548  15.136  0.00  0.00    +0.000 A 
ATOM     10  O   UNL     1       7.867   6.372  15.894  0.00  0.00    +0.000 OA
ATOM     11  N   UNL     1       6.419   4.603  15.528  0.00  0.00    +0.000 N 
ATOM     12  C   UNL     1       5.849   3.732  14.616  0.00  0.00    +0.000 A 
ATOM     13  C   UNL     1       6.207   3.721  13.332  0.00  0.00    +0.000 A 
ATOM     14  F   UNL     1       5.665   2.874  12.440  0.00  0.00    +0.000 F 
ATOM     15  H   UNL     1       8.432   6.170  13.517  0.00  0.00    +0.000 HD
ENDBRANCH   1  11
BRANCH   3  16
ATOM     16  O   UNL     1       5.170   5.217  19.724  0.00  0.00    +0.000 OA
ATOM     17  H   UNL     1       5.849   4.520  19.654  0.00  0.00    +0.000 HD
ENDBRANCH   3  16
BRANCH   4  18
ATOM     18  C   UNL     1       2.800   3.905  17.139  0.00  0.00    +0.000 C 
BRANCH  18  19
ATOM     19  O   UNL     1       1.995   2.754  17.374  0.00  0.00    +0.000 OA
BRANCH  19  20
ATOM     20  P   UNL     1       1.363   2.660  18.853  0.00  0.00    +0.000 P 
ATOM     21  O   UNL     1       0.107   1.860  18.955  0.00  0.00    +0.000 OA
ATOM     22  O   UNL     1       1.262   4.179  19.365  0.00  0.00    +0.000 OA
ATOM     23  C   UNL     1       1.057   4.375  20.756  0.00  0.00    +0.000 C 
ATOM     24  C   UNL     1       1.323   3.124  21.592  0.00  0.00    +0.000 C 
ATOM     25  C   UNL     1       2.575   2.390  21.130  0.00  0.00    +0.000 C 
ATOM     26  O   UNL     1       2.586   2.105  19.740  0.00  0.00    +0.000 OA
ENDBRANCH  19  20
ENDBRANCH  18  19
ENDBRANCH   4  18
TORSDOF 5
ENDMDL
MODEL 9
REMARK VINA RESULT:      -6.6      3.048      6.348
REMARK  Name = 
REMARK  5 active torsions:
REMARK  status: ('A' for Active; 'I' for Inactive)
REMARK    1  A    between atoms: N_6  and  C_7
REMARK    2  A    between atoms: C_9  and  O_10
REMARK    3  A    between atoms: C_11  and  C_12
REMARK    4  A    between atoms: C_12  and  O_13
REMARK    5  A    between atoms: O_13  and  P_14
REMARK                            x       y       z     vdW  Elec       q    Type
REMARK                         _______ _______ _______ _____ _____    ______ ____
ROOT
ATOM      1  C   UNL     1       2.976   3.728  19.203  0.00  0.00    +0.000 C 
ATOM      2  C   UNL     1       3.029   3.556  20.715  0.00  0.00    +0.000 C 
ATOM      3  C   UNL     1       1.657   4.032  21.137  0.00  0.00    +0.000 C 
ATOM      4  C   UNL     1       1.357   5.153  20.141  0.00  0.00    +0.000 C 
ATOM      5  O   UNL     1       2.048   4.792  18.924  0.00  0.00    +0.000 OA
ENDROOT
BRANCH   1  11
ATOM      6  O   UNL     1       7.739   4.865  16.750  0.00  0.00    +0.000 OA
ATOM      7  C   UNL     1       6.699   4.585  17.334  0.00  0.00    +0.000 A 
ATOM      8  N   UNL     1       5.707   3.838  16.750  0.00  0.00    +0.000 N 
ATOM      9  C   UNL     1       4.492   3.518  17.308  0.00  0.00    +0.000 A 
ATOM     10  O   UNL     1       3.682   2.842  16.681  0.00  0.00    +0.000 OA
ATOM     11  N   UNL     1       4.269   4.009  18.592  0.00  0.00    +0.000 N 
ATOM     12  C   UNL     1       5.242   4.725  19.270  0.00  0.00    +0.000 A 
ATOM     13  C   UNL     1       6.416   5.019  18.713  0.00  0.00    +0.000 A 
ATOM     14  F   UNL     1       7.364   5.720  19.359  0.00  0.00    +0.000 F 
ATOM     15  H   UNL     1       5.870   3.522  15.807  0.00  0.00    +0.000 HD
ENDBRANCH   1  11
BRANCH   3  16
ATOM     16  O   UNL     1       0.723   2.959  21.013  0.00  0.00    +0.000 OA
ATOM     17  H   UNL     1      -0.073   3.162  21.540  0.00  0.00    +0.000 HD
ENDBRANCH   3  16
BRANCH   4  18
ATOM     18  C   UNL     1       1.874   6.504  20.646  0.00  0.00    +0.000 C 
BRANCH  18  19
ATOM     19  O   UNL     1       0.844   7.234  21.304  0.00  0.00    +0.000 OA
BRANCH  19  20
ATOM     20  P   UNL     1       0.936   8.834  21.143  0.00  0.00    +0.000 P 
ATOM     21  O   UNL     1       1.718   9.533  22.205  0.00  0.00    +0.000 OA
ATOM     22  O   UNL     1      -0.582   9.326  20.960  0.00  0.00    +0.000 OA
ATOM     23  C   UNL     1      -0.775  10.642  20.462  0.00  0.00    +0.000 C 
ATOM     24  C   UNL     1       0.484  11.248  19.845  0.00  0.00    +0.000 C 
ATOM     25  C   UNL     1       1.234  10.239  18.984  0.00  0.00    +0.000 C 
ATOM     26  O   UNL     1       1.513   9.019  19.652  0.00  0.00    +0.000 OA
ENDBRANCH  19  20
ENDBRANCH  18  19
ENDBRANCH   4  18
TORSDOF 5
ENDMDL
