MODEL 1
REMARK VINA RESULT:      -7.7      0.000      0.000
REMARK  Name = 
REMARK  6 active torsions:
REMARK  status: ('A' for Active; 'I' for Inactive)
REMARK    1  A    between atoms: C_1  and  C_2
REMARK    2  A    between atoms: C_2  and  N_3
REMARK    3  A    between atoms: N_12  and  S_13
REMARK    4  A    between atoms: S_13  and  C_16
REMARK    5  A    between atoms: C_16  and  C_17
REMARK    6  A    between atoms: C_20  and  C_21
REMARK                            x       y       z     vdW  Elec       q    Type
REMARK                         _______ _______ _______ _____ _____    ______ ____
ROOT
ATOM      1  N   UNL     1       6.279   5.963  16.868  0.00  0.00    +0.000 N 
ATOM      2  C   UNL     1       6.726   5.277  15.754  0.00  0.00    +0.000 C 
ATOM      3  O   UNL     1       7.737   5.604  15.134  0.00  0.00    +0.000 OA
ATOM      4  C   UNL     1       5.791   4.227  15.186  0.00  0.00    +0.000 C 
ATOM      5  C   UNL     1       4.768   3.610  16.123  0.00  0.00    +0.000 C 
ATOM      6  C   UNL     1       4.214   4.592  17.161  0.00  0.00    +0.000 C 
ATOM      7  C   UNL     1       5.335   5.393  17.815  0.00  0.00    +0.000 C 
ATOM      8  C   UNL     1       5.957   4.376  18.769  0.00  0.00    +0.000 C 
ATOM      9  C   UNL     1       4.793   3.478  19.198  0.00  0.00    +0.000 C 
ATOM     10  N   UNL     1       3.629   3.798  18.286  0.00  0.00    +0.000 NA
ENDROOT
BRANCH  10  11
ATOM     11  S   UNL     1       2.328   4.497  19.144  0.00  0.00    +0.000 S 
ATOM     12  O   UNL     1       1.285   4.788  18.181  0.00  0.00    +0.000 OA
ATOM     13  O   UNL     1       2.045   3.592  20.243  0.00  0.00    +0.000 OA
BRANCH  11  14
ATOM     14  C   UNL     1       2.952   6.014  19.864  0.00  0.00    +0.000 C 
BRANCH  14  15
ATOM     15  C   UNL     1       2.190   7.263  19.513  0.00  0.00    +0.000 A 
ATOM     16  C   UNL     1       1.459   7.969  20.476  0.00  0.00    +0.000 A 
ATOM     17  C   UNL     1       0.968   9.250  20.208  0.00  0.00    +0.000 A 
ATOM     18  C   UNL     1       1.203   9.857  18.970  0.00  0.00    +0.000 A 
ATOM     19  C   UNL     1       0.812  11.286  18.735  0.00  0.00    +0.000 C 
ATOM     20  C   UNL     1       1.899   9.143  17.989  0.00  0.00    +0.000 A 
ATOM     21  C   UNL     1       2.382   7.858  18.255  0.00  0.00    +0.000 A 
ENDBRANCH  14  15
ENDBRANCH  11  14
ENDBRANCH  10  11
BRANCH   1  23
ATOM     22  C   UNL     1       7.857   7.432  18.026  0.00  0.00    +0.000 C 
ATOM     23  C   UNL     1       6.688   7.354  17.049  0.00  0.00    +0.000 C 
ENDBRANCH   1  23
TORSDOF 4
ENDMDL
MODEL 2
REMARK VINA RESULT:      -7.7      0.423      1.089
REMARK  Name = 
REMARK  6 active torsions:
REMARK  status: ('A' for Active; 'I' for Inactive)
REMARK    1  A    between atoms: C_1  and  C_2
REMARK    2  A    between atoms: C_2  and  N_3
REMARK    3  A    between atoms: N_12  and  S_13
REMARK    4  A    between atoms: S_13  and  C_16
REMARK    5  A    between atoms: C_16  and  C_17
REMARK    6  A    between atoms: C_20  and  C_21
REMARK                            x       y       z     vdW  Elec       q    Type
REMARK                         _______ _______ _______ _____ _____    ______ ____
ROOT
ATOM      1  N   UNL     1       6.095   5.884  16.836  0.00  0.00    +0.000 N 
ATOM      2  C   UNL     1       6.678   5.172  15.804  0.00  0.00    +0.000 C 
ATOM      3  O   UNL     1       7.714   5.536  15.248  0.00  0.00    +0.000 OA
ATOM      4  C   UNL     1       5.866   4.030  15.225  0.00  0.00    +0.000 C 
ATOM      5  C   UNL     1       4.811   3.393  16.112  0.00  0.00    +0.000 C 
ATOM      6  C   UNL     1       4.109   4.387  17.043  0.00  0.00    +0.000 C 
ATOM      7  C   UNL     1       5.115   5.300  17.736  0.00  0.00    +0.000 C 
ATOM      8  C   UNL     1       5.721   4.382  18.795  0.00  0.00    +0.000 C 
ATOM      9  C   UNL     1       4.587   3.427  19.182  0.00  0.00    +0.000 C 
ATOM     10  N   UNL     1       3.485   3.615  18.163  0.00  0.00    +0.000 NA
ENDROOT
BRANCH  10  11
ATOM     11  S   UNL     1       2.073   4.264  18.871  0.00  0.00    +0.000 S 
ATOM     12  O   UNL     1       1.326   4.922  17.818  0.00  0.00    +0.000 OA
ATOM     13  O   UNL     1       1.456   3.172  19.601  0.00  0.00    +0.000 OA
BRANCH  11  14
ATOM     14  C   UNL     1       2.620   5.461  20.087  0.00  0.00    +0.000 C 
BRANCH  14  15
ATOM     15  C   UNL     1       2.295   6.898  19.779  0.00  0.00    +0.000 A 
ATOM     16  C   UNL     1       2.516   7.442  18.508  0.00  0.00    +0.000 A 
ATOM     17  C   UNL     1       1.985   8.685  18.157  0.00  0.00    +0.000 A 
ATOM     18  C   UNL     1       1.214   9.412  19.069  0.00  0.00    +0.000 A 
ATOM     19  C   UNL     1       0.516  10.671  18.646  0.00  0.00    +0.000 C 
ATOM     20  C   UNL     1       1.021   8.894  20.354  0.00  0.00    +0.000 A 
ATOM     21  C   UNL     1       1.560   7.653  20.707  0.00  0.00    +0.000 A 
ENDBRANCH  14  15
ENDBRANCH  11  14
ENDBRANCH  10  11
BRANCH   1  23
ATOM     22  C   UNL     1       7.655   7.502  17.803  0.00  0.00    +0.000 C 
ATOM     23  C   UNL     1       6.395   7.308  16.967  0.00  0.00    +0.000 C 
ENDBRANCH   1  23
TORSDOF 4
ENDMDL
MODEL 3
REMARK VINA RESULT:      -7.5      2.535      6.606
REMARK  Name = 
REMARK  6 active torsions:
REMARK  status: ('A' for Active; 'I' for Inactive)
REMARK    1  A    between atoms: C_1  and  C_2
REMARK    2  A    between atoms: C_2  and  N_3
REMARK    3  A    between atoms: N_12  and  S_13
REMARK    4  A    between atoms: S_13  and  C_16
REMARK    5  A    between atoms: C_16  and  C_17
REMARK    6  A    between atoms: C_20  and  C_21
REMARK                            x       y       z     vdW  Elec       q    Type
REMARK                         _______ _______ _______ _____ _____    ______ ____
ROOT
ATOM      1  N   UNL     1       2.886   3.707  18.528  0.00  0.00    +0.000 N 
ATOM      2  C   UNL     1       1.987   4.104  19.500  0.00  0.00    +0.000 C 
ATOM      3  O   UNL     1       1.130   3.350  19.960  0.00  0.00    +0.000 OA
ATOM      4  C   UNL     1       1.951   5.585  19.823  0.00  0.00    +0.000 C 
ATOM      5  C   UNL     1       3.197   6.403  19.533  0.00  0.00    +0.000 C 
ATOM      6  C   UNL     1       3.950   5.951  18.278  0.00  0.00    +0.000 C 
ATOM      7  C   UNL     1       4.113   4.434  18.248  0.00  0.00    +0.000 C 
ATOM      8  C   UNL     1       5.217   4.199  19.276  0.00  0.00    +0.000 C 
ATOM      9  C   UNL     1       6.103   5.446  19.193  0.00  0.00    +0.000 C 
ATOM     10  N   UNL     1       5.352   6.467  18.366  0.00  0.00    +0.000 NA
ENDROOT
BRANCH  10  11
ATOM     11  S   UNL     1       6.156   6.804  16.898  0.00  0.00    +0.000 S 
ATOM     12  O   UNL     1       5.140   6.957  15.876  0.00  0.00    +0.000 OA
ATOM     13  O   UNL     1       7.050   7.912  17.179  0.00  0.00    +0.000 OA
BRANCH  11  14
ATOM     14  C   UNL     1       7.185   5.380  16.544  0.00  0.00    +0.000 C 
BRANCH  14  15
ATOM     15  C   UNL     1       6.827   4.611  15.301  0.00  0.00    +0.000 A 
ATOM     16  C   UNL     1       5.761   3.704  15.284  0.00  0.00    +0.000 A 
ATOM     17  C   UNL     1       5.277   3.188  14.079  0.00  0.00    +0.000 A 
ATOM     18  C   UNL     1       5.847   3.572  12.861  0.00  0.00    +0.000 A 
ATOM     19  C   UNL     1       5.234   3.140  11.562  0.00  0.00    +0.000 C 
ATOM     20  C   UNL     1       6.938   4.446  12.872  0.00  0.00    +0.000 A 
ATOM     21  C   UNL     1       7.427   4.956  14.079  0.00  0.00    +0.000 A 
ENDBRANCH  14  15
ENDBRANCH  11  14
ENDBRANCH  10  11
BRANCH   1  23
ATOM     22  C   UNL     1       3.462   1.392  17.982  0.00  0.00    +0.000 C 
ATOM     23  C   UNL     1       2.545   2.571  17.675  0.00  0.00    +0.000 C 
ENDBRANCH   1  23
TORSDOF 4
ENDMDL
MODEL 4
REMARK VINA RESULT:      -7.3      2.619      6.764
REMARK  Name = 
REMARK  6 active torsions:
REMARK  status: ('A' for Active; 'I' for Inactive)
REMARK    1  A    between atoms: C_1  and  C_2
REMARK    2  A    between atoms: C_2  and  N_3
REMARK    3  A    between atoms: N_12  and  S_13
REMARK    4  A    between atoms: S_13  and  C_16
REMARK    5  A    between atoms: C_16  and  C_17
REMARK    6  A    between atoms: C_20  and  C_21
REMARK                            x       y       z     vdW  Elec       q    Type
REMARK                         _______ _______ _______ _____ _____    ______ ____
ROOT
ATOM      1  N   UNL     1       3.120   3.504  18.528  0.00  0.00    +0.000 N 
ATOM      2  C   UNL     1       2.218   3.842  19.520  0.00  0.00    +0.000 C 
ATOM      3  O   UNL     1       1.426   3.032  20.002  0.00  0.00    +0.000 OA
ATOM      4  C   UNL     1       2.087   5.318  19.841  0.00  0.00    +0.000 C 
ATOM      5  C   UNL     1       3.266   6.219  19.521  0.00  0.00    +0.000 C 
ATOM      6  C   UNL     1       4.020   5.815  18.249  0.00  0.00    +0.000 C 
ATOM      7  C   UNL     1       4.287   4.314  18.219  0.00  0.00    +0.000 C 
ATOM      8  C   UNL     1       5.427   4.159  19.222  0.00  0.00    +0.000 C 
ATOM      9  C   UNL     1       6.223   5.464  19.117  0.00  0.00    +0.000 C 
ATOM     10  N   UNL     1       5.385   6.427  18.304  0.00  0.00    +0.000 NA
ENDROOT
BRANCH  10  11
ATOM     11  S   UNL     1       6.130   6.814  16.817  0.00  0.00    +0.000 S 
ATOM     12  O   UNL     1       5.077   7.174  15.889  0.00  0.00    +0.000 OA
ATOM     13  O   UNL     1       7.161   7.786  17.130  0.00  0.00    +0.000 OA
BRANCH  11  14
ATOM     14  C   UNL     1       6.965   5.327  16.266  0.00  0.00    +0.000 C 
BRANCH  14  15
ATOM     15  C   UNL     1       6.552   4.811  14.914  0.00  0.00    +0.000 A 
ATOM     16  C   UNL     1       7.398   4.915  13.803  0.00  0.00    +0.000 A 
ATOM     17  C   UNL     1       7.122   4.218  12.624  0.00  0.00    +0.000 A 
ATOM     18  C   UNL     1       5.995   3.396  12.531  0.00  0.00    +0.000 A 
ATOM     19  C   UNL     1       5.779   2.530  11.326  0.00  0.00    +0.000 C 
ATOM     20  C   UNL     1       5.124   3.318  13.623  0.00  0.00    +0.000 A 
ATOM     21  C   UNL     1       5.396   4.022  14.799  0.00  0.00    +0.000 A 
ENDBRANCH  14  15
ENDBRANCH  11  14
ENDBRANCH  10  11
BRANCH   1  23
ATOM     22  C   UNL     1       3.699   1.162  18.119  0.00  0.00    +0.000 C 
ATOM     23  C   UNL     1       2.839   2.344  17.686  0.00  0.00    +0.000 C 
ENDBRANCH   1  23
TORSDOF 4
ENDMDL
MODEL 5
REMARK VINA RESULT:      -7.3      2.553      7.115
REMARK  Name = 
REMARK  6 active torsions:
REMARK  status: ('A' for Active; 'I' for Inactive)
REMARK    1  A    between atoms: C_1  and  C_2
REMARK    2  A    between atoms: C_2  and  N_3
REMARK    3  A    between atoms: N_12  and  S_13
REMARK    4  A    between atoms: S_13  and  C_16
REMARK    5  A    between atoms: C_16  and  C_17
REMARK    6  A    between atoms: C_20  and  C_21
REMARK                            x       y       z     vdW  Elec       q    Type
REMARK                         _______ _______ _______ _____ _____    ______ ____
ROOT
ATOM      1  N   UNL     1       2.833   3.639  18.755  0.00  0.00    +0.000 N 
ATOM      2  C   UNL     1       1.942   4.463  19.416  0.00  0.00    +0.000 C 
ATOM      3  O   UNL     1       0.968   4.029  20.032  0.00  0.00    +0.000 OA
ATOM      4  C   UNL     1       2.084   5.952  19.168  0.00  0.00    +0.000 C 
ATOM      5  C   UNL     1       3.441   6.469  18.726  0.00  0.00    +0.000 C 
ATOM      6  C   UNL     1       4.197   5.503  17.808  0.00  0.00    +0.000 C 
ATOM      7  C   UNL     1       4.160   4.079  18.354  0.00  0.00    +0.000 C 
ATOM      8  C   UNL     1       5.163   4.138  19.503  0.00  0.00    +0.000 C 
ATOM      9  C   UNL     1       6.209   5.164  19.059  0.00  0.00    +0.000 C 
ATOM     10  N   UNL     1       5.649   5.868  17.842  0.00  0.00    +0.000 NA
ENDROOT
BRANCH  10  11
ATOM     11  S   UNL     1       6.571   5.544  16.443  0.00  0.00    +0.000 S 
ATOM     12  O   UNL     1       7.575   6.584  16.339  0.00  0.00    +0.000 OA
ATOM     13  O   UNL     1       6.995   4.160  16.557  0.00  0.00    +0.000 OA
BRANCH  11  14
ATOM     14  C   UNL     1       5.439   5.630  15.057  0.00  0.00    +0.000 C 
BRANCH  14  15
ATOM     15  C   UNL     1       5.855   4.868  13.828  0.00  0.00    +0.000 A 
ATOM     16  C   UNL     1       7.130   5.019  13.270  0.00  0.00    +0.000 A 
ATOM     17  C   UNL     1       7.596   4.134  12.294  0.00  0.00    +0.000 A 
ATOM     18  C   UNL     1       6.797   3.074  11.857  0.00  0.00    +0.000 A 
ATOM     19  C   UNL     1       7.349   2.036  10.924  0.00  0.00    +0.000 C 
ATOM     20  C   UNL     1       5.507   2.939  12.380  0.00  0.00    +0.000 A 
ATOM     21  C   UNL     1       5.039   3.830  13.350  0.00  0.00    +0.000 A 
ENDBRANCH  14  15
ENDBRANCH  11  14
ENDBRANCH  10  11
BRANCH   1  23
ATOM     22  C   UNL     1       3.584   1.355  18.297  0.00  0.00    +0.000 C 
ATOM     23  C   UNL     1       2.393   2.307  18.348  0.00  0.00    +0.000 C 
ENDBRANCH   1  23
TORSDOF 4
ENDMDL
MODEL 6
REMARK VINA RESULT:      -7.3      2.482      5.754
REMARK  Name = 
REMARK  6 active torsions:
REMARK  status: ('A' for Active; 'I' for Inactive)
REMARK    1  A    between atoms: C_1  and  C_2
REMARK    2  A    between atoms: C_2  and  N_3
REMARK    3  A    between atoms: N_12  and  S_13
REMARK    4  A    between atoms: S_13  and  C_16
REMARK    5  A    between atoms: C_16  and  C_17
REMARK    6  A    between atoms: C_20  and  C_21
REMARK                            x       y       z     vdW  Elec       q    Type
REMARK                         _______ _______ _______ _____ _____    ______ ____
ROOT
ATOM      1  N   UNL     1       2.308   4.238  20.374  0.00  0.00    +0.000 N 
ATOM      2  C   UNL     1       2.411   3.135  21.201  0.00  0.00    +0.000 C 
ATOM      3  O   UNL     1       1.715   2.990  22.205  0.00  0.00    +0.000 OA
ATOM      4  C   UNL     1       3.581   2.205  20.946  0.00  0.00    +0.000 C 
ATOM      5  C   UNL     1       4.185   2.193  19.552  0.00  0.00    +0.000 C 
ATOM      6  C   UNL     1       4.184   3.566  18.871  0.00  0.00    +0.000 C 
ATOM      7  C   UNL     1       2.831   4.254  19.018  0.00  0.00    +0.000 C 
ATOM      8  C   UNL     1       1.964   3.498  18.014  0.00  0.00    +0.000 C 
ATOM      9  C   UNL     1       2.925   3.093  16.892  0.00  0.00    +0.000 C 
ATOM     10  N   UNL     1       4.327   3.353  17.397  0.00  0.00    +0.000 NA
ENDROOT
BRANCH  10  11
ATOM     11  S   UNL     1       5.104   4.582  16.500  0.00  0.00    +0.000 S 
ATOM     12  O   UNL     1       5.104   4.166  15.112  0.00  0.00    +0.000 OA
ATOM     13  O   UNL     1       4.444   5.821  16.868  0.00  0.00    +0.000 OA
BRANCH  11  14
ATOM     14  C   UNL     1       6.781   4.680  17.121  0.00  0.00    +0.000 C 
BRANCH  14  15
ATOM     15  C   UNL     1       7.187   6.011  17.695  0.00  0.00    +0.000 A 
ATOM     16  C   UNL     1       7.915   6.102  18.888  0.00  0.00    +0.000 A 
ATOM     17  C   UNL     1       8.502   7.307  19.280  0.00  0.00    +0.000 A 
ATOM     18  C   UNL     1       8.379   8.450  18.484  0.00  0.00    +0.000 A 
ATOM     19  C   UNL     1       9.133   9.701  18.824  0.00  0.00    +0.000 C 
ATOM     20  C   UNL     1       7.620   8.378  17.311  0.00  0.00    +0.000 A 
ATOM     21  C   UNL     1       7.026   7.173  16.924  0.00  0.00    +0.000 A 
ENDBRANCH  14  15
ENDBRANCH  11  14
ENDBRANCH  10  11
BRANCH   1  23
ATOM     22  C   UNL     1       2.132   6.654  20.031  0.00  0.00    +0.000 C 
ATOM     23  C   UNL     1       1.744   5.473  20.914  0.00  0.00    +0.000 C 
ENDBRANCH   1  23
TORSDOF 4
ENDMDL
MODEL 7
REMARK VINA RESULT:      -7.2      2.530      6.940
REMARK  Name = 
REMARK  6 active torsions:
REMARK  status: ('A' for Active; 'I' for Inactive)
REMARK    1  A    between atoms: C_1  and  C_2
REMARK    2  A    between atoms: C_2  and  N_3
REMARK    3  A    between atoms: N_12  and  S_13
REMARK    4  A    between atoms: S_13  and  C_16
REMARK    5  A    between atoms: C_16  and  C_17
REMARK    6  A    between atoms: C_20  and  C_21
REMARK                            x       y       z     vdW  Elec       q    Type
REMARK                         _______ _______ _______ _____ _____    ______ ____
ROOT
ATOM      1  N   UNL     1       3.005   3.726  18.349  0.00  0.00    +0.000 N 
ATOM      2  C   UNL     1       2.002   4.389  19.031  0.00  0.00    +0.000 C 
ATOM      3  O   UNL     1       1.000   3.817  19.460  0.00  0.00    +0.000 OA
ATOM      4  C   UNL     1       2.077   5.903  19.040  0.00  0.00    +0.000 C 
ATOM      5  C   UNL     1       3.437   6.546  18.837  0.00  0.00    +0.000 C 
ATOM      6  C   UNL     1       4.340   5.778  17.864  0.00  0.00    +0.000 C 
ATOM      7  C   UNL     1       4.335   4.284  18.170  0.00  0.00    +0.000 C 
ATOM      8  C   UNL     1       5.212   4.197  19.416  0.00  0.00    +0.000 C 
ATOM      9  C   UNL     1       6.233   5.328  19.258  0.00  0.00    +0.000 C 
ATOM     10  N   UNL     1       5.755   6.197  18.115  0.00  0.00    +0.000 NA
ENDROOT
BRANCH  10  11
ATOM     11  S   UNL     1       6.832   6.149  16.791  0.00  0.00    +0.000 S 
ATOM     12  O   UNL     1       7.578   7.391  16.797  0.00  0.00    +0.000 OA
ATOM     13  O   UNL     1       7.548   4.892  16.906  0.00  0.00    +0.000 OA
BRANCH  11  14
ATOM     14  C   UNL     1       5.819   6.039  15.317  0.00  0.00    +0.000 C 
BRANCH  14  15
ATOM     15  C   UNL     1       6.212   4.969  14.335  0.00  0.00    +0.000 A 
ATOM     16  C   UNL     1       5.356   3.902  14.034  0.00  0.00    +0.000 A 
ATOM     17  C   UNL     1       5.612   3.060  12.949  0.00  0.00    +0.000 A 
ATOM     18  C   UNL     1       6.729   3.269  12.135  0.00  0.00    +0.000 A 
ATOM     19  C   UNL     1       6.922   2.465  10.883  0.00  0.00    +0.000 C 
ATOM     20  C   UNL     1       7.610   4.308  12.451  0.00  0.00    +0.000 A 
ATOM     21  C   UNL     1       7.357   5.145  13.542  0.00  0.00    +0.000 A 
ENDBRANCH  14  15
ENDBRANCH  11  14
ENDBRANCH  10  11
BRANCH   1  23
ATOM     22  C   UNL     1       3.474   1.324  18.339  0.00  0.00    +0.000 C 
ATOM     23  C   UNL     1       2.691   2.460  17.690  0.00  0.00    +0.000 C 
ENDBRANCH   1  23
TORSDOF 4
ENDMDL
MODEL 8
REMARK VINA RESULT:      -7.2      1.099      1.239
REMARK  Name = 
REMARK  6 active torsions:
REMARK  status: ('A' for Active; 'I' for Inactive)
REMARK    1  A    between atoms: C_1  and  C_2
REMARK    2  A    between atoms: C_2  and  N_3
REMARK    3  A    between atoms: N_12  and  S_13
REMARK    4  A    between atoms: S_13  and  C_16
REMARK    5  A    between atoms: C_16  and  C_17
REMARK    6  A    between atoms: C_20  and  C_21
REMARK                            x       y       z     vdW  Elec       q    Type
REMARK                         _______ _______ _______ _____ _____    ______ ____
ROOT
ATOM      1  N   UNL     1       6.500   4.768  18.115  0.00  0.00    +0.000 N 
ATOM      2  C   UNL     1       6.621   4.413  16.784  0.00  0.00    +0.000 C 
ATOM      3  O   UNL     1       7.708   4.344  16.211  0.00  0.00    +0.000 OA
ATOM      4  C   UNL     1       5.334   4.327  15.987  0.00  0.00    +0.000 C 
ATOM      5  C   UNL     1       4.047   4.068  16.749  0.00  0.00    +0.000 C 
ATOM      6  C   UNL     1       4.005   4.732  18.129  0.00  0.00    +0.000 C 
ATOM      7  C   UNL     1       5.303   4.498  18.894  0.00  0.00    +0.000 C 
ATOM      8  C   UNL     1       5.171   3.042  19.335  0.00  0.00    +0.000 C 
ATOM      9  C   UNL     1       3.668   2.830  19.542  0.00  0.00    +0.000 C 
ATOM     10  N   UNL     1       2.967   4.034  18.951  0.00  0.00    +0.000 NA
ENDROOT
BRANCH  10  11
ATOM     11  S   UNL     1       2.167   4.951  20.148  0.00  0.00    +0.000 S 
ATOM     12  O   UNL     1       0.761   4.982  19.800  0.00  0.00    +0.000 OA
ATOM     13  O   UNL     1       2.569   4.380  21.421  0.00  0.00    +0.000 OA
BRANCH  11  14
ATOM     14  C   UNL     1       2.864   6.600  20.073  0.00  0.00    +0.000 C 
BRANCH  14  15
ATOM     15  C   UNL     1       1.905   7.695  19.690  0.00  0.00    +0.000 A 
ATOM     16  C   UNL     1       1.110   8.339  20.646  0.00  0.00    +0.000 A 
ATOM     17  C   UNL     1       0.417   9.511  20.332  0.00  0.00    +0.000 A 
ATOM     18  C   UNL     1       0.509  10.070  19.054  0.00  0.00    +0.000 A 
ATOM     19  C   UNL     1      -0.107  11.406  18.760  0.00  0.00    +0.000 C 
ATOM     20  C   UNL     1       1.270   9.412  18.082  0.00  0.00    +0.000 A 
ATOM     21  C   UNL     1       1.956   8.235  18.395  0.00  0.00    +0.000 A 
ENDBRANCH  14  15
ENDBRANCH  11  14
ENDBRANCH  10  11
BRANCH   1  23
ATOM     22  C   UNL     1       7.658   6.924  18.110  0.00  0.00    +0.000 C 
ATOM     23  C   UNL     1       7.574   5.538  18.739  0.00  0.00    +0.000 C 
ENDBRANCH   1  23
TORSDOF 4
ENDMDL
MODEL 9
REMARK VINA RESULT:      -7.2      2.724      6.683
REMARK  Name = 
REMARK  6 active torsions:
REMARK  status: ('A' for Active; 'I' for Inactive)
REMARK    1  A    between atoms: C_1  and  C_2
REMARK    2  A    between atoms: C_2  and  N_3
REMARK    3  A    between atoms: N_12  and  S_13
REMARK    4  A    between atoms: S_13  and  C_16
REMARK    5  A    between atoms: C_16  and  C_17
REMARK    6  A    between atoms: C_20  and  C_21
REMARK                            x       y       z     vdW  Elec       q    Type
REMARK                         _______ _______ _______ _____ _____    ______ ____
ROOT
ATOM      1  N   UNL     1       2.085   3.934  19.797  0.00  0.00    +0.000 N 
ATOM      2  C   UNL     1       1.288   3.145  18.989  0.00  0.00    +0.000 C 
ATOM      3  O   UNL     1       0.197   2.708  19.355  0.00  0.00    +0.000 OA
ATOM      4  C   UNL     1       1.913   2.648  17.700  0.00  0.00    +0.000 C 
ATOM      5  C   UNL     1       3.062   3.450  17.116  0.00  0.00    +0.000 C 
ATOM      6  C   UNL     1       3.977   4.073  18.175  0.00  0.00    +0.000 C 
ATOM      7  C   UNL     1       3.167   4.753  19.274  0.00  0.00    +0.000 C 
ATOM      8  C   UNL     1       2.695   6.035  18.593  0.00  0.00    +0.000 C 
ATOM      9  C   UNL     1       3.814   6.393  17.611  0.00  0.00    +0.000 C 
ATOM     10  N   UNL     1       4.734   5.194  17.534  0.00  0.00    +0.000 NA
ENDROOT
BRANCH  10  11
ATOM     11  S   UNL     1       6.286   5.546  18.153  0.00  0.00    +0.000 S 
ATOM     12  O   UNL     1       6.443   6.987  18.127  0.00  0.00    +0.000 OA
ATOM     13  O   UNL     1       6.376   4.848  19.422  0.00  0.00    +0.000 OA
BRANCH  11  14
ATOM     14  C   UNL     1       7.462   4.772  17.046  0.00  0.00    +0.000 C 
BRANCH  14  15
ATOM     15  C   UNL     1       7.006   4.609  15.621  0.00  0.00    +0.000 A 
ATOM     16  C   UNL     1       7.636   5.288  14.570  0.00  0.00    +0.000 A 
ATOM     17  C   UNL     1       7.380   4.945  13.240  0.00  0.00    +0.000 A 
ATOM     18  C   UNL     1       6.492   3.911  12.930  0.00  0.00    +0.000 A 
ATOM     19  C   UNL     1       6.333   3.440  11.515  0.00  0.00    +0.000 C 
ATOM     20  C   UNL     1       5.829   3.255  13.972  0.00  0.00    +0.000 A 
ATOM     21  C   UNL     1       6.079   3.604  15.303  0.00  0.00    +0.000 A 
ENDBRANCH  14  15
ENDBRANCH  11  14
ENDBRANCH  10  11
BRANCH   1  23
ATOM     22  C   UNL     1       2.496   2.569  21.786  0.00  0.00    +0.000 C 
ATOM     23  C   UNL     1       1.906   3.867  21.245  0.00  0.00    +0.000 C 
ENDBRANCH   1  23
TORSDOF 4
ENDMDL
