MODEL 1
REMARK VINA RESULT:      -7.3      0.000      0.000
REMARK  Name = 
REMARK  12 active torsions:
REMARK  status: ('A' for Active; 'I' for Inactive)
REMARK    1  A    between atoms: C_2  and  C_3
REMARK    2  A    between atoms: C_3  and  O_4
REMARK    3  A    between atoms: C_3  and  C_10
REMARK    4  A    between atoms: O_4  and  C_5
REMARK    5  A    between atoms: C_5  and  C_7
REMARK    6  A    between atoms: C_7  and  C_8
REMARK    7  A    between atoms: C_7  and  C_9
REMARK    8  A    between atoms: C_13  and  O_14
REMARK    9  A    between atoms: O_14  and  C_15
REMARK   10  A    between atoms: C_15  and  C_17
REMARK   11  A    between atoms: C_17  and  C_18
REMARK   12  A    between atoms: C_17  and  C_19
REMARK                            x       y       z     vdW  Elec       q    Type
REMARK                         _______ _______ _______ _____ _____    ______ ____
ROOT
ATOM      1  C   UNL     1       5.515   5.909  17.807  0.00  0.00    +0.000 A 
ATOM      2  C   UNL     1       4.176   6.222  17.506  0.00  0.00    +0.000 A 
ATOM      3  C   UNL     1       3.129   5.751  18.311  0.00  0.00    +0.000 A 
ATOM      4  C   UNL     1       3.409   4.963  19.426  0.00  0.00    +0.000 A 
ATOM      5  C   UNL     1       4.732   4.702  19.778  0.00  0.00    +0.000 A 
ATOM      6  C   UNL     1       5.776   5.161  18.967  0.00  0.00    +0.000 A 
ENDROOT
BRANCH   1   7
ATOM      7  C   UNL     1       6.653   6.406  16.918  0.00  0.00    +0.000 C 
BRANCH   7   9
ATOM      8  C   UNL     1       7.832   8.505  17.675  0.00  0.00    +0.000 C 
ATOM      9  C   UNL     1       7.671   7.176  17.725  0.00  0.00    +0.000 C 
ENDBRANCH   7   9
BRANCH   7  10
ATOM     10  O   UNL     1       7.316   5.271  16.325  0.00  0.00    +0.000 OA
BRANCH  10  11
ATOM     11  C   UNL     1       7.185   5.142  14.977  0.00  0.00    +0.000 C 
ATOM     12  O   UNL     1       7.945   5.618  14.141  0.00  0.00    +0.000 OA
BRANCH  11  13
ATOM     13  C   UNL     1       5.924   4.366  14.643  0.00  0.00    +0.000 C 
ATOM     14  C   UNL     1       6.067   3.773  13.247  0.00  0.00    +0.000 C 
ATOM     15  C   UNL     1       5.670   3.273  15.680  0.00  0.00    +0.000 C 
ENDBRANCH  11  13
ENDBRANCH  10  11
ENDBRANCH   7  10
ENDBRANCH   1   7
BRANCH   4  16
ATOM     16  O   UNL     1       2.309   4.503  20.186  0.00  0.00    +0.000 OA
BRANCH  16  17
ATOM     17  C   UNL     1       2.325   3.215  20.733  0.00  0.00    +0.000 C 
ATOM     18  O   UNL     1       2.722   2.909  21.853  0.00  0.00    +0.000 OA
BRANCH  17  19
ATOM     19  C   UNL     1       1.826   2.202  19.714  0.00  0.00    +0.000 C 
ATOM     20  C   UNL     1       0.688   2.822  18.915  0.00  0.00    +0.000 C 
ATOM     21  C   UNL     1       2.971   1.791  18.787  0.00  0.00    +0.000 C 
ENDBRANCH  17  19
ENDBRANCH  16  17
ENDBRANCH   4  16
TORSDOF 8
ENDMDL
MODEL 2
REMARK VINA RESULT:      -7.3      0.504      1.391
REMARK  Name = 
REMARK  12 active torsions:
REMARK  status: ('A' for Active; 'I' for Inactive)
REMARK    1  A    between atoms: C_2  and  C_3
REMARK    2  A    between atoms: C_3  and  O_4
REMARK    3  A    between atoms: C_3  and  C_10
REMARK    4  A    between atoms: O_4  and  C_5
REMARK    5  A    between atoms: C_5  and  C_7
REMARK    6  A    between atoms: C_7  and  C_8
REMARK    7  A    between atoms: C_7  and  C_9
REMARK    8  A    between atoms: C_13  and  O_14
REMARK    9  A    between atoms: O_14  and  C_15
REMARK   10  A    between atoms: C_15  and  C_17
REMARK   11  A    between atoms: C_17  and  C_18
REMARK   12  A    between atoms: C_17  and  C_19
REMARK                            x       y       z     vdW  Elec       q    Type
REMARK                         _______ _______ _______ _____ _____    ______ ____
ROOT
ATOM      1  C   UNL     1       5.523   6.198  17.706  0.00  0.00    +0.000 A 
ATOM      2  C   UNL     1       5.674   5.418  18.868  0.00  0.00    +0.000 A 
ATOM      3  C   UNL     1       4.566   5.098  19.668  0.00  0.00    +0.000 A 
ATOM      4  C   UNL     1       3.298   5.554  19.314  0.00  0.00    +0.000 A 
ATOM      5  C   UNL     1       3.121   6.267  18.130  0.00  0.00    +0.000 A 
ATOM      6  C   UNL     1       4.226   6.598  17.340  0.00  0.00    +0.000 A 
ENDROOT
BRANCH   1   7
ATOM      7  C   UNL     1       6.731   6.563  16.848  0.00  0.00    +0.000 C 
BRANCH   7   9
ATOM      8  C   UNL     1       7.880   8.627  17.738  0.00  0.00    +0.000 C 
ATOM      9  C   UNL     1       7.771   7.293  17.664  0.00  0.00    +0.000 C 
ENDBRANCH   7   9
BRANCH   7  10
ATOM     10  O   UNL     1       7.330   5.353  16.339  0.00  0.00    +0.000 OA
BRANCH  10  11
ATOM     11  C   UNL     1       7.223   5.155  14.996  0.00  0.00    +0.000 C 
ATOM     12  O   UNL     1       8.016   5.560  14.154  0.00  0.00    +0.000 OA
BRANCH  11  13
ATOM     13  C   UNL     1       5.943   4.404  14.676  0.00  0.00    +0.000 C 
ATOM     14  C   UNL     1       6.075   3.778  13.293  0.00  0.00    +0.000 C 
ATOM     15  C   UNL     1       5.660   3.340  15.736  0.00  0.00    +0.000 C 
ENDBRANCH  11  13
ENDBRANCH  10  11
ENDBRANCH   7  10
ENDBRANCH   1   7
BRANCH   4  16
ATOM     16  O   UNL     1       2.226   5.213  20.171  0.00  0.00    +0.000 OA
BRANCH  16  17
ATOM     17  C   UNL     1       1.915   3.869  20.404  0.00  0.00    +0.000 C 
ATOM     18  O   UNL     1       1.751   3.342  21.499  0.00  0.00    +0.000 OA
BRANCH  17  19
ATOM     19  C   UNL     1       1.860   3.105  19.090  0.00  0.00    +0.000 C 
ATOM     20  C   UNL     1       2.931   2.022  19.102  0.00  0.00    +0.000 C 
ATOM     21  C   UNL     1       0.473   2.486  18.907  0.00  0.00    +0.000 C 
ENDBRANCH  17  19
ENDBRANCH  16  17
ENDBRANCH   4  16
TORSDOF 8
ENDMDL
MODEL 3
REMARK VINA RESULT:      -7.2      1.447      3.360
REMARK  Name = 
REMARK  12 active torsions:
REMARK  status: ('A' for Active; 'I' for Inactive)
REMARK    1  A    between atoms: C_2  and  C_3
REMARK    2  A    between atoms: C_3  and  O_4
REMARK    3  A    between atoms: C_3  and  C_10
REMARK    4  A    between atoms: O_4  and  C_5
REMARK    5  A    between atoms: C_5  and  C_7
REMARK    6  A    between atoms: C_7  and  C_8
REMARK    7  A    between atoms: C_7  and  C_9
REMARK    8  A    between atoms: C_13  and  O_14
REMARK    9  A    between atoms: O_14  and  C_15
REMARK   10  A    between atoms: C_15  and  C_17
REMARK   11  A    between atoms: C_17  and  C_18
REMARK   12  A    between atoms: C_17  and  C_19
REMARK                            x       y       z     vdW  Elec       q    Type
REMARK                         _______ _______ _______ _____ _____    ______ ____
ROOT
ATOM      1  C   UNL     1       5.136   4.440  16.551  0.00  0.00    +0.000 A 
ATOM      2  C   UNL     1       4.491   3.275  17.008  0.00  0.00    +0.000 A 
ATOM      3  C   UNL     1       3.290   3.354  17.729  0.00  0.00    +0.000 A 
ATOM      4  C   UNL     1       2.722   4.598  17.999  0.00  0.00    +0.000 A 
ATOM      5  C   UNL     1       3.310   5.755  17.494  0.00  0.00    +0.000 A 
ATOM      6  C   UNL     1       4.515   5.677  16.787  0.00  0.00    +0.000 A 
ENDROOT
BRANCH   1   7
ATOM      7  C   UNL     1       6.454   4.353  15.785  0.00  0.00    +0.000 C 
BRANCH   7   9
ATOM      8  C   UNL     1       5.943   3.813  13.373  0.00  0.00    +0.000 C 
ATOM      9  C   UNL     1       6.254   4.699  14.329  0.00  0.00    +0.000 C 
ENDBRANCH   7   9
BRANCH   7  10
ATOM     10  O   UNL     1       7.387   5.299  16.346  0.00  0.00    +0.000 OA
BRANCH  10  11
ATOM     11  C   UNL     1       7.966   4.937  17.524  0.00  0.00    +0.000 C 
ATOM     12  O   UNL     1       8.509   3.861  17.747  0.00  0.00    +0.000 OA
BRANCH  11  13
ATOM     13  C   UNL     1       7.795   6.039  18.554  0.00  0.00    +0.000 C 
ATOM     14  C   UNL     1       7.521   7.351  17.828  0.00  0.00    +0.000 C 
ATOM     15  C   UNL     1       6.664   5.702  19.525  0.00  0.00    +0.000 C 
ENDBRANCH  11  13
ENDBRANCH  10  11
ENDBRANCH   7  10
ENDBRANCH   1   7
BRANCH   4  16
ATOM     16  O   UNL     1       1.521   4.611  18.746  0.00  0.00    +0.000 OA
BRANCH  16  17
ATOM     17  C   UNL     1       1.564   4.735  20.139  0.00  0.00    +0.000 C 
ATOM     18  O   UNL     1       1.922   5.725  20.768  0.00  0.00    +0.000 OA
BRANCH  17  19
ATOM     19  C   UNL     1       1.155   3.426  20.799  0.00  0.00    +0.000 C 
ATOM     20  C   UNL     1       0.619   2.481  19.732  0.00  0.00    +0.000 C 
ATOM     21  C   UNL     1       2.358   2.805  21.511  0.00  0.00    +0.000 C 
ENDBRANCH  17  19
ENDBRANCH  16  17
ENDBRANCH   4  16
TORSDOF 8
ENDMDL
MODEL 4
REMARK VINA RESULT:      -7.2      1.652      3.683
REMARK  Name = 
REMARK  12 active torsions:
REMARK  status: ('A' for Active; 'I' for Inactive)
REMARK    1  A    between atoms: C_2  and  C_3
REMARK    2  A    between atoms: C_3  and  O_4
REMARK    3  A    between atoms: C_3  and  C_10
REMARK    4  A    between atoms: O_4  and  C_5
REMARK    5  A    between atoms: C_5  and  C_7
REMARK    6  A    between atoms: C_7  and  C_8
REMARK    7  A    between atoms: C_7  and  C_9
REMARK    8  A    between atoms: C_13  and  O_14
REMARK    9  A    between atoms: O_14  and  C_15
REMARK   10  A    between atoms: C_15  and  C_17
REMARK   11  A    between atoms: C_17  and  C_18
REMARK   12  A    between atoms: C_17  and  C_19
REMARK                            x       y       z     vdW  Elec       q    Type
REMARK                         _______ _______ _______ _____ _____    ______ ____
ROOT
ATOM      1  C   UNL     1       5.120   4.394  16.491  0.00  0.00    +0.000 A 
ATOM      2  C   UNL     1       4.432   3.220  16.852  0.00  0.00    +0.000 A 
ATOM      3  C   UNL     1       3.205   3.286  17.528  0.00  0.00    +0.000 A 
ATOM      4  C   UNL     1       2.653   4.525  17.849  0.00  0.00    +0.000 A 
ATOM      5  C   UNL     1       3.286   5.695  17.437  0.00  0.00    +0.000 A 
ATOM      6  C   UNL     1       4.516   5.630  16.775  0.00  0.00    +0.000 A 
ENDROOT
BRANCH   1   7
ATOM      7  C   UNL     1       6.466   4.321  15.774  0.00  0.00    +0.000 C 
BRANCH   7   9
ATOM      8  C   UNL     1       5.884   3.728  13.390  0.00  0.00    +0.000 C 
ATOM      9  C   UNL     1       6.309   4.615  14.301  0.00  0.00    +0.000 C 
ENDBRANCH   7   9
BRANCH   7  10
ATOM     10  O   UNL     1       7.353   5.311  16.335  0.00  0.00    +0.000 OA
BRANCH  10  11
ATOM     11  C   UNL     1       7.849   5.032  17.572  0.00  0.00    +0.000 C 
ATOM     12  O   UNL     1       8.485   4.028  17.871  0.00  0.00    +0.000 OA
BRANCH  11  13
ATOM     13  C   UNL     1       7.456   6.120  18.554  0.00  0.00    +0.000 C 
ATOM     14  C   UNL     1       8.161   5.863  19.880  0.00  0.00    +0.000 C 
ATOM     15  C   UNL     1       7.809   7.501  18.002  0.00  0.00    +0.000 C 
ENDBRANCH  11  13
ENDBRANCH  10  11
ENDBRANCH   7  10
ENDBRANCH   1   7
BRANCH   4  16
ATOM     16  O   UNL     1       1.423   4.523  18.547  0.00  0.00    +0.000 OA
BRANCH  16  17
ATOM     17  C   UNL     1       1.056   3.414  19.317  0.00  0.00    +0.000 C 
ATOM     18  O   UNL     1       0.586   2.362  18.895  0.00  0.00    +0.000 OA
BRANCH  17  19
ATOM     19  C   UNL     1       1.265   3.705  20.795  0.00  0.00    +0.000 C 
ATOM     20  C   UNL     1       2.219   2.668  21.374  0.00  0.00    +0.000 C 
ATOM     21  C   UNL     1       1.833   5.114  20.973  0.00  0.00    +0.000 C 
ENDBRANCH  17  19
ENDBRANCH  16  17
ENDBRANCH   4  16
TORSDOF 8
ENDMDL
MODEL 5
REMARK VINA RESULT:      -7.1      1.436      3.270
REMARK  Name = 
REMARK  12 active torsions:
REMARK  status: ('A' for Active; 'I' for Inactive)
REMARK    1  A    between atoms: C_2  and  C_3
REMARK    2  A    between atoms: C_3  and  O_4
REMARK    3  A    between atoms: C_3  and  C_10
REMARK    4  A    between atoms: O_4  and  C_5
REMARK    5  A    between atoms: C_5  and  C_7
REMARK    6  A    between atoms: C_7  and  C_8
REMARK    7  A    between atoms: C_7  and  C_9
REMARK    8  A    between atoms: C_13  and  O_14
REMARK    9  A    between atoms: O_14  and  C_15
REMARK   10  A    between atoms: C_15  and  C_17
REMARK   11  A    between atoms: C_17  and  C_18
REMARK   12  A    between atoms: C_17  and  C_19
REMARK                            x       y       z     vdW  Elec       q    Type
REMARK                         _______ _______ _______ _____ _____    ______ ____
ROOT
ATOM      1  C   UNL     1       5.160   4.375  16.569  0.00  0.00    +0.000 A 
ATOM      2  C   UNL     1       4.510   5.601  16.806  0.00  0.00    +0.000 A 
ATOM      3  C   UNL     1       3.310   5.650  17.531  0.00  0.00    +0.000 A 
ATOM      4  C   UNL     1       2.748   4.475  18.027  0.00  0.00    +0.000 A 
ATOM      5  C   UNL     1       3.414   3.263  17.862  0.00  0.00    +0.000 A 
ATOM      6  C   UNL     1       4.604   3.211  17.127  0.00  0.00    +0.000 A 
ENDROOT
BRANCH   1   7
ATOM      7  C   UNL     1       6.454   4.320  15.762  0.00  0.00    +0.000 C 
BRANCH   7   9
ATOM      8  C   UNL     1       5.953   3.805  13.342  0.00  0.00    +0.000 C 
ATOM      9  C   UNL     1       6.205   4.688  14.318  0.00  0.00    +0.000 C 
ENDBRANCH   7   9
BRANCH   7  10
ATOM     10  O   UNL     1       7.391   5.269  16.311  0.00  0.00    +0.000 OA
BRANCH  10  11
ATOM     11  C   UNL     1       7.958   4.927  17.500  0.00  0.00    +0.000 C 
ATOM     12  O   UNL     1       8.491   3.852  17.749  0.00  0.00    +0.000 OA
BRANCH  11  13
ATOM     13  C   UNL     1       7.787   6.051  18.506  0.00  0.00    +0.000 C 
ATOM     14  C   UNL     1       7.479   7.340  17.754  0.00  0.00    +0.000 C 
ATOM     15  C   UNL     1       6.679   5.719  19.505  0.00  0.00    +0.000 C 
ENDBRANCH  11  13
ENDBRANCH  10  11
ENDBRANCH   7  10
ENDBRANCH   1   7
BRANCH   4  16
ATOM     16  O   UNL     1       1.529   4.589  18.733  0.00  0.00    +0.000 OA
BRANCH  16  17
ATOM     17  C   UNL     1       1.535   4.719  20.127  0.00  0.00    +0.000 C 
ATOM     18  O   UNL     1       1.878   5.712  20.760  0.00  0.00    +0.000 OA
BRANCH  17  19
ATOM     19  C   UNL     1       1.107   3.414  20.781  0.00  0.00    +0.000 C 
ATOM     20  C   UNL     1       0.626   2.454  19.701  0.00  0.00    +0.000 C 
ATOM     21  C   UNL     1       2.281   2.810  21.553  0.00  0.00    +0.000 C 
ENDBRANCH  17  19
ENDBRANCH  16  17
ENDBRANCH   4  16
TORSDOF 8
ENDMDL
MODEL 6
REMARK VINA RESULT:      -7.1      1.583      2.490
REMARK  Name = 
REMARK  12 active torsions:
REMARK  status: ('A' for Active; 'I' for Inactive)
REMARK    1  A    between atoms: C_2  and  C_3
REMARK    2  A    between atoms: C_3  and  O_4
REMARK    3  A    between atoms: C_3  and  C_10
REMARK    4  A    between atoms: O_4  and  C_5
REMARK    5  A    between atoms: C_5  and  C_7
REMARK    6  A    between atoms: C_7  and  C_8
REMARK    7  A    between atoms: C_7  and  C_9
REMARK    8  A    between atoms: C_13  and  O_14
REMARK    9  A    between atoms: O_14  and  C_15
REMARK   10  A    between atoms: C_15  and  C_17
REMARK   11  A    between atoms: C_17  and  C_18
REMARK   12  A    between atoms: C_17  and  C_19
REMARK                            x       y       z     vdW  Elec       q    Type
REMARK                         _______ _______ _______ _____ _____    ______ ____
ROOT
ATOM      1  C   UNL     1       5.307   4.252  17.258  0.00  0.00    +0.000 A 
ATOM      2  C   UNL     1       5.436   4.053  18.646  0.00  0.00    +0.000 A 
ATOM      3  C   UNL     1       4.482   3.310  19.357  0.00  0.00    +0.000 A 
ATOM      4  C   UNL     1       3.390   2.759  18.689  0.00  0.00    +0.000 A 
ATOM      5  C   UNL     1       3.285   2.887  17.306  0.00  0.00    +0.000 A 
ATOM      6  C   UNL     1       4.229   3.639  16.598  0.00  0.00    +0.000 A 
ENDROOT
BRANCH   1   7
ATOM      7  C   UNL     1       6.335   5.078  16.489  0.00  0.00    +0.000 C 
BRANCH   7   9
ATOM      8  C   UNL     1       7.445   7.040  17.626  0.00  0.00    +0.000 C 
ATOM      9  C   UNL     1       7.326   5.719  17.432  0.00  0.00    +0.000 C 
ENDBRANCH   7   9
BRANCH   7  10
ATOM     10  O   UNL     1       7.063   4.210  15.596  0.00  0.00    +0.000 OA
BRANCH  10  11
ATOM     11  C   UNL     1       7.227   4.667  14.324  0.00  0.00    +0.000 C 
ATOM     12  O   UNL     1       7.804   5.701  14.011  0.00  0.00    +0.000 OA
BRANCH  11  13
ATOM     13  C   UNL     1       6.541   3.737  13.340  0.00  0.00    +0.000 C 
ATOM     14  C   UNL     1       5.046   4.032  13.347  0.00  0.00    +0.000 C 
ATOM     15  C   UNL     1       7.127   3.905  11.939  0.00  0.00    +0.000 C 
ENDBRANCH  11  13
ENDBRANCH  10  11
ENDBRANCH   7  10
ENDBRANCH   1   7
BRANCH   4  16
ATOM     16  O   UNL     1       2.454   2.037  19.465  0.00  0.00    +0.000 OA
BRANCH  16  17
ATOM     17  C   UNL     1       1.128   2.475  19.548  0.00  0.00    +0.000 C 
ATOM     18  O   UNL     1       0.238   2.254  18.733  0.00  0.00    +0.000 OA
BRANCH  17  19
ATOM     19  C   UNL     1       0.933   3.337  20.787  0.00  0.00    +0.000 C 
ATOM     20  C   UNL     1       1.750   2.752  21.931  0.00  0.00    +0.000 C 
ATOM     21  C   UNL     1       1.370   4.774  20.495  0.00  0.00    +0.000 C 
ENDBRANCH  17  19
ENDBRANCH  16  17
ENDBRANCH   4  16
TORSDOF 8
ENDMDL
MODEL 7
REMARK VINA RESULT:      -7.1      1.421      1.709
REMARK  Name = 
REMARK  12 active torsions:
REMARK  status: ('A' for Active; 'I' for Inactive)
REMARK    1  A    between atoms: C_2  and  C_3
REMARK    2  A    between atoms: C_3  and  O_4
REMARK    3  A    between atoms: C_3  and  C_10
REMARK    4  A    between atoms: O_4  and  C_5
REMARK    5  A    between atoms: C_5  and  C_7
REMARK    6  A    between atoms: C_7  and  C_8
REMARK    7  A    between atoms: C_7  and  C_9
REMARK    8  A    between atoms: C_13  and  O_14
REMARK    9  A    between atoms: O_14  and  C_15
REMARK   10  A    between atoms: C_15  and  C_17
REMARK   11  A    between atoms: C_17  and  C_18
REMARK   12  A    between atoms: C_17  and  C_19
REMARK                            x       y       z     vdW  Elec       q    Type
REMARK                         _______ _______ _______ _____ _____    ______ ____
ROOT
ATOM      1  C   UNL     1       5.350   5.672  17.105  0.00  0.00    +0.000 A 
ATOM      2  C   UNL     1       4.402   6.674  17.387  0.00  0.00    +0.000 A 
ATOM      3  C   UNL     1       3.172   6.354  17.980  0.00  0.00    +0.000 A 
ATOM      4  C   UNL     1       2.878   5.029  18.299  0.00  0.00    +0.000 A 
ATOM      5  C   UNL     1       3.832   4.036  18.091  0.00  0.00    +0.000 A 
ATOM      6  C   UNL     1       5.053   4.353  17.486  0.00  0.00    +0.000 A 
ENDROOT
BRANCH   1   7
ATOM      7  C   UNL     1       6.679   6.020  16.439  0.00  0.00    +0.000 C 
BRANCH   7   9
ATOM      8  C   UNL     1       7.708   6.127  18.742  0.00  0.00    +0.000 C 
ATOM      9  C   UNL     1       7.680   6.511  17.458  0.00  0.00    +0.000 C 
ENDBRANCH   7   9
BRANCH   7  10
ATOM     10  O   UNL     1       7.218   4.835  15.818  0.00  0.00    +0.000 OA
BRANCH  10  11
ATOM     11  C   UNL     1       7.351   4.881  14.464  0.00  0.00    +0.000 C 
ATOM     12  O   UNL     1       8.062   5.666  13.847  0.00  0.00    +0.000 OA
BRANCH  11  13
ATOM     13  C   UNL     1       6.446   3.852  13.811  0.00  0.00    +0.000 C 
ATOM     14  C   UNL     1       5.002   4.324  13.929  0.00  0.00    +0.000 C 
ATOM     15  C   UNL     1       6.837   3.636  12.350  0.00  0.00    +0.000 C 
ENDBRANCH  11  13
ENDBRANCH  10  11
ENDBRANCH   7  10
ENDBRANCH   1   7
BRANCH   4  16
ATOM     16  O   UNL     1       1.614   4.769  18.878  0.00  0.00    +0.000 OA
BRANCH  16  17
ATOM     17  C   UNL     1       1.477   4.729  20.270  0.00  0.00    +0.000 C 
ATOM     18  O   UNL     1       1.663   5.663  21.044  0.00  0.00    +0.000 OA
BRANCH  17  19
ATOM     19  C   UNL     1       1.111   3.325  20.724  0.00  0.00    +0.000 C 
ATOM     20  C   UNL     1       0.757   2.486  19.503  0.00  0.00    +0.000 C 
ATOM     21  C   UNL     1       2.285   2.701  21.481  0.00  0.00    +0.000 C 
ENDBRANCH  17  19
ENDBRANCH  16  17
ENDBRANCH   4  16
TORSDOF 8
ENDMDL
MODEL 8
REMARK VINA RESULT:      -7.0      0.892      1.609
REMARK  Name = 
REMARK  12 active torsions:
REMARK  status: ('A' for Active; 'I' for Inactive)
REMARK    1  A    between atoms: C_2  and  C_3
REMARK    2  A    between atoms: C_3  and  O_4
REMARK    3  A    between atoms: C_3  and  C_10
REMARK    4  A    between atoms: O_4  and  C_5
REMARK    5  A    between atoms: C_5  and  C_7
REMARK    6  A    between atoms: C_7  and  C_8
REMARK    7  A    between atoms: C_7  and  C_9
REMARK    8  A    between atoms: C_13  and  O_14
REMARK    9  A    between atoms: O_14  and  C_15
REMARK   10  A    between atoms: C_15  and  C_17
REMARK   11  A    between atoms: C_17  and  C_18
REMARK   12  A    between atoms: C_17  and  C_19
REMARK                            x       y       z     vdW  Elec       q    Type
REMARK                         _______ _______ _______ _____ _____    ______ ____
ROOT
ATOM      1  C   UNL     1       5.647   5.970  17.745  0.00  0.00    +0.000 A 
ATOM      2  C   UNL     1       5.954   4.968  18.685  0.00  0.00    +0.000 A 
ATOM      3  C   UNL     1       5.021   4.590  19.662  0.00  0.00    +0.000 A 
ATOM      4  C   UNL     1       3.773   5.209  19.709  0.00  0.00    +0.000 A 
ATOM      5  C   UNL     1       3.428   6.152  18.743  0.00  0.00    +0.000 A 
ATOM      6  C   UNL     1       4.363   6.539  17.777  0.00  0.00    +0.000 A 
ENDROOT
BRANCH   1   7
ATOM      7  C   UNL     1       6.671   6.395  16.695  0.00  0.00    +0.000 C 
BRANCH   7   9
ATOM      8  C   UNL     1       7.681   8.495  17.667  0.00  0.00    +0.000 C 
ATOM      9  C   UNL     1       7.782   7.204  17.322  0.00  0.00    +0.000 C 
ENDBRANCH   7   9
BRANCH   7  10
ATOM     10  O   UNL     1       7.254   5.217  16.102  0.00  0.00    +0.000 OA
BRANCH  10  11
ATOM     11  C   UNL     1       7.148   5.117  14.749  0.00  0.00    +0.000 C 
ATOM     12  O   UNL     1       7.919   5.617  13.938  0.00  0.00    +0.000 OA
BRANCH  11  13
ATOM     13  C   UNL     1       5.899   4.340  14.375  0.00  0.00    +0.000 C 
ATOM     14  C   UNL     1       6.120   3.678  13.020  0.00  0.00    +0.000 C 
ATOM     15  C   UNL     1       5.567   3.302  15.446  0.00  0.00    +0.000 C 
ENDBRANCH  11  13
ENDBRANCH  10  11
ENDBRANCH   7  10
ENDBRANCH   1   7
BRANCH   4  16
ATOM     16  O   UNL     1       2.885   4.796  20.729  0.00  0.00    +0.000 OA
BRANCH  16  17
ATOM     17  C   UNL     1       1.503   4.908  20.542  0.00  0.00    +0.000 C 
ATOM     18  O   UNL     1       0.848   5.945  20.580  0.00  0.00    +0.000 OA
BRANCH  17  19
ATOM     19  C   UNL     1       0.885   3.533  20.337  0.00  0.00    +0.000 C 
ATOM     20  C   UNL     1       1.030   3.139  18.873  0.00  0.00    +0.000 C 
ATOM     21  C   UNL     1       1.579   2.511  21.239  0.00  0.00    +0.000 C 
ENDBRANCH  17  19
ENDBRANCH  16  17
ENDBRANCH   4  16
TORSDOF 8
ENDMDL
MODEL 9
REMARK VINA RESULT:      -6.9      1.848      2.375
REMARK  Name = 
REMARK  12 active torsions:
REMARK  status: ('A' for Active; 'I' for Inactive)
REMARK    1  A    between atoms: C_2  and  C_3
REMARK    2  A    between atoms: C_3  and  O_4
REMARK    3  A    between atoms: C_3  and  C_10
REMARK    4  A    between atoms: O_4  and  C_5
REMARK    5  A    between atoms: C_5  and  C_7
REMARK    6  A    between atoms: C_7  and  C_8
REMARK    7  A    between atoms: C_7  and  C_9
REMARK    8  A    between atoms: C_13  and  O_14
REMARK    9  A    between atoms: O_14  and  C_15
REMARK   10  A    between atoms: C_15  and  C_17
REMARK   11  A    between atoms: C_17  and  C_18
REMARK   12  A    between atoms: C_17  and  C_19
REMARK                            x       y       z     vdW  Elec       q    Type
REMARK                         _______ _______ _______ _____ _____    ______ ____
ROOT
ATOM      1  C   UNL     1       5.130   4.905  16.910  0.00  0.00    +0.000 A 
ATOM      2  C   UNL     1       4.509   3.644  16.834  0.00  0.00    +0.000 A 
ATOM      3  C   UNL     1       3.190   3.464  17.276  0.00  0.00    +0.000 A 
ATOM      4  C   UNL     1       2.478   4.543  17.797  0.00  0.00    +0.000 A 
ATOM      5  C   UNL     1       3.053   5.812  17.814  0.00  0.00    +0.000 A 
ATOM      6  C   UNL     1       4.373   5.989  17.386  0.00  0.00    +0.000 A 
ENDROOT
BRANCH   1   7
ATOM      7  C   UNL     1       6.573   5.095  16.449  0.00  0.00    +0.000 C 
BRANCH   7   9
ATOM      8  C   UNL     1       7.806   5.431  18.625  0.00  0.00    +0.000 C 
ATOM      9  C   UNL     1       7.543   4.696  17.535  0.00  0.00    +0.000 C 
ENDBRANCH   7   9
BRANCH   7  10
ATOM     10  O   UNL     1       6.814   4.253  15.302  0.00  0.00    +0.000 OA
BRANCH  10  11
ATOM     11  C   UNL     1       7.257   4.887  14.182  0.00  0.00    +0.000 C 
ATOM     12  O   UNL     1       8.196   5.672  14.135  0.00  0.00    +0.000 OA
BRANCH  11  13
ATOM     13  C   UNL     1       6.383   4.526  12.994  0.00  0.00    +0.000 C 
ATOM     14  C   UNL     1       7.280   4.148  11.822  0.00  0.00    +0.000 C 
ATOM     15  C   UNL     1       5.431   3.385  13.349  0.00  0.00    +0.000 C 
ENDBRANCH  11  13
ENDBRANCH  10  11
ENDBRANCH   7  10
ENDBRANCH   1   7
BRANCH   4  16
ATOM     16  O   UNL     1       1.159   4.293  18.242  0.00  0.00    +0.000 OA
BRANCH  16  17
ATOM     17  C   UNL     1       0.874   3.132  18.970  0.00  0.00    +0.000 C 
ATOM     18  O   UNL     1       0.425   2.085  18.516  0.00  0.00    +0.000 OA
BRANCH  17  19
ATOM     19  C   UNL     1       1.144   3.357  20.450  0.00  0.00    +0.000 C 
ATOM     20  C   UNL     1       2.419   2.619  20.837  0.00  0.00    +0.000 C 
ATOM     21  C   UNL     1       1.283   4.854  20.732  0.00  0.00    +0.000 C 
ENDBRANCH  17  19
ENDBRANCH  16  17
ENDBRANCH   4  16
TORSDOF 8
ENDMDL
