MODEL 1
REMARK VINA RESULT:      -9.0      0.000      0.000
REMARK  Name = 
REMARK  3 active torsions:
REMARK  status: ('A' for Active; 'I' for Inactive)
REMARK    1  A    between atoms: C_1  and  C_2
REMARK    2  A    between atoms: C_5  and  C_6
REMARK    3  A    between atoms: C_8  and  C_9
REMARK                            x       y       z     vdW  Elec       q    Type
REMARK                         _______ _______ _______ _____ _____    ______ ____
ROOT
ATOM      1  C   UNL     1       2.851   6.581  19.240  0.00  0.00    +0.000 C 
ATOM      2  C   UNL     1       3.426   6.459  17.812  0.00  0.00    +0.000 C 
ATOM      3  C   UNL     1       3.763   5.013  17.382  0.00  0.00    +0.000 C 
ATOM      4  N   UNL     1       3.847   4.138  18.545  0.00  0.00    +0.000 N 
ATOM      5  N   UNL     1       4.690   3.124  18.764  0.00  0.00    +0.000 NA
ATOM      6  C   UNL     1       4.261   2.687  19.949  0.00  0.00    +0.000 A 
ATOM      7  N   UNL     1       4.815   1.732  20.707  0.00  0.00    +0.000 N 
ATOM      8  N   UNL     1       3.181   3.339  20.469  0.00  0.00    +0.000 NA
ATOM      9  C   UNL     1       2.950   4.269  19.586  0.00  0.00    +0.000 A 
ATOM     10  N   UNL     1       2.135   5.358  19.622  0.00  0.00    +0.000 N 
ATOM     11  H   UNL     1       4.099   1.099  21.044  0.00  0.00    +0.000 HD
ATOM     12  H   UNL     1       5.159   2.132  21.575  0.00  0.00    +0.000 HD
ATOM     13  H   UNL     1       1.258   5.254  19.121  0.00  0.00    +0.000 HD
ENDROOT
BRANCH   1  18
ATOM     14  C   UNL     1      -0.966  10.872  20.083  0.00  0.00    +0.000 C 
ATOM     15  C   UNL     1       0.174   9.915  19.905  0.00  0.00    +0.000 A 
ATOM     16  C   UNL     1       0.869   9.821  18.695  0.00  0.00    +0.000 A 
ATOM     17  C   UNL     1       1.811   8.803  18.491  0.00  0.00    +0.000 A 
ATOM     18  C   UNL     1       2.079   7.864  19.498  0.00  0.00    +0.000 A 
ATOM     19  C   UNL     1       1.430   8.024  20.737  0.00  0.00    +0.000 A 
ATOM     20  C   UNL     1       0.491   9.035  20.938  0.00  0.00    +0.000 A 
ENDBRANCH   1  18
BRANCH   3  21
ATOM     21  C   UNL     1       4.932   5.035  16.410  0.00  0.00    +0.000 A 
ATOM     22  C   UNL     1       6.162   5.569  16.846  0.00  0.00    +0.000 A 
ATOM     23  C   UNL     1       7.312   5.474  16.058  0.00  0.00    +0.000 A 
ATOM     24  C   UNL     1       7.253   4.842  14.819  0.00  0.00    +0.000 A 
ATOM     25  C   UNL     1       6.045   4.312  14.374  0.00  0.00    +0.000 A 
ATOM     26 CL   UNL     1       5.985   3.499  12.857  0.00  0.00    +0.000 Cl
ATOM     27  C   UNL     1       4.892   4.402  15.158  0.00  0.00    +0.000 A 
ENDBRANCH   3  21
TORSDOF 2
ENDMDL
MODEL 2
REMARK VINA RESULT:      -8.9      0.466      1.087
REMARK  Name = 
REMARK  3 active torsions:
REMARK  status: ('A' for Active; 'I' for Inactive)
REMARK    1  A    between atoms: C_1  and  C_2
REMARK    2  A    between atoms: C_5  and  C_6
REMARK    3  A    between atoms: C_8  and  C_9
REMARK                            x       y       z     vdW  Elec       q    Type
REMARK                         _______ _______ _______ _____ _____    ______ ____
ROOT
ATOM      1  C   UNL     1       2.681   6.455  19.437  0.00  0.00    +0.000 C 
ATOM      2  C   UNL     1       3.264   6.396  18.008  0.00  0.00    +0.000 C 
ATOM      3  C   UNL     1       3.674   4.979  17.545  0.00  0.00    +0.000 C 
ATOM      4  N   UNL     1       3.801   4.083  18.687  0.00  0.00    +0.000 N 
ATOM      5  N   UNL     1       4.695   3.108  18.883  0.00  0.00    +0.000 NA
ATOM      6  C   UNL     1       4.287   2.622  20.057  0.00  0.00    +0.000 A 
ATOM      7  N   UNL     1       4.888   1.678  20.794  0.00  0.00    +0.000 N 
ATOM      8  N   UNL     1       3.175   3.206  20.590  0.00  0.00    +0.000 NA
ATOM      9  C   UNL     1       2.897   4.143  19.728  0.00  0.00    +0.000 A 
ATOM     10  N   UNL     1       2.028   5.188  19.788  0.00  0.00    +0.000 N 
ATOM     11  H   UNL     1       4.204   1.002  21.114  0.00  0.00    +0.000 HD
ATOM     12  H   UNL     1       5.210   2.075  21.672  0.00  0.00    +0.000 HD
ATOM     13  H   UNL     1       1.158   5.052  19.283  0.00  0.00    +0.000 HD
ENDROOT
BRANCH   1  18
ATOM     14  C   UNL     1       0.429  11.671  20.627  0.00  0.00    +0.000 C 
ATOM     15  C   UNL     1       0.802  10.256  20.303  0.00  0.00    +0.000 A 
ATOM     16  C   UNL     1       0.828   9.260  21.285  0.00  0.00    +0.000 A 
ATOM     17  C   UNL     1       1.348   7.991  21.000  0.00  0.00    +0.000 A 
ATOM     18  C   UNL     1       1.845   7.690  19.723  0.00  0.00    +0.000 A 
ATOM     19  C   UNL     1       1.735   8.677  18.726  0.00  0.00    +0.000 A 
ATOM     20  C   UNL     1       1.221   9.941  19.010  0.00  0.00    +0.000 A 
ENDBRANCH   1  18
BRANCH   3  21
ATOM     21  C   UNL     1       4.842   5.084  16.576  0.00  0.00    +0.000 A 
ATOM     22  C   UNL     1       6.011   5.748  16.999  0.00  0.00    +0.000 A 
ATOM     23  C   UNL     1       7.170   5.740  16.218  0.00  0.00    +0.000 A 
ATOM     24  C   UNL     1       7.181   5.067  15.000  0.00  0.00    +0.000 A 
ATOM     25  C   UNL     1       6.032   4.408  14.568  0.00  0.00    +0.000 A 
ATOM     26 CL   UNL     1       6.061   3.546  13.078  0.00  0.00    +0.000 Cl
ATOM     27  C   UNL     1       4.871   4.411  15.345  0.00  0.00    +0.000 A 
ENDBRANCH   3  21
TORSDOF 2
ENDMDL
MODEL 3
REMARK VINA RESULT:      -8.8      2.688      6.794
REMARK  Name = 
REMARK  3 active torsions:
REMARK  status: ('A' for Active; 'I' for Inactive)
REMARK    1  A    between atoms: C_1  and  C_2
REMARK    2  A    between atoms: C_5  and  C_6
REMARK    3  A    between atoms: C_8  and  C_9
REMARK                            x       y       z     vdW  Elec       q    Type
REMARK                         _______ _______ _______ _____ _____    ______ ____
ROOT
ATOM      1  C   UNL     1       4.229   4.716  17.442  0.00  0.00    +0.000 C 
ATOM      2  C   UNL     1       3.943   6.186  17.821  0.00  0.00    +0.000 C 
ATOM      3  C   UNL     1       3.350   6.376  19.236  0.00  0.00    +0.000 C 
ATOM      4  N   UNL     1       2.817   5.117  19.741  0.00  0.00    +0.000 N 
ATOM      5  N   UNL     1       1.721   4.916  20.480  0.00  0.00    +0.000 NA
ATOM      6  C   UNL     1       1.778   3.596  20.665  0.00  0.00    +0.000 A 
ATOM      7  N   UNL     1       0.861   2.823  21.263  0.00  0.00    +0.000 N 
ATOM      8  N   UNL     1       2.857   2.964  20.121  0.00  0.00    +0.000 NA
ATOM      9  C   UNL     1       3.488   3.932  19.518  0.00  0.00    +0.000 A 
ATOM     10  N   UNL     1       4.524   3.916  18.637  0.00  0.00    +0.000 N 
ATOM     11  H   UNL     1       1.313   2.189  21.911  0.00  0.00    +0.000 HD
ATOM     12  H   UNL     1       0.459   2.176  20.590  0.00  0.00    +0.000 HD
ATOM     13  H   UNL     1       5.430   4.142  19.035  0.00  0.00    +0.000 HD
ENDROOT
BRANCH   1  18
ATOM     14  C   UNL     1       7.863   5.092  12.931  0.00  0.00    +0.000 C 
ATOM     15  C   UNL     1       6.989   4.785  14.109  0.00  0.00    +0.000 A 
ATOM     16  C   UNL     1       5.738   4.177  13.956  0.00  0.00    +0.000 A 
ATOM     17  C   UNL     1       4.864   4.060  15.045  0.00  0.00    +0.000 A 
ATOM     18  C   UNL     1       5.228   4.543  16.311  0.00  0.00    +0.000 A 
ATOM     19  C   UNL     1       6.521   5.076  16.464  0.00  0.00    +0.000 A 
ATOM     20  C   UNL     1       7.390   5.195  15.380  0.00  0.00    +0.000 A 
ENDBRANCH   1  18
BRANCH   3  21
ATOM     21  C   UNL     1       2.445   7.598  19.243  0.00  0.00    +0.000 A 
ATOM     22  C   UNL     1       2.172   8.243  18.020  0.00  0.00    +0.000 A 
ATOM     23  C   UNL     1       1.228   9.270  17.939  0.00  0.00    +0.000 A 
ATOM     24  C   UNL     1       0.537   9.669  19.079  0.00  0.00    +0.000 A 
ATOM     25  C   UNL     1       0.798   9.043  20.296  0.00  0.00    +0.000 A 
ATOM     26 CL   UNL     1      -0.084   9.515  21.697  0.00  0.00    +0.000 Cl
ATOM     27  C   UNL     1       1.741   8.015  20.383  0.00  0.00    +0.000 A 
ENDBRANCH   3  21
TORSDOF 2
ENDMDL
MODEL 4
REMARK VINA RESULT:      -8.2      3.543      5.140
REMARK  Name = 
REMARK  3 active torsions:
REMARK  status: ('A' for Active; 'I' for Inactive)
REMARK    1  A    between atoms: C_1  and  C_2
REMARK    2  A    between atoms: C_5  and  C_6
REMARK    3  A    between atoms: C_8  and  C_9
REMARK                            x       y       z     vdW  Elec       q    Type
REMARK                         _______ _______ _______ _____ _____    ______ ____
ROOT
ATOM      1  C   UNL     1       5.042   4.662  18.174  0.00  0.00    +0.000 C 
ATOM      2  C   UNL     1       5.457   4.058  16.814  0.00  0.00    +0.000 C 
ATOM      3  C   UNL     1       6.808   4.579  16.272  0.00  0.00    +0.000 C 
ATOM      4  N   UNL     1       7.193   5.810  16.951  0.00  0.00    +0.000 N 
ATOM      5  N   UNL     1       7.800   6.886  16.440  0.00  0.00    +0.000 NA
ATOM      6  C   UNL     1       7.927   7.647  17.528  0.00  0.00    +0.000 A 
ATOM      7  N   UNL     1       8.386   8.905  17.586  0.00  0.00    +0.000 N 
ATOM      8  N   UNL     1       7.472   7.102  18.693  0.00  0.00    +0.000 NA
ATOM      9  C   UNL     1       6.987   5.955  18.308  0.00  0.00    +0.000 A 
ATOM     10  N   UNL     1       6.222   5.039  18.961  0.00  0.00    +0.000 N 
ATOM     11  H   UNL     1       9.047   8.996  18.348  0.00  0.00    +0.000 HD
ATOM     12  H   UNL     1       7.644   9.532  17.883  0.00  0.00    +0.000 HD
ATOM     13  H   UNL     1       6.725   4.230  19.310  0.00  0.00    +0.000 HD
ENDROOT
BRANCH   1  18
ATOM     14  C   UNL     1       1.173   2.317  21.811  0.00  0.00    +0.000 C 
ATOM     15  C   UNL     1       2.135   2.748  20.745  0.00  0.00    +0.000 A 
ATOM     16  C   UNL     1       3.440   2.247  20.689  0.00  0.00    +0.000 A 
ATOM     17  C   UNL     1       4.373   2.791  19.796  0.00  0.00    +0.000 A 
ATOM     18  C   UNL     1       4.017   3.841  18.937  0.00  0.00    +0.000 A 
ATOM     19  C   UNL     1       2.678   4.275  18.951  0.00  0.00    +0.000 A 
ATOM     20  C   UNL     1       1.750   3.737  19.840  0.00  0.00    +0.000 A 
ENDBRANCH   1  18
BRANCH   3  21
ATOM     21  C   UNL     1       6.777   4.572  14.752  0.00  0.00    +0.000 A 
ATOM     22  C   UNL     1       7.762   5.299  14.054  0.00  0.00    +0.000 A 
ATOM     23  C   UNL     1       7.883   5.205  12.665  0.00  0.00    +0.000 A 
ATOM     24  C   UNL     1       7.020   4.380  11.948  0.00  0.00    +0.000 A 
ATOM     25  C   UNL     1       6.040   3.657  12.624  0.00  0.00    +0.000 A 
ATOM     26 CL   UNL     1       4.999   2.611  11.738  0.00  0.00    +0.000 Cl
ATOM     27  C   UNL     1       5.916   3.746  14.013  0.00  0.00    +0.000 A 
ENDBRANCH   3  21
TORSDOF 2
ENDMDL
MODEL 5
REMARK VINA RESULT:      -8.2      2.259      6.570
REMARK  Name = 
REMARK  3 active torsions:
REMARK  status: ('A' for Active; 'I' for Inactive)
REMARK    1  A    between atoms: C_1  and  C_2
REMARK    2  A    between atoms: C_5  and  C_6
REMARK    3  A    between atoms: C_8  and  C_9
REMARK                            x       y       z     vdW  Elec       q    Type
REMARK                         _______ _______ _______ _____ _____    ______ ____
ROOT
ATOM      1  C   UNL     1       4.260   4.420  17.855  0.00  0.00    +0.000 C 
ATOM      2  C   UNL     1       3.859   5.863  18.232  0.00  0.00    +0.000 C 
ATOM      3  C   UNL     1       3.371   6.029  19.689  0.00  0.00    +0.000 C 
ATOM      4  N   UNL     1       3.012   4.737  20.260  0.00  0.00    +0.000 N 
ATOM      5  N   UNL     1       2.008   4.447  21.094  0.00  0.00    +0.000 NA
ATOM      6  C   UNL     1       2.214   3.144  21.296  0.00  0.00    +0.000 A 
ATOM      7  N   UNL     1       1.433   2.300  21.983  0.00  0.00    +0.000 N 
ATOM      8  N   UNL     1       3.303   2.609  20.672  0.00  0.00    +0.000 NA
ATOM      9  C   UNL     1       3.779   3.620  20.001  0.00  0.00    +0.000 A 
ATOM     10  N   UNL     1       4.734   3.684  19.034  0.00  0.00    +0.000 N 
ATOM     11  H   UNL     1       2.000   1.731  22.601  0.00  0.00    +0.000 HD
ATOM     12  H   UNL     1       1.044   1.599  21.359  0.00  0.00    +0.000 HD
ATOM     13  H   UNL     1       5.643   4.009  19.349  0.00  0.00    +0.000 HD
ENDROOT
BRANCH   1  18
ATOM     14  C   UNL     1       7.700   5.099  13.229  0.00  0.00    +0.000 C 
ATOM     15  C   UNL     1       6.847   4.708  14.399  0.00  0.00    +0.000 A 
ATOM     16  C   UNL     1       5.521   4.296  14.233  0.00  0.00    +0.000 A 
ATOM     17  C   UNL     1       4.690   4.106  15.346  0.00  0.00    +0.000 A 
ATOM     18  C   UNL     1       5.173   4.318  16.646  0.00  0.00    +0.000 A 
ATOM     19  C   UNL     1       6.532   4.652  16.795  0.00  0.00    +0.000 A 
ATOM     20  C   UNL     1       7.358   4.844  15.689  0.00  0.00    +0.000 A 
ENDBRANCH   1  18
BRANCH   3  21
ATOM     21  C   UNL     1       2.350   7.155  19.753  0.00  0.00    +0.000 A 
ATOM     22  C   UNL     1       1.636   7.351  20.952  0.00  0.00    +0.000 A 
ATOM     23  C   UNL     1       0.804   8.460  21.126  0.00  0.00    +0.000 A 
ATOM     24  C   UNL     1       0.673   9.395  20.103  0.00  0.00    +0.000 A 
ATOM     25  C   UNL     1       1.370   9.214  18.912  0.00  0.00    +0.000 A 
ATOM     26 CL   UNL     1       1.234  10.392  17.663  0.00  0.00    +0.000 Cl
ATOM     27  C   UNL     1       2.205   8.108  18.733  0.00  0.00    +0.000 A 
ENDBRANCH   3  21
TORSDOF 2
ENDMDL
MODEL 6
REMARK VINA RESULT:      -8.2      1.734      2.222
REMARK  Name = 
REMARK  3 active torsions:
REMARK  status: ('A' for Active; 'I' for Inactive)
REMARK    1  A    between atoms: C_1  and  C_2
REMARK    2  A    between atoms: C_5  and  C_6
REMARK    3  A    between atoms: C_8  and  C_9
REMARK                            x       y       z     vdW  Elec       q    Type
REMARK                         _______ _______ _______ _____ _____    ______ ____
ROOT
ATOM      1  C   UNL     1       1.961   7.149  20.323  0.00  0.00    +0.000 C 
ATOM      2  C   UNL     1       2.723   7.001  18.987  0.00  0.00    +0.000 C 
ATOM      3  C   UNL     1       2.925   5.539  18.528  0.00  0.00    +0.000 C 
ATOM      4  N   UNL     1       2.718   4.619  19.639  0.00  0.00    +0.000 N 
ATOM      5  N   UNL     1       3.378   3.490  19.917  0.00  0.00    +0.000 NA
ATOM      6  C   UNL     1       2.722   3.073  21.002  0.00  0.00    +0.000 A 
ATOM      7  N   UNL     1       3.025   2.022  21.776  0.00  0.00    +0.000 N 
ATOM      8  N   UNL     1       1.673   3.850  21.399  0.00  0.00    +0.000 NA
ATOM      9  C   UNL     1       1.701   4.835  20.547  0.00  0.00    +0.000 A 
ATOM     10  N   UNL     1       1.041   6.024  20.528  0.00  0.00    +0.000 N 
ATOM     11  H   UNL     1       2.190   1.484  21.970  0.00  0.00    +0.000 HD
ATOM     12  H   UNL     1       3.286   2.339  22.706  0.00  0.00    +0.000 HD
ATOM     13  H   UNL     1       0.243   6.062  19.902  0.00  0.00    +0.000 HD
ENDROOT
BRANCH   1  18
ATOM     14  C   UNL     1      -1.356  11.840  21.148  0.00  0.00    +0.000 C 
ATOM     15  C   UNL     1      -0.329  10.767  20.946  0.00  0.00    +0.000 A 
ATOM     16  C   UNL     1       0.228  10.513  19.689  0.00  0.00    +0.000 A 
ATOM     17  C   UNL     1       1.050   9.396  19.487  0.00  0.00    +0.000 A 
ATOM     18  C   UNL     1       1.336   8.516  20.541  0.00  0.00    +0.000 A 
ATOM     19  C   UNL     1       0.833   8.833  21.816  0.00  0.00    +0.000 A 
ATOM     20  C   UNL     1       0.013   9.943  22.018  0.00  0.00    +0.000 A 
ENDBRANCH   1  18
BRANCH   3  21
ATOM     21  C   UNL     1       4.220   5.435  17.736  0.00  0.00    +0.000 A 
ATOM     22  C   UNL     1       4.279   4.531  16.657  0.00  0.00    +0.000 A 
ATOM     23  C   UNL     1       5.380   4.502  15.797  0.00  0.00    +0.000 A 
ATOM     24  C   UNL     1       6.442   5.380  16.000  0.00  0.00    +0.000 A 
ATOM     25  C   UNL     1       6.398   6.278  17.064  0.00  0.00    +0.000 A 
ATOM     26 CL   UNL     1       7.696   7.386  17.290  0.00  0.00    +0.000 Cl
ATOM     27  C   UNL     1       5.299   6.312  17.926  0.00  0.00    +0.000 A 
ENDBRANCH   3  21
TORSDOF 2
ENDMDL
MODEL 7
REMARK VINA RESULT:      -8.2      1.024      1.043
REMARK  Name = 
REMARK  3 active torsions:
REMARK  status: ('A' for Active; 'I' for Inactive)
REMARK    1  A    between atoms: C_1  and  C_2
REMARK    2  A    between atoms: C_5  and  C_6
REMARK    3  A    between atoms: C_8  and  C_9
REMARK                            x       y       z     vdW  Elec       q    Type
REMARK                         _______ _______ _______ _____ _____    ______ ____
ROOT
ATOM      1  C   UNL     1       2.858   5.941  18.909  0.00  0.00    +0.000 C 
ATOM      2  C   UNL     1       3.589   6.134  17.562  0.00  0.00    +0.000 C 
ATOM      3  C   UNL     1       3.751   4.839  16.734  0.00  0.00    +0.000 C 
ATOM      4  N   UNL     1       3.547   3.665  17.573  0.00  0.00    +0.000 N 
ATOM      5  N   UNL     1       4.189   2.492  17.532  0.00  0.00    +0.000 NA
ATOM      6  C   UNL     1       3.547   1.818  18.488  0.00  0.00    +0.000 A 
ATOM      7  N   UNL     1       3.843   0.597  18.955  0.00  0.00    +0.000 N 
ATOM      8  N   UNL     1       2.522   2.480  19.099  0.00  0.00    +0.000 NA
ATOM      9  C   UNL     1       2.553   3.652  18.531  0.00  0.00    +0.000 A 
ATOM     10  N   UNL     1       1.918   4.816  18.838  0.00  0.00    +0.000 N 
ATOM     11  H   UNL     1       3.000   0.040  19.023  0.00  0.00    +0.000 HD
ATOM     12  H   UNL     1       4.129   0.657  19.928  0.00  0.00    +0.000 HD
ATOM     13  H   UNL     1       1.109   5.027  18.263  0.00  0.00    +0.000 HD
ENDROOT
BRANCH   1  18
ATOM     14  C   UNL     1      -0.346  10.329  20.952  0.00  0.00    +0.000 C 
ATOM     15  C   UNL     1       0.655   9.319  20.478  0.00  0.00    +0.000 A 
ATOM     16  C   UNL     1       1.242   9.408  19.211  0.00  0.00    +0.000 A 
ATOM     17  C   UNL     1       2.037   8.364  18.720  0.00  0.00    +0.000 A 
ATOM     18  C   UNL     1       2.266   7.214  19.490  0.00  0.00    +0.000 A 
ATOM     19  C   UNL     1       1.735   7.179  20.793  0.00  0.00    +0.000 A 
ATOM     20  C   UNL     1       0.941   8.216  21.281  0.00  0.00    +0.000 A 
ENDBRANCH   1  18
BRANCH   3  21
ATOM     21  C   UNL     1       5.027   4.924  15.910  0.00  0.00    +0.000 A 
ATOM     22  C   UNL     1       6.189   5.440  16.518  0.00  0.00    +0.000 A 
ATOM     23  C   UNL     1       7.425   5.398  15.868  0.00  0.00    +0.000 A 
ATOM     24  C   UNL     1       7.522   4.837  14.597  0.00  0.00    +0.000 A 
ATOM     25  C   UNL     1       6.381   4.325  13.983  0.00  0.00    +0.000 A 
ATOM     26 CL   UNL     1       6.511   3.600  12.427  0.00  0.00    +0.000 Cl
ATOM     27  C   UNL     1       5.143   4.363  14.629  0.00  0.00    +0.000 A 
ENDBRANCH   3  21
TORSDOF 2
ENDMDL
MODEL 8
REMARK VINA RESULT:      -8.1      1.204      1.359
REMARK  Name = 
REMARK  3 active torsions:
REMARK  status: ('A' for Active; 'I' for Inactive)
REMARK    1  A    between atoms: C_1  and  C_2
REMARK    2  A    between atoms: C_5  and  C_6
REMARK    3  A    between atoms: C_8  and  C_9
REMARK                            x       y       z     vdW  Elec       q    Type
REMARK                         _______ _______ _______ _____ _____    ______ ____
ROOT
ATOM      1  C   UNL     1       2.200   7.102  19.801  0.00  0.00    +0.000 C 
ATOM      2  C   UNL     1       3.093   6.822  18.572  0.00  0.00    +0.000 C 
ATOM      3  C   UNL     1       3.312   5.322  18.271  0.00  0.00    +0.000 C 
ATOM      4  N   UNL     1       2.971   4.511  19.433  0.00  0.00    +0.000 N 
ATOM      5  N   UNL     1       3.575   3.405  19.881  0.00  0.00    +0.000 NA
ATOM      6  C   UNL     1       2.802   3.098  20.924  0.00  0.00    +0.000 A 
ATOM      7  N   UNL     1       3.001   2.120  21.817  0.00  0.00    +0.000 N 
ATOM      8  N   UNL     1       1.733   3.919  21.135  0.00  0.00    +0.000 NA
ATOM      9  C   UNL     1       1.870   4.821  20.205  0.00  0.00    +0.000 A 
ATOM     10  N   UNL     1       1.240   6.011  20.008  0.00  0.00    +0.000 N 
ATOM     11  H   UNL     1       2.138   1.611  21.970  0.00  0.00    +0.000 HD
ATOM     12  H   UNL     1       3.170   2.518  22.737  0.00  0.00    +0.000 HD
ATOM     13  H   UNL     1       0.513   6.000  19.301  0.00  0.00    +0.000 HD
ENDROOT
BRANCH   1  18
ATOM     14  C   UNL     1      -1.085  11.887  19.812  0.00  0.00    +0.000 C 
ATOM     15  C   UNL     1      -0.066  10.788  19.831  0.00  0.00    +0.000 A 
ATOM     16  C   UNL     1       0.644  10.426  18.682  0.00  0.00    +0.000 A 
ATOM     17  C   UNL     1       1.458   9.285  18.677  0.00  0.00    +0.000 A 
ATOM     18  C   UNL     1       1.584   8.490  19.826  0.00  0.00    +0.000 A 
ATOM     19  C   UNL     1       0.928   8.916  20.996  0.00  0.00    +0.000 A 
ATOM     20  C   UNL     1       0.115  10.049  21.000  0.00  0.00    +0.000 A 
ENDBRANCH   1  18
BRANCH   3  21
ATOM     21  C   UNL     1       4.679   5.130  17.633  0.00  0.00    +0.000 A 
ATOM     22  C   UNL     1       5.826   5.273  18.439  0.00  0.00    +0.000 A 
ATOM     23  C   UNL     1       7.097   4.956  17.952  0.00  0.00    +0.000 A 
ATOM     24  C   UNL     1       7.244   4.488  16.649  0.00  0.00    +0.000 A 
ATOM     25  C   UNL     1       6.120   4.344  15.840  0.00  0.00    +0.000 A 
ATOM     26 CL   UNL     1       6.301   3.731  14.241  0.00  0.00    +0.000 Cl
ATOM     27  C   UNL     1       4.846   4.658  16.321  0.00  0.00    +0.000 A 
ENDBRANCH   3  21
TORSDOF 2
ENDMDL
MODEL 9
REMARK VINA RESULT:      -8.0      3.284      7.226
REMARK  Name = 
REMARK  3 active torsions:
REMARK  status: ('A' for Active; 'I' for Inactive)
REMARK    1  A    between atoms: C_1  and  C_2
REMARK    2  A    between atoms: C_5  and  C_6
REMARK    3  A    between atoms: C_8  and  C_9
REMARK                            x       y       z     vdW  Elec       q    Type
REMARK                         _______ _______ _______ _____ _____    ______ ____
ROOT
ATOM      1  C   UNL     1       6.204   4.618  16.047  0.00  0.00    +0.000 C 
ATOM      2  C   UNL     1       4.783   4.828  16.613  0.00  0.00    +0.000 C 
ATOM      3  C   UNL     1       4.743   5.537  17.987  0.00  0.00    +0.000 C 
ATOM      4  N   UNL     1       6.050   5.485  18.629  0.00  0.00    +0.000 N 
ATOM      5  N   UNL     1       6.334   5.325  19.926  0.00  0.00    +0.000 NA
ATOM      6  C   UNL     1       7.666   5.407  19.906  0.00  0.00    +0.000 A 
ATOM      7  N   UNL     1       8.503   5.214  20.934  0.00  0.00    +0.000 N 
ATOM      8  N   UNL     1       8.231   5.643  18.687  0.00  0.00    +0.000 NA
ATOM      9  C   UNL     1       7.202   5.662  17.888  0.00  0.00    +0.000 A 
ATOM     10  N   UNL     1       7.119   5.658  16.530  0.00  0.00    +0.000 N 
ATOM     11  H   UNL     1       9.196   5.952  20.959  0.00  0.00    +0.000 HD
ATOM     12  H   UNL     1       9.081   4.395  20.764  0.00  0.00    +0.000 HD
ATOM     13  H   UNL     1       6.929   6.562  16.109  0.00  0.00    +0.000 HD
ENDROOT
BRANCH   1  18
ATOM     14  C   UNL     1       6.778   2.778  10.571  0.00  0.00    +0.000 C 
ATOM     15  C   UNL     1       6.550   3.438  11.898  0.00  0.00    +0.000 A 
ATOM     16  C   UNL     1       7.475   4.338  12.437  0.00  0.00    +0.000 A 
ATOM     17  C   UNL     1       7.331   4.806  13.750  0.00  0.00    +0.000 A 
ATOM     18  C   UNL     1       6.254   4.389  14.546  0.00  0.00    +0.000 A 
ATOM     19  C   UNL     1       5.290   3.548  13.959  0.00  0.00    +0.000 A 
ATOM     20  C   UNL     1       5.434   3.079  12.654  0.00  0.00    +0.000 A 
ENDBRANCH   1  18
BRANCH   3  21
ATOM     21  C   UNL     1       3.535   5.048  18.771  0.00  0.00    +0.000 A 
ATOM     22  C   UNL     1       3.011   5.872  19.786  0.00  0.00    +0.000 A 
ATOM     23  C   UNL     1       1.814   5.553  20.432  0.00  0.00    +0.000 A 
ATOM     24  C   UNL     1       1.117   4.403  20.072  0.00  0.00    +0.000 A 
ATOM     25  C   UNL     1       1.623   3.577  19.071  0.00  0.00    +0.000 A 
ATOM     26 CL   UNL     1       0.740   2.175  18.604  0.00  0.00    +0.000 Cl
ATOM     27  C   UNL     1       2.819   3.892  18.421  0.00  0.00    +0.000 A 
ENDBRANCH   3  21
TORSDOF 2
ENDMDL
