MODEL 1
REMARK VINA RESULT:      -5.7      0.000      0.000
REMARK  Name = 
REMARK  5 active torsions:
REMARK  status: ('A' for Active; 'I' for Inactive)
REMARK    1  A    between atoms: N_1  and  C_2
REMARK    2  A    between atoms: C_2  and  C_3
REMARK    3  A    between atoms: C_3  and  N_4
REMARK    4  A    between atoms: N_4  and  C_5
REMARK    5  A    between atoms: C_8  and  N_9
REMARK                            x       y       z     vdW  Elec       q    Type
REMARK                         _______ _______ _______ _____ _____    ______ ____
ROOT
ATOM      1  C   UNL     1       3.363   4.206  18.487  0.00  0.00    +0.000 A 
ATOM      2  C   UNL     1       4.399   4.695  19.293  0.00  0.00    +0.000 A 
ATOM      3  C   UNL     1       5.675   4.934  18.775  0.00  0.00    +0.000 A 
ATOM      4  C   UNL     1       5.933   4.663  17.431  0.00  0.00    +0.000 A 
ATOM      5  C   UNL     1       4.927   4.141  16.610  0.00  0.00    +0.000 A 
ATOM      6  C   UNL     1       3.655   3.897  17.150  0.00  0.00    +0.000 A 
ENDROOT
BRANCH   4   7
ATOM      7  N   UNL     1       7.272   4.920  16.891  0.00  0.00    +0.000 N 
ATOM      8  O   UNL     1       7.402   5.856  16.089  0.00  0.00    +0.000 OA
ATOM      9  O   UNL     1       8.199   4.188  17.271  0.00  0.00    +0.000 OA
ENDBRANCH   4   7
BRANCH   1  10
ATOM     10  N   UNL     1       2.078   3.924  18.972  0.00  0.00    +0.000 N 
ATOM     11  H   UNL     1       1.841   2.938  18.839  0.00  0.00    +0.000 HD
BRANCH  10  12
ATOM     12  C   UNL     1       1.769   4.326  20.349  0.00  0.00    +0.000 C 
BRANCH  12  13
ATOM     13  C   UNL     1       1.386   3.103  21.200  0.00  0.00    +0.000 C 
BRANCH  13  14
ATOM     14  N   UNL     1       2.508   2.630  22.024  0.00  0.00    +0.000 NA
ATOM     15  H   UNL     1       2.304   2.834  23.002  0.00  0.00    +0.000 HD
ATOM     16  H   UNL     1       3.346   3.164  21.795  0.00  0.00    +0.000 HD
ENDBRANCH  13  14
ENDBRANCH  12  13
ENDBRANCH  10  12
ENDBRANCH   1  10
TORSDOF 5
ENDMDL
MODEL 2
REMARK VINA RESULT:      -5.6      0.239      1.597
REMARK  Name = 
REMARK  5 active torsions:
REMARK  status: ('A' for Active; 'I' for Inactive)
REMARK    1  A    between atoms: N_1  and  C_2
REMARK    2  A    between atoms: C_2  and  C_3
REMARK    3  A    between atoms: C_3  and  N_4
REMARK    4  A    between atoms: N_4  and  C_5
REMARK    5  A    between atoms: C_8  and  N_9
REMARK                            x       y       z     vdW  Elec       q    Type
REMARK                         _______ _______ _______ _____ _____    ______ ____
ROOT
ATOM      1  C   UNL     1       3.344   4.331  18.539  0.00  0.00    +0.000 A 
ATOM      2  C   UNL     1       3.711   3.918  17.252  0.00  0.00    +0.000 A 
ATOM      3  C   UNL     1       4.991   4.160  16.747  0.00  0.00    +0.000 A 
ATOM      4  C   UNL     1       5.922   4.843  17.530  0.00  0.00    +0.000 A 
ATOM      5  C   UNL     1       5.573   5.298  18.806  0.00  0.00    +0.000 A 
ATOM      6  C   UNL     1       4.279   5.057  19.293  0.00  0.00    +0.000 A 
ENDROOT
BRANCH   4   7
ATOM      7  N   UNL     1       7.266   5.089  16.996  0.00  0.00    +0.000 N 
ATOM      8  O   UNL     1       8.129   4.218  17.180  0.00  0.00    +0.000 OA
ATOM      9  O   UNL     1       7.461   6.154  16.389  0.00  0.00    +0.000 OA
ENDBRANCH   4   7
BRANCH   1  10
ATOM     10  N   UNL     1       2.063   4.136  19.074  0.00  0.00    +0.000 N 
ATOM     11  H   UNL     1       1.720   3.192  18.878  0.00  0.00    +0.000 HD
BRANCH  10  12
ATOM     12  C   UNL     1       1.863   4.450  20.492  0.00  0.00    +0.000 C 
BRANCH  12  13
ATOM     13  C   UNL     1       1.416   3.200  21.270  0.00  0.00    +0.000 C 
BRANCH  13  14
ATOM     14  N   UNL     1       2.521   2.599  22.030  0.00  0.00    +0.000 NA
ATOM     15  H   UNL     1       2.136   2.121  22.845  0.00  0.00    +0.000 HD
ATOM     16  H   UNL     1       3.123   3.336  22.397  0.00  0.00    +0.000 HD
ENDBRANCH  13  14
ENDBRANCH  12  13
ENDBRANCH  10  12
ENDBRANCH   1  10
TORSDOF 5
ENDMDL
MODEL 3
REMARK VINA RESULT:      -5.6      1.205      1.506
REMARK  Name = 
REMARK  5 active torsions:
REMARK  status: ('A' for Active; 'I' for Inactive)
REMARK    1  A    between atoms: N_1  and  C_2
REMARK    2  A    between atoms: C_2  and  C_3
REMARK    3  A    between atoms: C_3  and  N_4
REMARK    4  A    between atoms: N_4  and  C_5
REMARK    5  A    between atoms: C_8  and  N_9
REMARK                            x       y       z     vdW  Elec       q    Type
REMARK                         _______ _______ _______ _____ _____    ______ ____
ROOT
ATOM      1  C   UNL     1       3.012   4.793  17.599  0.00  0.00    +0.000 A 
ATOM      2  C   UNL     1       3.642   6.009  17.892  0.00  0.00    +0.000 A 
ATOM      3  C   UNL     1       4.998   6.210  17.623  0.00  0.00    +0.000 A 
ATOM      4  C   UNL     1       5.751   5.173  17.070  0.00  0.00    +0.000 A 
ATOM      5  C   UNL     1       5.157   3.936  16.800  0.00  0.00    +0.000 A 
ATOM      6  C   UNL     1       3.797   3.748  17.086  0.00  0.00    +0.000 A 
ENDROOT
BRANCH   4   7
ATOM      7  N   UNL     1       7.173   5.392  16.786  0.00  0.00    +0.000 N 
ATOM      8  O   UNL     1       7.940   4.424  16.895  0.00  0.00    +0.000 OA
ATOM      9  O   UNL     1       7.527   6.533  16.450  0.00  0.00    +0.000 OA
ENDBRANCH   4   7
BRANCH   1  10
ATOM     10  N   UNL     1       1.662   4.539  17.879  0.00  0.00    +0.000 N 
ATOM     11  H   UNL     1       1.118   4.436  17.018  0.00  0.00    +0.000 HD
BRANCH  10  12
ATOM     12  C   UNL     1       1.354   3.434  18.793  0.00  0.00    +0.000 C 
BRANCH  12  13
ATOM     13  C   UNL     1       1.030   3.964  20.201  0.00  0.00    +0.000 C 
BRANCH  13  14
ATOM     14  N   UNL     1       0.981   2.887  21.199  0.00  0.00    +0.000 NA
ATOM     15  H   UNL     1       1.196   2.003  20.738  0.00  0.00    +0.000 HD
ATOM     16  H   UNL     1       0.028   2.794  21.552  0.00  0.00    +0.000 HD
ENDBRANCH  13  14
ENDBRANCH  12  13
ENDBRANCH  10  12
ENDBRANCH   1  10
TORSDOF 5
ENDMDL
MODEL 4
REMARK VINA RESULT:      -5.5      1.479      1.883
REMARK  Name = 
REMARK  5 active torsions:
REMARK  status: ('A' for Active; 'I' for Inactive)
REMARK    1  A    between atoms: N_1  and  C_2
REMARK    2  A    between atoms: C_2  and  C_3
REMARK    3  A    between atoms: C_3  and  N_4
REMARK    4  A    between atoms: N_4  and  C_5
REMARK    5  A    between atoms: C_8  and  N_9
REMARK                            x       y       z     vdW  Elec       q    Type
REMARK                         _______ _______ _______ _____ _____    ______ ____
ROOT
ATOM      1  C   UNL     1       3.106   4.777  17.669  0.00  0.00    +0.000 A 
ATOM      2  C   UNL     1       3.732   3.747  16.954  0.00  0.00    +0.000 A 
ATOM      3  C   UNL     1       5.071   3.839  16.568  0.00  0.00    +0.000 A 
ATOM      4  C   UNL     1       5.801   4.987  16.880  0.00  0.00    +0.000 A 
ATOM      5  C   UNL     1       5.192   6.046  17.563  0.00  0.00    +0.000 A 
ATOM      6  C   UNL     1       3.843   5.941  17.933  0.00  0.00    +0.000 A 
ENDROOT
BRANCH   4   7
ATOM      7  N   UNL     1       7.208   5.076  16.476  0.00  0.00    +0.000 N 
ATOM      8  O   UNL     1       7.495   5.840  15.544  0.00  0.00    +0.000 OA
ATOM      9  O   UNL     1       8.031   4.381  17.093  0.00  0.00    +0.000 OA
ENDBRANCH   4   7
BRANCH   1  10
ATOM     10  N   UNL     1       1.757   4.738  18.050  0.00  0.00    +0.000 N 
ATOM     11  H   UNL     1       1.157   4.482  17.261  0.00  0.00    +0.000 HD
BRANCH  10  12
ATOM     12  C   UNL     1       1.405   3.931  19.223  0.00  0.00    +0.000 C 
BRANCH  12  13
ATOM     13  C   UNL     1       0.792   2.586  18.795  0.00  0.00    +0.000 C 
BRANCH  13  14
ATOM     14  N   UNL     1       1.762   1.485  18.879  0.00  0.00    +0.000 NA
ATOM     15  H   UNL     1       2.131   1.302  17.946  0.00  0.00    +0.000 HD
ATOM     16  H   UNL     1       1.283   0.631  19.164  0.00  0.00    +0.000 HD
ENDBRANCH  13  14
ENDBRANCH  12  13
ENDBRANCH  10  12
ENDBRANCH   1  10
TORSDOF 5
ENDMDL
MODEL 5
REMARK VINA RESULT:      -5.4      1.695      1.732
REMARK  Name = 
REMARK  5 active torsions:
REMARK  status: ('A' for Active; 'I' for Inactive)
REMARK    1  A    between atoms: N_1  and  C_2
REMARK    2  A    between atoms: C_2  and  C_3
REMARK    3  A    between atoms: C_3  and  N_4
REMARK    4  A    between atoms: N_4  and  C_5
REMARK    5  A    between atoms: C_8  and  N_9
REMARK                            x       y       z     vdW  Elec       q    Type
REMARK                         _______ _______ _______ _____ _____    ______ ____
ROOT
ATOM      1  C   UNL     1       2.362   4.409  18.225  0.00  0.00    +0.000 A 
ATOM      2  C   UNL     1       2.654   5.766  18.411  0.00  0.00    +0.000 A 
ATOM      3  C   UNL     1       3.725   6.378  17.755  0.00  0.00    +0.000 A 
ATOM      4  C   UNL     1       4.537   5.620  16.909  0.00  0.00    +0.000 A 
ATOM      5  C   UNL     1       4.290   4.254  16.731  0.00  0.00    +0.000 A 
ATOM      6  C   UNL     1       3.217   3.655  17.407  0.00  0.00    +0.000 A 
ENDROOT
BRANCH   4   7
ATOM      7  N   UNL     1       5.656   6.268  16.218  0.00  0.00    +0.000 N 
ATOM      8  O   UNL     1       5.900   5.915  15.055  0.00  0.00    +0.000 OA
ATOM      9  O   UNL     1       6.293   7.135  16.837  0.00  0.00    +0.000 OA
ENDBRANCH   4   7
BRANCH   1  10
ATOM     10  N   UNL     1       1.317   3.750  18.887  0.00  0.00    +0.000 N 
ATOM     11  H   UNL     1       1.387   2.735  18.771  0.00  0.00    +0.000 HD
BRANCH  10  12
ATOM     12  C   UNL     1       1.098   4.071  20.301  0.00  0.00    +0.000 C 
BRANCH  12  13
ATOM     13  C   UNL     1       1.286   2.822  21.180  0.00  0.00    +0.000 C 
BRANCH  13  14
ATOM     14  N   UNL     1       2.352   3.004  22.176  0.00  0.00    +0.000 NA
ATOM     15  H   UNL     1       3.110   3.537  21.750  0.00  0.00    +0.000 HD
ATOM     16  H   UNL     1       2.749   2.096  22.417  0.00  0.00    +0.000 HD
ENDBRANCH  13  14
ENDBRANCH  12  13
ENDBRANCH  10  12
ENDBRANCH   1  10
TORSDOF 5
ENDMDL
MODEL 6
REMARK VINA RESULT:      -5.4      1.475      1.980
REMARK  Name = 
REMARK  5 active torsions:
REMARK  status: ('A' for Active; 'I' for Inactive)
REMARK    1  A    between atoms: N_1  and  C_2
REMARK    2  A    between atoms: C_2  and  C_3
REMARK    3  A    between atoms: C_3  and  N_4
REMARK    4  A    between atoms: N_4  and  C_5
REMARK    5  A    between atoms: C_8  and  N_9
REMARK                            x       y       z     vdW  Elec       q    Type
REMARK                         _______ _______ _______ _____ _____    ______ ____
ROOT
ATOM      1  C   UNL     1       3.495   5.424  19.570  0.00  0.00    +0.000 A 
ATOM      2  C   UNL     1       3.239   6.433  18.633  0.00  0.00    +0.000 A 
ATOM      3  C   UNL     1       4.104   6.669  17.561  0.00  0.00    +0.000 A 
ATOM      4  C   UNL     1       5.260   5.898  17.428  0.00  0.00    +0.000 A 
ATOM      5  C   UNL     1       5.560   4.907  18.369  0.00  0.00    +0.000 A 
ATOM      6  C   UNL     1       4.686   4.692  19.445  0.00  0.00    +0.000 A 
ENDROOT
BRANCH   4   7
ATOM      7  N   UNL     1       6.162   6.147  16.298  0.00  0.00    +0.000 N 
ATOM      8  O   UNL     1       7.369   6.289  16.542  0.00  0.00    +0.000 OA
ATOM      9  O   UNL     1       5.664   6.198  15.163  0.00  0.00    +0.000 OA
ENDBRANCH   4   7
BRANCH   1  10
ATOM     10  N   UNL     1       2.671   5.174  20.676  0.00  0.00    +0.000 N 
ATOM     11  H   UNL     1       2.510   6.028  21.218  0.00  0.00    +0.000 HD
BRANCH  10  12
ATOM     12  C   UNL     1       1.393   4.496  20.431  0.00  0.00    +0.000 C 
BRANCH  12  13
ATOM     13  C   UNL     1       1.390   3.094  21.064  0.00  0.00    +0.000 C 
BRANCH  13  14
ATOM     14  N   UNL     1       2.434   2.948  22.088  0.00  0.00    +0.000 NA
ATOM     15  H   UNL     1       2.004   3.037  23.009  0.00  0.00    +0.000 HD
ATOM     16  H   UNL     1       3.095   3.721  22.012  0.00  0.00    +0.000 HD
ENDBRANCH  13  14
ENDBRANCH  12  13
ENDBRANCH  10  12
ENDBRANCH   1  10
TORSDOF 5
ENDMDL
MODEL 7
REMARK VINA RESULT:      -5.3      1.700      2.096
REMARK  Name = 
REMARK  5 active torsions:
REMARK  status: ('A' for Active; 'I' for Inactive)
REMARK    1  A    between atoms: N_1  and  C_2
REMARK    2  A    between atoms: C_2  and  C_3
REMARK    3  A    between atoms: C_3  and  N_4
REMARK    4  A    between atoms: N_4  and  C_5
REMARK    5  A    between atoms: C_8  and  N_9
REMARK                            x       y       z     vdW  Elec       q    Type
REMARK                         _______ _______ _______ _____ _____    ______ ____
ROOT
ATOM      1  C   UNL     1       5.095   4.270  18.385  0.00  0.00    +0.000 A 
ATOM      2  C   UNL     1       6.439   4.655  18.283  0.00  0.00    +0.000 A 
ATOM      3  C   UNL     1       7.057   4.818  17.041  0.00  0.00    +0.000 A 
ATOM      4  C   UNL     1       6.332   4.573  15.874  0.00  0.00    +0.000 A 
ATOM      5  C   UNL     1       4.999   4.154  15.946  0.00  0.00    +0.000 A 
ATOM      6  C   UNL     1       4.397   3.985  17.202  0.00  0.00    +0.000 A 
ENDROOT
BRANCH   4   7
ATOM      7  N   UNL     1       6.985   4.751  14.573  0.00  0.00    +0.000 N 
ATOM      8  O   UNL     1       6.560   4.087  13.617  0.00  0.00    +0.000 OA
ATOM      9  O   UNL     1       7.925   5.559  14.504  0.00  0.00    +0.000 OA
ENDBRANCH   4   7
BRANCH   1  10
ATOM     10  N   UNL     1       4.445   4.066  19.610  0.00  0.00    +0.000 N 
ATOM     11  H   UNL     1       3.705   4.758  19.755  0.00  0.00    +0.000 HD
BRANCH  10  12
ATOM     12  C   UNL     1       3.927   2.722  19.889  0.00  0.00    +0.000 C 
BRANCH  12  13
ATOM     13  C   UNL     1       2.519   2.798  20.506  0.00  0.00    +0.000 C 
BRANCH  13  14
ATOM     14  N   UNL     1       2.553   2.705  21.972  0.00  0.00    +0.000 NA
ATOM     15  H   UNL     1       2.702   1.731  22.235  0.00  0.00    +0.000 HD
ATOM     16  H   UNL     1       1.641   2.961  22.350  0.00  0.00    +0.000 HD
ENDBRANCH  13  14
ENDBRANCH  12  13
ENDBRANCH  10  12
ENDBRANCH   1  10
TORSDOF 5
ENDMDL
MODEL 8
REMARK VINA RESULT:      -5.3      1.129      2.014
REMARK  Name = 
REMARK  5 active torsions:
REMARK  status: ('A' for Active; 'I' for Inactive)
REMARK    1  A    between atoms: N_1  and  C_2
REMARK    2  A    between atoms: C_2  and  C_3
REMARK    3  A    between atoms: C_3  and  N_4
REMARK    4  A    between atoms: N_4  and  C_5
REMARK    5  A    between atoms: C_8  and  N_9
REMARK                            x       y       z     vdW  Elec       q    Type
REMARK                         _______ _______ _______ _____ _____    ______ ____
ROOT
ATOM      1  C   UNL     1       3.369   4.757  18.612  0.00  0.00    +0.000 A 
ATOM      2  C   UNL     1       3.606   4.463  17.263  0.00  0.00    +0.000 A 
ATOM      3  C   UNL     1       4.887   4.549  16.712  0.00  0.00    +0.000 A 
ATOM      4  C   UNL     1       5.954   4.956  17.514  0.00  0.00    +0.000 A 
ATOM      5  C   UNL     1       5.742   5.290  18.856  0.00  0.00    +0.000 A 
ATOM      6  C   UNL     1       4.447   5.208  19.389  0.00  0.00    +0.000 A 
ENDROOT
BRANCH   4   7
ATOM      7  N   UNL     1       7.298   5.040  16.932  0.00  0.00    +0.000 N 
ATOM      8  O   UNL     1       8.145   4.219  17.314  0.00  0.00    +0.000 OA
ATOM      9  O   UNL     1       7.509   5.926  16.089  0.00  0.00    +0.000 OA
ENDBRANCH   4   7
BRANCH   1  10
ATOM     10  N   UNL     1       2.096   4.712  19.197  0.00  0.00    +0.000 N 
ATOM     11  H   UNL     1       1.361   4.708  18.484  0.00  0.00    +0.000 HD
BRANCH  10  12
ATOM     12  C   UNL     1       1.837   3.656  20.181  0.00  0.00    +0.000 C 
BRANCH  12  13
ATOM     13  C   UNL     1       2.269   2.284  19.635  0.00  0.00    +0.000 C 
BRANCH  13  14
ATOM     14  N   UNL     1       1.288   1.733  18.689  0.00  0.00    +0.000 NA
ATOM     15  H   UNL     1       0.426   1.526  19.194  0.00  0.00    +0.000 HD
ATOM     16  H   UNL     1       1.625   0.839  18.332  0.00  0.00    +0.000 HD
ENDBRANCH  13  14
ENDBRANCH  12  13
ENDBRANCH  10  12
ENDBRANCH   1  10
TORSDOF 5
ENDMDL
MODEL 9
REMARK VINA RESULT:      -5.3      1.212      1.886
REMARK  Name = 
REMARK  5 active torsions:
REMARK  status: ('A' for Active; 'I' for Inactive)
REMARK    1  A    between atoms: N_1  and  C_2
REMARK    2  A    between atoms: C_2  and  C_3
REMARK    3  A    between atoms: C_3  and  N_4
REMARK    4  A    between atoms: N_4  and  C_5
REMARK    5  A    between atoms: C_8  and  N_9
REMARK                            x       y       z     vdW  Elec       q    Type
REMARK                         _______ _______ _______ _____ _____    ______ ____
ROOT
ATOM      1  C   UNL     1       4.027   3.741  18.450  0.00  0.00    +0.000 A 
ATOM      2  C   UNL     1       4.121   3.732  17.052  0.00  0.00    +0.000 A 
ATOM      3  C   UNL     1       5.113   4.455  16.384  0.00  0.00    +0.000 A 
ATOM      4  C   UNL     1       6.019   5.221  17.120  0.00  0.00    +0.000 A 
ATOM      5  C   UNL     1       5.927   5.276  18.515  0.00  0.00    +0.000 A 
ATOM      6  C   UNL     1       4.918   4.552  19.168  0.00  0.00    +0.000 A 
ENDROOT
BRANCH   4   7
ATOM      7  N   UNL     1       7.061   5.973  16.413  0.00  0.00    +0.000 N 
ATOM      8  O   UNL     1       7.411   7.063  16.891  0.00  0.00    +0.000 OA
ATOM      9  O   UNL     1       7.534   5.475  15.380  0.00  0.00    +0.000 OA
ENDBRANCH   4   7
BRANCH   1  10
ATOM     10  N   UNL     1       3.030   3.054  19.158  0.00  0.00    +0.000 N 
ATOM     11  H   UNL     1       2.720   2.223  18.647  0.00  0.00    +0.000 HD
BRANCH  10  12
ATOM     12  C   UNL     1       3.309   2.702  20.554  0.00  0.00    +0.000 C 
BRANCH  12  13
ATOM     13  C   UNL     1       2.196   3.223  21.480  0.00  0.00    +0.000 C 
BRANCH  13  14
ATOM     14  N   UNL     1       0.862   3.063  20.884  0.00  0.00    +0.000 NA
ATOM     15  H   UNL     1       0.173   3.487  21.506  0.00  0.00    +0.000 HD
ATOM     16  H   UNL     1       0.626   2.071  20.841  0.00  0.00    +0.000 HD
ENDBRANCH  13  14
ENDBRANCH  12  13
ENDBRANCH  10  12
ENDBRANCH   1  10
TORSDOF 5
ENDMDL
