MODEL 1
REMARK VINA RESULT:      -8.9      0.000      0.000
REMARK  Name = 
REMARK  7 active torsions:
REMARK  status: ('A' for Active; 'I' for Inactive)
REMARK    1  A    between atoms: C_1  and  C_2
REMARK    2  A    between atoms: C_5  and  C_6
REMARK    3  A    between atoms: C_6  and  N_7
REMARK    4  A    between atoms: C_8  and  C_10
REMARK    5  A    between atoms: C_10  and  C_11
REMARK    6  A    between atoms: N_15  and  C_16
REMARK    7  A    between atoms: C_18  and  S_19
REMARK                            x       y       z     vdW  Elec       q    Type
REMARK                         _______ _______ _______ _____ _____    ______ ____
ROOT
ATOM      1  C   UNL     1       2.344   5.393  19.045  0.00  0.00    +0.000 A 
ATOM      2  C   UNL     1       1.483   4.317  19.105  0.00  0.00    +0.000 A 
ATOM      3  S   UNL     1       2.022   3.079  18.039  0.00  0.00    +0.000 S 
ATOM      4  C   UNL     1       3.350   4.069  17.556  0.00  0.00    +0.000 A 
ATOM      5  N   UNL     1       4.200   3.674  16.584  0.00  0.00    +0.000 N 
ATOM      6  N   UNL     1       3.396   5.224  18.173  0.00  0.00    +0.000 NA
ATOM      7  H   UNL     1       4.171   2.713  16.280  0.00  0.00    +0.000 HD
ENDROOT
BRANCH   5   8
ATOM      8  C   UNL     1       5.384   4.368  16.249  0.00  0.00    +0.000 A 
ATOM      9  N   UNL     1       5.965   5.148  17.182  0.00  0.00    +0.000 NA
ATOM     10  C   UNL     1       7.023   5.873  16.824  0.00  0.00    +0.000 A 
ATOM     11  N   UNL     1       7.581   5.875  15.612  0.00  0.00    +0.000 NA
ATOM     12  C   UNL     1       7.019   5.092  14.690  0.00  0.00    +0.000 A 
ATOM     13  C   UNL     1       7.578   5.075  13.421  0.00  0.00    +0.000 A 
ATOM     14  C   UNL     1       7.055   4.284  12.395  0.00  0.00    +0.000 A 
ATOM     15  C   UNL     1       5.933   3.502  12.630  0.00  0.00    +0.000 A 
ATOM     16  C   UNL     1       5.345   3.512  13.891  0.00  0.00    +0.000 A 
ATOM     17  C   UNL     1       5.891   4.295  14.941  0.00  0.00    +0.000 A 
BRANCH  10  18
ATOM     18  S   UNL     1       7.726   6.911  18.069  0.00  0.00    +0.000 S 
ATOM     19  H   UNL     1       8.213   5.879  18.767  0.00  0.00    +0.000 HD
ENDBRANCH  10  18
ENDBRANCH   5   8
BRANCH   1  20
ATOM     20  C   UNL     1       2.283   6.684  19.787  0.00  0.00    +0.000 C 
BRANCH  20  22
ATOM     21  N   UNL     1       1.456   8.979  19.371  0.00  0.00    +0.000 N 
ATOM     22  C   UNL     1       2.169   7.909  18.885  0.00  0.00    +0.000 C 
ATOM     23  O   UNL     1       2.649   7.897  17.751  0.00  0.00    +0.000 OA
ATOM     24  H   UNL     1       0.958   8.860  20.256  0.00  0.00    +0.000 HD
BRANCH  21  25
ATOM     25  C   UNL     1       1.175  10.152  18.578  0.00  0.00    +0.000 C 
BRANCH  25  30
ATOM     26  C   UNL     1      -4.486  11.361  17.883  0.00  0.00    +0.000 C 
ATOM     27  C   UNL     1      -3.040  11.027  18.099  0.00  0.00    +0.000 A 
ATOM     28  C   UNL     1      -2.271  11.722  19.039  0.00  0.00    +0.000 A 
ATOM     29  C   UNL     1      -0.918  11.419  19.211  0.00  0.00    +0.000 A 
ATOM     30  C   UNL     1      -0.305  10.415  18.448  0.00  0.00    +0.000 A 
ATOM     31  C   UNL     1      -1.080   9.714  17.515  0.00  0.00    +0.000 A 
ATOM     32  C   UNL     1      -2.434  10.018  17.342  0.00  0.00    +0.000 A 
ENDBRANCH  25  30
ENDBRANCH  21  25
ENDBRANCH  20  22
ENDBRANCH   1  20
TORSDOF 6
ENDMDL
MODEL 2
REMARK VINA RESULT:      -8.8      3.215      5.613
REMARK  Name = 
REMARK  7 active torsions:
REMARK  status: ('A' for Active; 'I' for Inactive)
REMARK    1  A    between atoms: C_1  and  C_2
REMARK    2  A    between atoms: C_5  and  C_6
REMARK    3  A    between atoms: C_6  and  N_7
REMARK    4  A    between atoms: C_8  and  C_10
REMARK    5  A    between atoms: C_10  and  C_11
REMARK    6  A    between atoms: N_15  and  C_16
REMARK    7  A    between atoms: C_18  and  S_19
REMARK                            x       y       z     vdW  Elec       q    Type
REMARK                         _______ _______ _______ _____ _____    ______ ____
ROOT
ATOM      1  C   UNL     1       0.858   9.866  19.636  0.00  0.00    +0.000 A 
ATOM      2  C   UNL     1       0.717  10.239  20.956  0.00  0.00    +0.000 A 
ATOM      3  S   UNL     1       1.316   8.995  21.981  0.00  0.00    +0.000 S 
ATOM      4  C   UNL     1       1.701   8.037  20.600  0.00  0.00    +0.000 A 
ATOM      5  N   UNL     1       2.180   6.781  20.729  0.00  0.00    +0.000 N 
ATOM      6  N   UNL     1       1.427   8.624  19.460  0.00  0.00    +0.000 NA
ATOM      7  H   UNL     1       2.497   6.479  21.638  0.00  0.00    +0.000 HD
ENDROOT
BRANCH   5   8
ATOM      8  C   UNL     1       2.651   6.006  19.647  0.00  0.00    +0.000 A 
ATOM      9  N   UNL     1       3.594   6.527  18.838  0.00  0.00    +0.000 NA
ATOM     10  C   UNL     1       3.958   5.828  17.765  0.00  0.00    +0.000 A 
ATOM     11  N   UNL     1       3.480   4.628  17.430  0.00  0.00    +0.000 NA
ATOM     12  C   UNL     1       2.557   4.101  18.236  0.00  0.00    +0.000 A 
ATOM     13  C   UNL     1       2.044   2.855  17.912  0.00  0.00    +0.000 A 
ATOM     14  C   UNL     1       1.075   2.228  18.700  0.00  0.00    +0.000 A 
ATOM     15  C   UNL     1       0.589   2.865  19.832  0.00  0.00    +0.000 A 
ATOM     16  C   UNL     1       1.079   4.123  20.172  0.00  0.00    +0.000 A 
ATOM     17  C   UNL     1       2.082   4.748  19.387  0.00  0.00    +0.000 A 
BRANCH  10  18
ATOM     18  S   UNL     1       5.168   6.569  16.712  0.00  0.00    +0.000 S 
ATOM     19  H   UNL     1       5.113   5.575  15.818  0.00  0.00    +0.000 HD
ENDBRANCH  10  18
ENDBRANCH   5   8
BRANCH   1  20
ATOM     20  C   UNL     1       0.483  10.617  18.404  0.00  0.00    +0.000 C 
BRANCH  20  22
ATOM     21  N   UNL     1      -1.295  12.131  19.222  0.00  0.00    +0.000 N 
ATOM     22  C   UNL     1      -0.966  11.089  18.387  0.00  0.00    +0.000 C 
ATOM     23  O   UNL     1      -1.805  10.511  17.695  0.00  0.00    +0.000 OA
ATOM     24  H   UNL     1      -0.583  12.461  19.877  0.00  0.00    +0.000 HD
BRANCH  21  25
ATOM     25  C   UNL     1      -2.650  12.599  19.388  0.00  0.00    +0.000 C 
BRANCH  25  30
ATOM     26  C   UNL     1      -4.344  12.622  24.966  0.00  0.00    +0.000 C 
ATOM     27  C   UNL     1      -3.910  12.571  23.531  0.00  0.00    +0.000 A 
ATOM     28  C   UNL     1      -2.591  12.258  23.187  0.00  0.00    +0.000 A 
ATOM     29  C   UNL     1      -2.194  12.241  21.847  0.00  0.00    +0.000 A 
ATOM     30  C   UNL     1      -3.106  12.535  20.824  0.00  0.00    +0.000 A 
ATOM     31  C   UNL     1      -4.429  12.839  21.172  0.00  0.00    +0.000 A 
ATOM     32  C   UNL     1      -4.826  12.858  22.512  0.00  0.00    +0.000 A 
ENDBRANCH  25  30
ENDBRANCH  21  25
ENDBRANCH  20  22
ENDBRANCH   1  20
TORSDOF 6
ENDMDL
MODEL 3
REMARK VINA RESULT:      -8.8      3.266      5.686
REMARK  Name = 
REMARK  7 active torsions:
REMARK  status: ('A' for Active; 'I' for Inactive)
REMARK    1  A    between atoms: C_1  and  C_2
REMARK    2  A    between atoms: C_5  and  C_6
REMARK    3  A    between atoms: C_6  and  N_7
REMARK    4  A    between atoms: C_8  and  C_10
REMARK    5  A    between atoms: C_10  and  C_11
REMARK    6  A    between atoms: N_15  and  C_16
REMARK    7  A    between atoms: C_18  and  S_19
REMARK                            x       y       z     vdW  Elec       q    Type
REMARK                         _______ _______ _______ _____ _____    ______ ____
ROOT
ATOM      1  C   UNL     1       0.503   9.989  19.713  0.00  0.00    +0.000 A 
ATOM      2  C   UNL     1       0.392  10.377  21.032  0.00  0.00    +0.000 A 
ATOM      3  S   UNL     1       1.108   9.192  22.051  0.00  0.00    +0.000 S 
ATOM      4  C   UNL     1       1.497   8.234  20.671  0.00  0.00    +0.000 A 
ATOM      5  N   UNL     1       2.058   7.012  20.801  0.00  0.00    +0.000 N 
ATOM      6  N   UNL     1       1.141   8.781  19.534  0.00  0.00    +0.000 NA
ATOM      7  H   UNL     1       2.429   6.747  21.700  0.00  0.00    +0.000 HD
ENDROOT
BRANCH   5   8
ATOM      8  C   UNL     1       2.533   6.248  19.712  0.00  0.00    +0.000 A 
ATOM      9  N   UNL     1       3.427   6.803  18.871  0.00  0.00    +0.000 NA
ATOM     10  C   UNL     1       3.791   6.110  17.794  0.00  0.00    +0.000 A 
ATOM     11  N   UNL     1       3.360   4.885  17.485  0.00  0.00    +0.000 NA
ATOM     12  C   UNL     1       2.487   4.325  18.324  0.00  0.00    +0.000 A 
ATOM     13  C   UNL     1       2.022   3.053  18.027  0.00  0.00    +0.000 A 
ATOM     14  C   UNL     1       1.107   2.391  18.850  0.00  0.00    +0.000 A 
ATOM     15  C   UNL     1       0.626   3.017  19.990  0.00  0.00    +0.000 A 
ATOM     16  C   UNL     1       1.066   4.300  20.303  0.00  0.00    +0.000 A 
ATOM     17  C   UNL     1       2.015   4.963  19.482  0.00  0.00    +0.000 A 
BRANCH  10  18
ATOM     18  S   UNL     1       4.934   6.894  16.698  0.00  0.00    +0.000 S 
ATOM     19  H   UNL     1       5.734   5.823  16.640  0.00  0.00    +0.000 HD
ENDBRANCH  10  18
ENDBRANCH   5   8
BRANCH   1  20
ATOM     20  C   UNL     1       0.033  10.692  18.486  0.00  0.00    +0.000 C 
BRANCH  20  22
ATOM     21  N   UNL     1      -2.105  11.937  18.433  0.00  0.00    +0.000 N 
ATOM     22  C   UNL     1      -1.484  10.715  18.331  0.00  0.00    +0.000 C 
ATOM     23  O   UNL     1      -2.114   9.667  18.183  0.00  0.00    +0.000 OA
ATOM     24  H   UNL     1      -1.535  12.741  18.707  0.00  0.00    +0.000 HD
BRANCH  21  25
ATOM     25  C   UNL     1      -3.540  12.086  18.420  0.00  0.00    +0.000 C 
BRANCH  25  30
ATOM     26  C   UNL     1      -5.650  13.103  23.759  0.00  0.00    +0.000 C 
ATOM     27  C   UNL     1      -5.121  12.882  22.373  0.00  0.00    +0.000 A 
ATOM     28  C   UNL     1      -5.974  12.519  21.325  0.00  0.00    +0.000 A 
ATOM     29  C   UNL     1      -5.465  12.290  20.044  0.00  0.00    +0.000 A 
ATOM     30  C   UNL     1      -4.094  12.419  19.784  0.00  0.00    +0.000 A 
ATOM     31  C   UNL     1      -3.243  12.792  20.833  0.00  0.00    +0.000 A 
ATOM     32  C   UNL     1      -3.753  13.020  22.115  0.00  0.00    +0.000 A 
ENDBRANCH  25  30
ENDBRANCH  21  25
ENDBRANCH  20  22
ENDBRANCH   1  20
TORSDOF 6
ENDMDL
MODEL 4
REMARK VINA RESULT:      -8.7      3.238      5.550
REMARK  Name = 
REMARK  7 active torsions:
REMARK  status: ('A' for Active; 'I' for Inactive)
REMARK    1  A    between atoms: C_1  and  C_2
REMARK    2  A    between atoms: C_5  and  C_6
REMARK    3  A    between atoms: C_6  and  N_7
REMARK    4  A    between atoms: C_8  and  C_10
REMARK    5  A    between atoms: C_10  and  C_11
REMARK    6  A    between atoms: N_15  and  C_16
REMARK    7  A    between atoms: C_18  and  S_19
REMARK                            x       y       z     vdW  Elec       q    Type
REMARK                         _______ _______ _______ _____ _____    ______ ____
ROOT
ATOM      1  C   UNL     1       0.659  10.055  19.834  0.00  0.00    +0.000 A 
ATOM      2  C   UNL     1       0.503  10.393  21.162  0.00  0.00    +0.000 A 
ATOM      3  S   UNL     1       1.096   9.126  22.161  0.00  0.00    +0.000 S 
ATOM      4  C   UNL     1       1.500   8.205  20.759  0.00  0.00    +0.000 A 
ATOM      5  N   UNL     1       1.982   6.948  20.861  0.00  0.00    +0.000 N 
ATOM      6  N   UNL     1       1.235   8.821  19.632  0.00  0.00    +0.000 NA
ATOM      7  H   UNL     1       2.291   6.623  21.764  0.00  0.00    +0.000 HD
ENDROOT
BRANCH   5   8
ATOM      8  C   UNL     1       2.468   6.203  19.763  0.00  0.00    +0.000 A 
ATOM      9  N   UNL     1       3.353   6.781  18.928  0.00  0.00    +0.000 NA
ATOM     10  C   UNL     1       3.726   6.106  17.843  0.00  0.00    +0.000 A 
ATOM     11  N   UNL     1       3.313   4.878  17.520  0.00  0.00    +0.000 NA
ATOM     12  C   UNL     1       2.448   4.296  18.352  0.00  0.00    +0.000 A 
ATOM     13  C   UNL     1       2.002   3.021  18.041  0.00  0.00    +0.000 A 
ATOM     14  C   UNL     1       1.097   2.336  18.855  0.00  0.00    +0.000 A 
ATOM     15  C   UNL     1       0.607   2.943  20.003  0.00  0.00    +0.000 A 
ATOM     16  C   UNL     1       1.029   4.228  20.331  0.00  0.00    +0.000 A 
ATOM     17  C   UNL     1       1.968   4.913  19.518  0.00  0.00    +0.000 A 
BRANCH  10  18
ATOM     18  S   UNL     1       4.857   6.919  16.756  0.00  0.00    +0.000 S 
ATOM     19  H   UNL     1       5.503   5.787  16.452  0.00  0.00    +0.000 HD
ENDBRANCH  10  18
ENDBRANCH   5   8
BRANCH   1  20
ATOM     20  C   UNL     1       0.294  10.837  18.618  0.00  0.00    +0.000 C 
BRANCH  20  22
ATOM     21  N   UNL     1      -2.154  11.057  18.337  0.00  0.00    +0.000 N 
ATOM     22  C   UNL     1      -1.010  10.390  17.967  0.00  0.00    +0.000 C 
ATOM     23  O   UNL     1      -1.027   9.433  17.193  0.00  0.00    +0.000 OA
ATOM     24  H   UNL     1      -2.086  11.738  19.096  0.00  0.00    +0.000 HD
BRANCH  21  25
ATOM     25  C   UNL     1      -3.467  10.662  17.885  0.00  0.00    +0.000 C 
BRANCH  25  30
ATOM     26  C   UNL     1      -7.681  14.493  19.131  0.00  0.00    +0.000 C 
ATOM     27  C   UNL     1      -6.576  13.539  18.787  0.00  0.00    +0.000 A 
ATOM     28  C   UNL     1      -6.510  12.934  17.527  0.00  0.00    +0.000 A 
ATOM     29  C   UNL     1      -5.490  12.027  17.230  0.00  0.00    +0.000 A 
ATOM     30  C   UNL     1      -4.514  11.706  18.184  0.00  0.00    +0.000 A 
ATOM     31  C   UNL     1      -4.577  12.321  19.441  0.00  0.00    +0.000 A 
ATOM     32  C   UNL     1      -5.599  13.228  19.740  0.00  0.00    +0.000 A 
ENDBRANCH  25  30
ENDBRANCH  21  25
ENDBRANCH  20  22
ENDBRANCH   1  20
TORSDOF 6
ENDMDL
MODEL 5
REMARK VINA RESULT:      -8.6      1.136      1.332
REMARK  Name = 
REMARK  7 active torsions:
REMARK  status: ('A' for Active; 'I' for Inactive)
REMARK    1  A    between atoms: C_1  and  C_2
REMARK    2  A    between atoms: C_5  and  C_6
REMARK    3  A    between atoms: C_6  and  N_7
REMARK    4  A    between atoms: C_8  and  C_10
REMARK    5  A    between atoms: C_10  and  C_11
REMARK    6  A    between atoms: N_15  and  C_16
REMARK    7  A    between atoms: C_18  and  S_19
REMARK                            x       y       z     vdW  Elec       q    Type
REMARK                         _______ _______ _______ _____ _____    ______ ____
ROOT
ATOM      1  C   UNL     1       2.032   5.811  20.033  0.00  0.00    +0.000 A 
ATOM      2  C   UNL     1       1.104   4.808  20.218  0.00  0.00    +0.000 A 
ATOM      3  S   UNL     1       1.684   3.343  19.530  0.00  0.00    +0.000 S 
ATOM      4  C   UNL     1       3.119   4.149  19.014  0.00  0.00    +0.000 A 
ATOM      5  N   UNL     1       4.050   3.515  18.269  0.00  0.00    +0.000 N 
ATOM      6  N   UNL     1       3.166   5.412  19.362  0.00  0.00    +0.000 NA
ATOM      7  H   UNL     1       3.996   2.511  18.184  0.00  0.00    +0.000 HD
ENDROOT
BRANCH   5   8
ATOM      8  C   UNL     1       5.307   4.072  17.945  0.00  0.00    +0.000 A 
ATOM      9  N   UNL     1       6.100   4.509  18.942  0.00  0.00    +0.000 NA
ATOM     10  C   UNL     1       7.237   5.122  18.618  0.00  0.00    +0.000 A 
ATOM     11  N   UNL     1       7.676   5.322  17.374  0.00  0.00    +0.000 NA
ATOM     12  C   UNL     1       6.902   4.876  16.383  0.00  0.00    +0.000 A 
ATOM     13  C   UNL     1       7.334   5.070  15.080  0.00  0.00    +0.000 A 
ATOM     14  C   UNL     1       6.587   4.636  13.983  0.00  0.00    +0.000 A 
ATOM     15  C   UNL     1       5.367   4.007  14.184  0.00  0.00    +0.000 A 
ATOM     16  C   UNL     1       4.904   3.812  15.482  0.00  0.00    +0.000 A 
ATOM     17  C   UNL     1       5.674   4.230  16.598  0.00  0.00    +0.000 A 
BRANCH  10  18
ATOM     18  S   UNL     1       8.225   5.714  19.958  0.00  0.00    +0.000 S 
ATOM     19  H   UNL     1       7.522   5.042  20.877  0.00  0.00    +0.000 HD
ENDBRANCH  10  18
ENDBRANCH   5   8
BRANCH   1  20
ATOM     20  C   UNL     1       1.966   7.239  20.458  0.00  0.00    +0.000 C 
BRANCH  20  22
ATOM     21  N   UNL     1       1.172   9.413  19.584  0.00  0.00    +0.000 N 
ATOM     22  C   UNL     1       1.791   8.218  19.303  0.00  0.00    +0.000 C 
ATOM     23  O   UNL     1       2.141   7.910  18.163  0.00  0.00    +0.000 OA
ATOM     24  H   UNL     1       0.773   9.536  20.517  0.00  0.00    +0.000 HD
BRANCH  21  25
ATOM     25  C   UNL     1       0.841  10.378  18.563  0.00  0.00    +0.000 C 
BRANCH  25  30
ATOM     26  C   UNL     1      -4.864  11.142  17.640  0.00  0.00    +0.000 C 
ATOM     27  C   UNL     1      -3.406  10.923  17.915  0.00  0.00    +0.000 A 
ATOM     28  C   UNL     1      -2.721  11.715  18.844  0.00  0.00    +0.000 A 
ATOM     29  C   UNL     1      -1.356  11.518  19.071  0.00  0.00    +0.000 A 
ATOM     30  C   UNL     1      -0.649  10.527  18.376  0.00  0.00    +0.000 A 
ATOM     31  C   UNL     1      -1.340   9.730  17.455  0.00  0.00    +0.000 A 
ATOM     32  C   UNL     1      -2.705   9.927  17.226  0.00  0.00    +0.000 A 
ENDBRANCH  25  30
ENDBRANCH  21  25
ENDBRANCH  20  22
ENDBRANCH   1  20
TORSDOF 6
ENDMDL
MODEL 6
REMARK VINA RESULT:      -8.6      1.803      2.302
REMARK  Name = 
REMARK  7 active torsions:
REMARK  status: ('A' for Active; 'I' for Inactive)
REMARK    1  A    between atoms: C_1  and  C_2
REMARK    2  A    between atoms: C_5  and  C_6
REMARK    3  A    between atoms: C_6  and  N_7
REMARK    4  A    between atoms: C_8  and  C_10
REMARK    5  A    between atoms: C_10  and  C_11
REMARK    6  A    between atoms: N_15  and  C_16
REMARK    7  A    between atoms: C_18  and  S_19
REMARK                            x       y       z     vdW  Elec       q    Type
REMARK                         _______ _______ _______ _____ _____    ______ ____
ROOT
ATOM      1  C   UNL     1       2.240   4.768  19.670  0.00  0.00    +0.000 A 
ATOM      2  C   UNL     1       1.298   3.768  19.547  0.00  0.00    +0.000 A 
ATOM      3  S   UNL     1       1.771   2.671  18.311  0.00  0.00    +0.000 S 
ATOM      4  C   UNL     1       3.184   3.613  18.009  0.00  0.00    +0.000 A 
ATOM      5  N   UNL     1       4.029   3.306  17.002  0.00  0.00    +0.000 N 
ATOM      6  N   UNL     1       3.301   4.653  18.800  0.00  0.00    +0.000 NA
ATOM      7  H   UNL     1       3.936   2.409  16.552  0.00  0.00    +0.000 HD
ENDROOT
BRANCH   5   8
ATOM      8  C   UNL     1       5.273   3.946  16.799  0.00  0.00    +0.000 A 
ATOM      9  N   UNL     1       5.916   4.466  17.863  0.00  0.00    +0.000 NA
ATOM     10  C   UNL     1       7.036   5.152  17.646  0.00  0.00    +0.000 A 
ATOM     11  N   UNL     1       7.598   5.351  16.451  0.00  0.00    +0.000 NA
ATOM     12  C   UNL     1       6.973   4.824  15.397  0.00  0.00    +0.000 A 
ATOM     13  C   UNL     1       7.534   5.016  14.144  0.00  0.00    +0.000 A 
ATOM     14  C   UNL     1       6.948   4.500  12.986  0.00  0.00    +0.000 A 
ATOM     15  C   UNL     1       5.760   3.789  13.072  0.00  0.00    +0.000 A 
ATOM     16  C   UNL     1       5.169   3.594  14.317  0.00  0.00    +0.000 A 
ATOM     17  C   UNL     1       5.777   4.096  15.497  0.00  0.00    +0.000 A 
BRANCH  10  18
ATOM     18  S   UNL     1       7.823   5.849  19.065  0.00  0.00    +0.000 S 
ATOM     19  H   UNL     1       6.682   6.358  19.546  0.00  0.00    +0.000 HD
ENDBRANCH  10  18
ENDBRANCH   5   8
BRANCH   1  20
ATOM     20  C   UNL     1       2.257   5.931  20.603  0.00  0.00    +0.000 C 
BRANCH  20  22
ATOM     21  N   UNL     1       1.307   8.216  20.624  0.00  0.00    +0.000 N 
ATOM     22  C   UNL     1       2.018   7.273  19.920  0.00  0.00    +0.000 C 
ATOM     23  O   UNL     1       2.401   7.464  18.765  0.00  0.00    +0.000 OA
ATOM     24  H   UNL     1       0.892   7.934  21.515  0.00  0.00    +0.000 HD
BRANCH  21  25
ATOM     25  C   UNL     1       0.914   9.481  20.053  0.00  0.00    +0.000 C 
BRANCH  25  30
ATOM     26  C   UNL     1      -2.688  12.429  23.565  0.00  0.00    +0.000 C 
ATOM     27  C   UNL     1      -1.730  11.701  22.669  0.00  0.00    +0.000 A 
ATOM     28  C   UNL     1      -1.484  12.143  21.365  0.00  0.00    +0.000 A 
ATOM     29  C   UNL     1      -0.610  11.440  20.532  0.00  0.00    +0.000 A 
ATOM     30  C   UNL     1       0.038  10.283  20.985  0.00  0.00    +0.000 A 
ATOM     31  C   UNL     1      -0.202   9.849  22.296  0.00  0.00    +0.000 A 
ATOM     32  C   UNL     1      -1.078  10.551  23.129  0.00  0.00    +0.000 A 
ENDBRANCH  25  30
ENDBRANCH  21  25
ENDBRANCH  20  22
ENDBRANCH   1  20
TORSDOF 6
ENDMDL
MODEL 7
REMARK VINA RESULT:      -8.6      3.760      6.005
REMARK  Name = 
REMARK  7 active torsions:
REMARK  status: ('A' for Active; 'I' for Inactive)
REMARK    1  A    between atoms: C_1  and  C_2
REMARK    2  A    between atoms: C_5  and  C_6
REMARK    3  A    between atoms: C_6  and  N_7
REMARK    4  A    between atoms: C_8  and  C_10
REMARK    5  A    between atoms: C_10  and  C_11
REMARK    6  A    between atoms: N_15  and  C_16
REMARK    7  A    between atoms: C_18  and  S_19
REMARK                            x       y       z     vdW  Elec       q    Type
REMARK                         _______ _______ _______ _____ _____    ______ ____
ROOT
ATOM      1  C   UNL     1       1.033  10.039  19.835  0.00  0.00    +0.000 A 
ATOM      2  C   UNL     1       0.723  10.315  21.150  0.00  0.00    +0.000 A 
ATOM      3  S   UNL     1       1.028   8.931  22.124  0.00  0.00    +0.000 S 
ATOM      4  C   UNL     1       1.531   8.054  20.726  0.00  0.00    +0.000 A 
ATOM      5  N   UNL     1       1.858   6.745  20.800  0.00  0.00    +0.000 N 
ATOM      6  N   UNL     1       1.499   8.761  19.622  0.00  0.00    +0.000 NA
ATOM      7  H   UNL     1       1.996   6.335  21.710  0.00  0.00    +0.000 HD
ENDROOT
BRANCH   5   8
ATOM      8  C   UNL     1       2.416   6.015  19.727  0.00  0.00    +0.000 A 
ATOM      9  N   UNL     1       3.335   6.614  18.944  0.00  0.00    +0.000 NA
ATOM     10  C   UNL     1       3.780   5.950  17.878  0.00  0.00    +0.000 A 
ATOM     11  N   UNL     1       3.407   4.718  17.528  0.00  0.00    +0.000 NA
ATOM     12  C   UNL     1       2.509   4.116  18.309  0.00  0.00    +0.000 A 
ATOM     13  C   UNL     1       2.103   2.834  17.968  0.00  0.00    +0.000 A 
ATOM     14  C   UNL     1       1.168   2.129  18.729  0.00  0.00    +0.000 A 
ATOM     15  C   UNL     1       0.605   2.721  19.851  0.00  0.00    +0.000 A 
ATOM     16  C   UNL     1       0.985   4.012  20.207  0.00  0.00    +0.000 A 
ATOM     17  C   UNL     1       1.954   4.718  19.449  0.00  0.00    +0.000 A 
BRANCH  10  18
ATOM     18  S   UNL     1       4.954   6.789  16.859  0.00  0.00    +0.000 S 
ATOM     19  H   UNL     1       4.719   6.001  15.804  0.00  0.00    +0.000 HD
ENDBRANCH  10  18
ENDBRANCH   5   8
BRANCH   1  20
ATOM     20  C   UNL     1       0.933  10.927  18.642  0.00  0.00    +0.000 C 
BRANCH  20  22
ATOM     21  N   UNL     1       1.532  13.050  19.763  0.00  0.00    +0.000 N 
ATOM     22  C   UNL     1       1.797  12.181  18.732  0.00  0.00    +0.000 C 
ATOM     23  O   UNL     1       2.649  12.417  17.874  0.00  0.00    +0.000 OA
ATOM     24  H   UNL     1       0.713  12.865  20.346  0.00  0.00    +0.000 HD
BRANCH  21  25
ATOM     25  C   UNL     1       2.196  14.325  19.898  0.00  0.00    +0.000 C 
BRANCH  25  30
ATOM     26  C   UNL     1      -0.238  18.625  16.804  0.00  0.00    +0.000 C 
ATOM     27  C   UNL     1       0.378  17.490  17.568  0.00  0.00    +0.000 A 
ATOM     28  C   UNL     1      -0.416  16.589  18.285  0.00  0.00    +0.000 A 
ATOM     29  C   UNL     1       0.172  15.552  19.013  0.00  0.00    +0.000 A 
ATOM     30  C   UNL     1       1.564  15.393  19.041  0.00  0.00    +0.000 A 
ATOM     31  C   UNL     1       2.356  16.291  18.313  0.00  0.00    +0.000 A 
ATOM     32  C   UNL     1       1.768  17.330  17.585  0.00  0.00    +0.000 A 
ENDBRANCH  25  30
ENDBRANCH  21  25
ENDBRANCH  20  22
ENDBRANCH   1  20
TORSDOF 6
ENDMDL
MODEL 8
REMARK VINA RESULT:      -8.5      3.388      5.674
REMARK  Name = 
REMARK  7 active torsions:
REMARK  status: ('A' for Active; 'I' for Inactive)
REMARK    1  A    between atoms: C_1  and  C_2
REMARK    2  A    between atoms: C_5  and  C_6
REMARK    3  A    between atoms: C_6  and  N_7
REMARK    4  A    between atoms: C_8  and  C_10
REMARK    5  A    between atoms: C_10  and  C_11
REMARK    6  A    between atoms: N_15  and  C_16
REMARK    7  A    between atoms: C_18  and  S_19
REMARK                            x       y       z     vdW  Elec       q    Type
REMARK                         _______ _______ _______ _____ _____    ______ ____
ROOT
ATOM      1  C   UNL     1       0.750   9.908  19.688  0.00  0.00    +0.000 A 
ATOM      2  C   UNL     1       0.573  10.268  21.008  0.00  0.00    +0.000 A 
ATOM      3  S   UNL     1       1.156   9.020  22.037  0.00  0.00    +0.000 S 
ATOM      4  C   UNL     1       1.583   8.077  20.657  0.00  0.00    +0.000 A 
ATOM      5  N   UNL     1       2.068   6.824  20.787  0.00  0.00    +0.000 N 
ATOM      6  N   UNL     1       1.333   8.673  19.516  0.00  0.00    +0.000 NA
ATOM      7  H   UNL     1       2.365   6.516  21.700  0.00  0.00    +0.000 HD
ENDROOT
BRANCH   5   8
ATOM      8  C   UNL     1       2.573   6.062  19.710  0.00  0.00    +0.000 A 
ATOM      9  N   UNL     1       3.510   6.610  18.911  0.00  0.00    +0.000 NA
ATOM     10  C   UNL     1       3.904   5.921  17.842  0.00  0.00    +0.000 A 
ATOM     11  N   UNL     1       3.464   4.708  17.502  0.00  0.00    +0.000 NA
ATOM     12  C   UNL     1       2.547   4.155  18.299  0.00  0.00    +0.000 A 
ATOM     13  C   UNL     1       2.072   2.896  17.969  0.00  0.00    +0.000 A 
ATOM     14  C   UNL     1       1.113   2.242  18.746  0.00  0.00    +0.000 A 
ATOM     15  C   UNL     1       0.597   2.865  19.874  0.00  0.00    +0.000 A 
ATOM     16  C   UNL     1       1.049   4.136  20.219  0.00  0.00    +0.000 A 
ATOM     17  C   UNL     1       2.042   4.790  19.444  0.00  0.00    +0.000 A 
BRANCH  10  18
ATOM     18  S   UNL     1       5.104   6.696  16.802  0.00  0.00    +0.000 S 
ATOM     19  H   UNL     1       4.909   5.831  15.799  0.00  0.00    +0.000 HD
ENDBRANCH  10  18
ENDBRANCH   5   8
BRANCH   1  20
ATOM     20  C   UNL     1       0.400  10.667  18.454  0.00  0.00    +0.000 C 
BRANCH  20  22
ATOM     21  N   UNL     1      -0.233  12.866  19.396  0.00  0.00    +0.000 N 
ATOM     22  C   UNL     1      -0.635  11.765  18.678  0.00  0.00    +0.000 C 
ATOM     23  O   UNL     1      -1.791  11.625  18.278  0.00  0.00    +0.000 OA
ATOM     24  H   UNL     1       0.694  12.845  19.825  0.00  0.00    +0.000 HD
BRANCH  21  25
ATOM     25  C   UNL     1      -1.141  13.921  19.777  0.00  0.00    +0.000 C 
BRANCH  25  30
ATOM     26  C   UNL     1      -4.148  12.331  24.512  0.00  0.00    +0.000 C 
ATOM     27  C   UNL     1      -3.389  12.782  23.299  0.00  0.00    +0.000 A 
ATOM     28  C   UNL     1      -4.036  12.972  22.073  0.00  0.00    +0.000 A 
ATOM     29  C   UNL     1      -3.312  13.366  20.945  0.00  0.00    +0.000 A 
ATOM     30  C   UNL     1      -1.929  13.580  21.018  0.00  0.00    +0.000 A 
ATOM     31  C   UNL     1      -1.286  13.399  22.249  0.00  0.00    +0.000 A 
ATOM     32  C   UNL     1      -2.009  13.003  23.378  0.00  0.00    +0.000 A 
ENDBRANCH  25  30
ENDBRANCH  21  25
ENDBRANCH  20  22
ENDBRANCH   1  20
TORSDOF 6
ENDMDL
MODEL 9
REMARK VINA RESULT:      -8.5      0.977      1.392
REMARK  Name = 
REMARK  7 active torsions:
REMARK  status: ('A' for Active; 'I' for Inactive)
REMARK    1  A    between atoms: C_1  and  C_2
REMARK    2  A    between atoms: C_5  and  C_6
REMARK    3  A    between atoms: C_6  and  N_7
REMARK    4  A    between atoms: C_8  and  C_10
REMARK    5  A    between atoms: C_10  and  C_11
REMARK    6  A    between atoms: N_15  and  C_16
REMARK    7  A    between atoms: C_18  and  S_19
REMARK                            x       y       z     vdW  Elec       q    Type
REMARK                         _______ _______ _______ _____ _____    ______ ____
ROOT
ATOM      1  C   UNL     1       2.010   5.042  19.793  0.00  0.00    +0.000 A 
ATOM      2  C   UNL     1       1.160   3.957  19.841  0.00  0.00    +0.000 A 
ATOM      3  S   UNL     1       1.838   2.644  18.962  0.00  0.00    +0.000 S 
ATOM      4  C   UNL     1       3.205   3.616  18.559  0.00  0.00    +0.000 A 
ATOM      5  N   UNL     1       4.172   3.157  17.735  0.00  0.00    +0.000 N 
ATOM      6  N   UNL     1       3.163   4.821  19.073  0.00  0.00    +0.000 NA
ATOM      7  H   UNL     1       4.190   2.173  17.516  0.00  0.00    +0.000 HD
ENDROOT
BRANCH   5   8
ATOM      8  C   UNL     1       5.382   3.843  17.488  0.00  0.00    +0.000 A 
ATOM      9  N   UNL     1       6.077   4.330  18.534  0.00  0.00    +0.000 NA
ATOM     10  C   UNL     1       7.162   5.060  18.282  0.00  0.00    +0.000 A 
ATOM     11  N   UNL     1       7.640   5.335  17.066  0.00  0.00    +0.000 NA
ATOM     12  C   UNL     1       6.963   4.842  16.028  0.00  0.00    +0.000 A 
ATOM     13  C   UNL     1       7.437   5.112  14.754  0.00  0.00    +0.000 A 
ATOM     14  C   UNL     1       6.792   4.636  13.610  0.00  0.00    +0.000 A 
ATOM     15  C   UNL     1       5.631   3.885  13.735  0.00  0.00    +0.000 A 
ATOM     16  C   UNL     1       5.127   3.611  15.003  0.00  0.00    +0.000 A 
ATOM     17  C   UNL     1       5.797   4.073  16.166  0.00  0.00    +0.000 A 
BRANCH  10  18
ATOM     18  S   UNL     1       8.019   5.710  19.683  0.00  0.00    +0.000 S 
ATOM     19  H   UNL     1       7.262   6.812  19.734  0.00  0.00    +0.000 HD
ENDBRANCH  10  18
ENDBRANCH   5   8
BRANCH   1  20
ATOM     20  C   UNL     1       1.845   6.391  20.405  0.00  0.00    +0.000 C 
BRANCH  20  22
ATOM     21  N   UNL     1       1.433   8.751  19.787  0.00  0.00    +0.000 N 
ATOM     22  C   UNL     1       1.960   7.539  19.408  0.00  0.00    +0.000 C 
ATOM     23  O   UNL     1       2.450   7.353  18.294  0.00  0.00    +0.000 OA
ATOM     24  H   UNL     1       0.907   8.791  20.663  0.00  0.00    +0.000 HD
BRANCH  21  25
ATOM     25  C   UNL     1       1.372   9.886  18.897  0.00  0.00    +0.000 C 
BRANCH  25  30
ATOM     26  C   UNL     1      -4.181  11.511  18.182  0.00  0.00    +0.000 C 
ATOM     27  C   UNL     1      -2.741  11.117  18.331  0.00  0.00    +0.000 A 
ATOM     28  C   UNL     1      -2.175  10.131  17.516  0.00  0.00    +0.000 A 
ATOM     29  C   UNL     1      -0.840   9.755  17.683  0.00  0.00    +0.000 A 
ATOM     30  C   UNL     1      -0.043  10.357  18.666  0.00  0.00    +0.000 A 
ATOM     31  C   UNL     1      -0.609  11.352  19.474  0.00  0.00    +0.000 A 
ATOM     32  C   UNL     1      -1.946  11.727  19.308  0.00  0.00    +0.000 A 
ENDBRANCH  25  30
ENDBRANCH  21  25
ENDBRANCH  20  22
ENDBRANCH   1  20
TORSDOF 6
ENDMDL
