MODEL 1
REMARK VINA RESULT:      -8.0      0.000      0.000
REMARK  Name = 
REMARK  10 active torsions:
REMARK  status: ('A' for Active; 'I' for Inactive)
REMARK    1  A    between atoms: C_2  and  C_4
REMARK    2  A    between atoms: C_7  and  C_8
REMARK    3  A    between atoms: N_12  and  C_13
REMARK    4  A    between atoms: N_12  and  C_18
REMARK    5  A    between atoms: C_13  and  C_14
REMARK    6  A    between atoms: C_14  and  C_15
REMARK    7  A    between atoms: C_15  and  O_17
REMARK    8  A    between atoms: N_21  and  C_22
REMARK    9  A    between atoms: C_22  and  C_23
REMARK   10  A    between atoms: C_23  and  O_25
REMARK                            x       y       z     vdW  Elec       q    Type
REMARK                         _______ _______ _______ _____ _____    ______ ____
ROOT
ATOM      1  C   UNL     1       1.933   7.309  19.863  0.00  0.00    +0.000 A 
ATOM      2  C   UNL     1       1.503   6.311  20.705  0.00  0.00    +0.000 A 
ATOM      3  S   UNL     1       2.577   4.981  20.624  0.00  0.00    +0.000 S 
ATOM      4  C   UNL     1       3.561   5.805  19.442  0.00  0.00    +0.000 A 
ATOM      5  N   UNL     1       4.657   5.244  18.814  0.00  0.00    +0.000 N 
ATOM      6  N   UNL     1       3.127   7.027  19.226  0.00  0.00    +0.000 NA
ENDROOT
BRANCH   1  10
ATOM      7  C   UNL     1      -0.079  11.041  19.219  0.00  0.00    +0.000 A 
ATOM      8  C   UNL     1      -0.173  10.391  20.449  0.00  0.00    +0.000 A 
ATOM      9  C   UNL     1       0.475   9.159  20.644  0.00  0.00    +0.000 A 
ATOM     10  C   UNL     1       1.229   8.571  19.621  0.00  0.00    +0.000 A 
ATOM     11  C   UNL     1       1.331   9.246  18.396  0.00  0.00    +0.000 A 
ATOM     12  C   UNL     1       0.682  10.468  18.190  0.00  0.00    +0.000 A 
BRANCH   7  14
ATOM     13  N   UNL     1      -1.285  12.966  20.015  0.00  0.00    +0.000 NA
ATOM     14  C   UNL     1      -0.765  12.352  19.006  0.00  0.00    +0.000 C 
ATOM     15  N   UNL     1      -0.857  12.887  17.754  0.00  0.00    +0.000 N 
ATOM     16  H   UNL     1      -1.674  13.861  19.714  0.00  0.00    +0.000 HD
ATOM     17  H   UNL     1      -1.581  13.583  17.630  0.00  0.00    +0.000 HD
ATOM     18  H   UNL     1      -0.852  12.217  16.991  0.00  0.00    +0.000 HD
ENDBRANCH   7  14
ENDBRANCH   1  10
BRANCH   5  19
ATOM     19  C   UNL     1       5.758   6.072  18.221  0.00  0.00    +0.000 C 
ATOM     20  C   UNL     1       5.504   6.820  16.908  0.00  0.00    +0.000 C 
ATOM     21  C   UNL     1       5.550   5.913  15.675  0.00  0.00    +0.000 C 
ATOM     22  N   UNL     1       6.784   5.096  15.554  0.00  0.00    +0.000 NA
ATOM     23  C   UNL     1       7.015   4.362  16.822  0.00  0.00    +0.000 C 
ATOM     24  C   UNL     1       7.070   5.294  18.031  0.00  0.00    +0.000 C 
BRANCH  22  25
ATOM     25  C   UNL     1       6.517   4.116  14.442  0.00  0.00    +0.000 C 
BRANCH  25  26
ATOM     26  C   UNL     1       7.130   4.561  13.122  0.00  0.00    +0.000 C 
ATOM     27  O   UNL     1       7.930   5.475  13.002  0.00  0.00    +0.000 OA
BRANCH  26  28
ATOM     28  O   UNL     1       6.734   3.782  12.086  0.00  0.00    +0.000 OA
ATOM     29  H   UNL     1       5.841   3.432  12.314  0.00  0.00    +0.000 HD
ENDBRANCH  26  28
ENDBRANCH  25  26
ENDBRANCH  22  25
ENDBRANCH   5  19
BRANCH   5  30
ATOM     30  C   UNL     1       4.805   3.767  18.765  0.00  0.00    +0.000 C 
BRANCH  30  31
ATOM     31  C   UNL     1       3.847   3.109  17.770  0.00  0.00    +0.000 C 
BRANCH  31  32
ATOM     32  C   UNL     1       3.197   1.891  18.377  0.00  0.00    +0.000 C 
ATOM     33  O   UNL     1       2.094   1.866  18.899  0.00  0.00    +0.000 OA
BRANCH  32  34
ATOM     34  O   UNL     1       3.966   0.782  18.264  0.00  0.00    +0.000 OA
ATOM     35  H   UNL     1       3.487  -0.014  17.967  0.00  0.00    +0.000 HD
ENDBRANCH  32  34
ENDBRANCH  31  32
ENDBRANCH  30  31
ENDBRANCH   5  30
TORSDOF 10
ENDMDL
MODEL 2
REMARK VINA RESULT:      -7.9      0.245      1.234
REMARK  Name = 
REMARK  10 active torsions:
REMARK  status: ('A' for Active; 'I' for Inactive)
REMARK    1  A    between atoms: C_2  and  C_4
REMARK    2  A    between atoms: C_7  and  C_8
REMARK    3  A    between atoms: N_12  and  C_13
REMARK    4  A    between atoms: N_12  and  C_18
REMARK    5  A    between atoms: C_13  and  C_14
REMARK    6  A    between atoms: C_14  and  C_15
REMARK    7  A    between atoms: C_15  and  O_17
REMARK    8  A    between atoms: N_21  and  C_22
REMARK    9  A    between atoms: C_22  and  C_23
REMARK   10  A    between atoms: C_23  and  O_25
REMARK                            x       y       z     vdW  Elec       q    Type
REMARK                         _______ _______ _______ _____ _____    ______ ____
ROOT
ATOM      1  C   UNL     1       1.968   7.386  19.818  0.00  0.00    +0.000 A 
ATOM      2  C   UNL     1       1.559   6.374  20.653  0.00  0.00    +0.000 A 
ATOM      3  S   UNL     1       2.620   5.038  20.508  0.00  0.00    +0.000 S 
ATOM      4  C   UNL     1       3.569   5.880  19.310  0.00  0.00    +0.000 A 
ATOM      5  N   UNL     1       4.639   5.325  18.633  0.00  0.00    +0.000 N 
ATOM      6  N   UNL     1       3.137   7.109  19.135  0.00  0.00    +0.000 NA
ENDROOT
BRANCH   1  10
ATOM      7  C   UNL     1      -0.134  11.072  19.194  0.00  0.00    +0.000 A 
ATOM      8  C   UNL     1       0.658  10.530  18.182  0.00  0.00    +0.000 A 
ATOM      9  C   UNL     1       1.358   9.331  18.403  0.00  0.00    +0.000 A 
ATOM     10  C   UNL     1       1.266   8.658  19.627  0.00  0.00    +0.000 A 
ATOM     11  C   UNL     1       0.450   9.203  20.629  0.00  0.00    +0.000 A 
ATOM     12  C   UNL     1      -0.243  10.401  20.421  0.00  0.00    +0.000 A 
BRANCH   7  14
ATOM     13  N   UNL     1      -1.093  12.747  17.757  0.00  0.00    +0.000 NA
ATOM     14  C   UNL     1      -0.882  12.345  18.965  0.00  0.00    +0.000 C 
ATOM     15  N   UNL     1      -1.321  13.087  20.023  0.00  0.00    +0.000 N 
ATOM     16  H   UNL     1      -1.650  13.603  17.768  0.00  0.00    +0.000 HD
ATOM     17  H   UNL     1      -1.526  14.057  19.819  0.00  0.00    +0.000 HD
ATOM     18  H   UNL     1      -0.781  12.994  20.877  0.00  0.00    +0.000 HD
ENDBRANCH   7  14
ENDBRANCH   1  10
BRANCH   5  19
ATOM     19  C   UNL     1       5.725   6.157  18.021  0.00  0.00    +0.000 C 
ATOM     20  C   UNL     1       5.450   6.889  16.702  0.00  0.00    +0.000 C 
ATOM     21  C   UNL     1       5.492   5.969  15.479  0.00  0.00    +0.000 C 
ATOM     22  N   UNL     1       6.733   5.163  15.353  0.00  0.00    +0.000 NA
ATOM     23  C   UNL     1       6.984   4.444  16.626  0.00  0.00    +0.000 C 
ATOM     24  C   UNL     1       7.043   5.390  17.825  0.00  0.00    +0.000 C 
BRANCH  22  25
ATOM     25  C   UNL     1       6.464   4.168  14.255  0.00  0.00    +0.000 C 
BRANCH  25  26
ATOM     26  C   UNL     1       7.167   4.540  12.957  0.00  0.00    +0.000 C 
ATOM     27  O   UNL     1       6.973   3.995  11.882  0.00  0.00    +0.000 OA
BRANCH  26  28
ATOM     28  O   UNL     1       7.998   5.599  13.111  0.00  0.00    +0.000 OA
ATOM     29  H   UNL     1       7.430   6.393  13.247  0.00  0.00    +0.000 HD
ENDBRANCH  26  28
ENDBRANCH  25  26
ENDBRANCH  22  25
ENDBRANCH   5  19
BRANCH   5  30
ATOM     30  C   UNL     1       4.773   3.848  18.549  0.00  0.00    +0.000 C 
BRANCH  30  31
ATOM     31  C   UNL     1       3.847   3.228  17.501  0.00  0.00    +0.000 C 
BRANCH  31  32
ATOM     32  C   UNL     1       3.002   2.138  18.110  0.00  0.00    +0.000 C 
ATOM     33  O   UNL     1       1.798   2.201  18.298  0.00  0.00    +0.000 OA
BRANCH  32  34
ATOM     34  O   UNL     1       3.723   1.033  18.416  0.00  0.00    +0.000 OA
ATOM     35  H   UNL     1       3.353   0.199  18.070  0.00  0.00    +0.000 HD
ENDBRANCH  32  34
ENDBRANCH  31  32
ENDBRANCH  30  31
ENDBRANCH   5  30
TORSDOF 10
ENDMDL
MODEL 3
REMARK VINA RESULT:      -7.7      4.858      9.427
REMARK  Name = 
REMARK  10 active torsions:
REMARK  status: ('A' for Active; 'I' for Inactive)
REMARK    1  A    between atoms: C_2  and  C_4
REMARK    2  A    between atoms: C_7  and  C_8
REMARK    3  A    between atoms: N_12  and  C_13
REMARK    4  A    between atoms: N_12  and  C_18
REMARK    5  A    between atoms: C_13  and  C_14
REMARK    6  A    between atoms: C_14  and  C_15
REMARK    7  A    between atoms: C_15  and  O_17
REMARK    8  A    between atoms: N_21  and  C_22
REMARK    9  A    between atoms: C_22  and  C_23
REMARK   10  A    between atoms: C_23  and  O_25
REMARK                            x       y       z     vdW  Elec       q    Type
REMARK                         _______ _______ _______ _____ _____    ______ ____
ROOT
ATOM      1  C   UNL     1       2.934   6.656  18.630  0.00  0.00    +0.000 A 
ATOM      2  C   UNL     1       2.563   6.001  19.780  0.00  0.00    +0.000 A 
ATOM      3  S   UNL     1       1.597   7.032  20.748  0.00  0.00    +0.000 S 
ATOM      4  C   UNL     1       1.742   8.320  19.580  0.00  0.00    +0.000 A 
ATOM      5  N   UNL     1       1.231   9.591  19.756  0.00  0.00    +0.000 N 
ATOM      6  N   UNL     1       2.399   7.925  18.511  0.00  0.00    +0.000 NA
ENDROOT
BRANCH   1  10
ATOM      7  C   UNL     1       5.584   5.103  15.637  0.00  0.00    +0.000 A 
ATOM      8  C   UNL     1       5.335   6.473  15.719  0.00  0.00    +0.000 A 
ATOM      9  C   UNL     1       4.450   6.970  16.692  0.00  0.00    +0.000 A 
ATOM     10  C   UNL     1       3.817   6.110  17.596  0.00  0.00    +0.000 A 
ATOM     11  C   UNL     1       4.092   4.737  17.516  0.00  0.00    +0.000 A 
ATOM     12  C   UNL     1       4.964   4.233  16.545  0.00  0.00    +0.000 A 
BRANCH   7  14
ATOM     13  N   UNL     1       7.625   5.200  14.365  0.00  0.00    +0.000 NA
ATOM     14  C   UNL     1       6.525   4.569  14.606  0.00  0.00    +0.000 C 
ATOM     15  N   UNL     1       6.217   3.434  13.914  0.00  0.00    +0.000 N 
ATOM     16  H   UNL     1       8.174   4.687  13.672  0.00  0.00    +0.000 HD
ATOM     17  H   UNL     1       6.715   3.307  13.041  0.00  0.00    +0.000 HD
ATOM     18  H   UNL     1       5.226   3.244  13.804  0.00  0.00    +0.000 HD
ENDBRANCH   7  14
ENDBRANCH   1  10
BRANCH   5  19
ATOM     19  C   UNL     1       0.911  10.498  18.605  0.00  0.00    +0.000 C 
ATOM     20  C   UNL     1       0.717  11.996  18.868  0.00  0.00    +0.000 C 
ATOM     21  C   UNL     1      -0.643  12.332  19.485  0.00  0.00    +0.000 C 
ATOM     22  N   UNL     1      -1.810  11.802  18.736  0.00  0.00    +0.000 NA
ATOM     23  C   UNL     1      -1.625  10.349  18.500  0.00  0.00    +0.000 C 
ATOM     24  C   UNL     1      -0.309  10.040  17.789  0.00  0.00    +0.000 C 
BRANCH  22  25
ATOM     25  C   UNL     1      -3.003  12.022  19.630  0.00  0.00    +0.000 C 
BRANCH  25  26
ATOM     26  C   UNL     1      -4.316  11.961  18.863  0.00  0.00    +0.000 C 
ATOM     27  O   UNL     1      -5.403  11.730  19.366  0.00  0.00    +0.000 OA
BRANCH  26  28
ATOM     28  O   UNL     1      -4.156  12.259  17.550  0.00  0.00    +0.000 OA
ATOM     29  H   UNL     1      -3.203  12.480  17.420  0.00  0.00    +0.000 HD
ENDBRANCH  26  28
ENDBRANCH  25  26
ENDBRANCH  22  25
ENDBRANCH   5  19
BRANCH   5  30
ATOM     30  C   UNL     1       0.919  10.080  21.124  0.00  0.00    +0.000 C 
BRANCH  30  31
ATOM     31  C   UNL     1      -0.388   9.506  21.673  0.00  0.00    +0.000 C 
BRANCH  31  32
ATOM     32  C   UNL     1      -0.693  10.076  23.035  0.00  0.00    +0.000 C 
ATOM     33  O   UNL     1      -1.613  10.836  23.292  0.00  0.00    +0.000 OA
BRANCH  32  34
ATOM     34  O   UNL     1       0.161   9.631  23.987  0.00  0.00    +0.000 OA
ATOM     35  H   UNL     1       0.010  10.006  24.875  0.00  0.00    +0.000 HD
ENDBRANCH  32  34
ENDBRANCH  31  32
ENDBRANCH  30  31
ENDBRANCH   5  30
TORSDOF 10
ENDMDL
MODEL 4
REMARK VINA RESULT:      -7.5      4.651      8.899
REMARK  Name = 
REMARK  10 active torsions:
REMARK  status: ('A' for Active; 'I' for Inactive)
REMARK    1  A    between atoms: C_2  and  C_4
REMARK    2  A    between atoms: C_7  and  C_8
REMARK    3  A    between atoms: N_12  and  C_13
REMARK    4  A    between atoms: N_12  and  C_18
REMARK    5  A    between atoms: C_13  and  C_14
REMARK    6  A    between atoms: C_14  and  C_15
REMARK    7  A    between atoms: C_15  and  O_17
REMARK    8  A    between atoms: N_21  and  C_22
REMARK    9  A    between atoms: C_22  and  C_23
REMARK   10  A    between atoms: C_23  and  O_25
REMARK                            x       y       z     vdW  Elec       q    Type
REMARK                         _______ _______ _______ _____ _____    ______ ____
ROOT
ATOM      1  C   UNL     1       2.982   6.055  18.527  0.00  0.00    +0.000 A 
ATOM      2  C   UNL     1       2.386   5.191  19.414  0.00  0.00    +0.000 A 
ATOM      3  S   UNL     1       1.495   6.077  20.577  0.00  0.00    +0.000 S 
ATOM      4  C   UNL     1       1.972   7.586  19.843  0.00  0.00    +0.000 A 
ATOM      5  N   UNL     1       1.654   8.832  20.347  0.00  0.00    +0.000 N 
ATOM      6  N   UNL     1       2.672   7.385  18.747  0.00  0.00    +0.000 NA
ENDROOT
BRANCH   1  10
ATOM      7  C   UNL     1       5.662   4.941  15.370  0.00  0.00    +0.000 A 
ATOM      8  C   UNL     1       5.390   6.285  15.625  0.00  0.00    +0.000 A 
ATOM      9  C   UNL     1       4.495   6.639  16.650  0.00  0.00    +0.000 A 
ATOM     10  C   UNL     1       3.875   5.661  17.435  0.00  0.00    +0.000 A 
ATOM     11  C   UNL     1       4.173   4.314  17.181  0.00  0.00    +0.000 A 
ATOM     12  C   UNL     1       5.055   3.952  16.157  0.00  0.00    +0.000 A 
BRANCH   7  14
ATOM     13  N   UNL     1       7.674   5.269  14.090  0.00  0.00    +0.000 NA
ATOM     14  C   UNL     1       6.613   4.558  14.283  0.00  0.00    +0.000 C 
ATOM     15  N   UNL     1       6.355   3.478  13.490  0.00  0.00    +0.000 N 
ATOM     16  H   UNL     1       8.237   4.855  13.345  0.00  0.00    +0.000 HD
ATOM     17  H   UNL     1       6.846   3.461  12.604  0.00  0.00    +0.000 HD
ATOM     18  H   UNL     1       5.374   3.245  13.374  0.00  0.00    +0.000 HD
ENDBRANCH   7  14
ENDBRANCH   1  10
BRANCH   5  19
ATOM     19  C   UNL     1       1.613  10.062  19.491  0.00  0.00    +0.000 C 
ATOM     20  C   UNL     1       0.672  11.209  19.879  0.00  0.00    +0.000 C 
ATOM     21  C   UNL     1      -0.793  10.938  19.525  0.00  0.00    +0.000 C 
ATOM     22  N   UNL     1      -1.027  10.557  18.109  0.00  0.00    +0.000 NA
ATOM     23  C   UNL     1      -0.127   9.436  17.745  0.00  0.00    +0.000 C 
ATOM     24  C   UNL     1       1.343   9.763  18.008  0.00  0.00    +0.000 C 
BRANCH  22  25
ATOM     25  C   UNL     1      -2.460  10.098  18.042  0.00  0.00    +0.000 C 
BRANCH  25  26
ATOM     26  C   UNL     1      -3.405  11.220  17.635  0.00  0.00    +0.000 C 
ATOM     27  O   UNL     1      -4.201  11.762  18.385  0.00  0.00    +0.000 OA
BRANCH  26  28
ATOM     28  O   UNL     1      -3.223  11.601  16.347  0.00  0.00    +0.000 OA
ATOM     29  H   UNL     1      -3.969  11.221  15.826  0.00  0.00    +0.000 HD
ENDBRANCH  26  28
ENDBRANCH  25  26
ENDBRANCH  22  25
ENDBRANCH   5  19
BRANCH   5  30
ATOM     30  C   UNL     1       1.275   8.976  21.776  0.00  0.00    +0.000 C 
BRANCH  30  31
ATOM     31  C   UNL     1      -0.240   8.993  21.988  0.00  0.00    +0.000 C 
BRANCH  31  32
ATOM     32  C   UNL     1      -0.608   9.856  23.167  0.00  0.00    +0.000 C 
ATOM     33  O   UNL     1      -1.506  10.683  23.184  0.00  0.00    +0.000 OA
BRANCH  32  34
ATOM     34  O   UNL     1       0.161   9.605  24.253  0.00  0.00    +0.000 OA
ATOM     35  H   UNL     1       0.366  10.390  24.795  0.00  0.00    +0.000 HD
ENDBRANCH  32  34
ENDBRANCH  31  32
ENDBRANCH  30  31
ENDBRANCH   5  30
TORSDOF 10
ENDMDL
MODEL 5
REMARK VINA RESULT:      -7.5      4.848      9.484
REMARK  Name = 
REMARK  10 active torsions:
REMARK  status: ('A' for Active; 'I' for Inactive)
REMARK    1  A    between atoms: C_2  and  C_4
REMARK    2  A    between atoms: C_7  and  C_8
REMARK    3  A    between atoms: N_12  and  C_13
REMARK    4  A    between atoms: N_12  and  C_18
REMARK    5  A    between atoms: C_13  and  C_14
REMARK    6  A    between atoms: C_14  and  C_15
REMARK    7  A    between atoms: C_15  and  O_17
REMARK    8  A    between atoms: N_21  and  C_22
REMARK    9  A    between atoms: C_22  and  C_23
REMARK   10  A    between atoms: C_23  and  O_25
REMARK                            x       y       z     vdW  Elec       q    Type
REMARK                         _______ _______ _______ _____ _____    ______ ____
ROOT
ATOM      1  C   UNL     1       3.052   6.730  18.614  0.00  0.00    +0.000 A 
ATOM      2  C   UNL     1       2.720   6.068  19.772  0.00  0.00    +0.000 A 
ATOM      3  S   UNL     1       1.712   7.059  20.738  0.00  0.00    +0.000 S 
ATOM      4  C   UNL     1       1.788   8.343  19.559  0.00  0.00    +0.000 A 
ATOM      5  N   UNL     1       1.219   9.591  19.728  0.00  0.00    +0.000 N 
ATOM      6  N   UNL     1       2.456   7.971  18.489  0.00  0.00    +0.000 NA
ENDROOT
BRANCH   1  10
ATOM      7  C   UNL     1       5.624   5.177  15.554  0.00  0.00    +0.000 A 
ATOM      8  C   UNL     1       5.140   4.342  16.561  0.00  0.00    +0.000 A 
ATOM      9  C   UNL     1       4.313   4.865  17.571  0.00  0.00    +0.000 A 
ATOM     10  C   UNL     1       3.952   6.218  17.578  0.00  0.00    +0.000 A 
ATOM     11  C   UNL     1       4.429   7.041  16.548  0.00  0.00    +0.000 A 
ATOM     12  C   UNL     1       5.261   6.531  15.544  0.00  0.00    +0.000 A 
BRANCH   7  14
ATOM     13  N   UNL     1       6.180   3.517  13.901  0.00  0.00    +0.000 NA
ATOM     14  C   UNL     1       6.503   4.627  14.478  0.00  0.00    +0.000 C 
ATOM     15  N   UNL     1       7.645   5.281  14.119  0.00  0.00    +0.000 N 
ATOM     16  H   UNL     1       6.853   3.301  13.164  0.00  0.00    +0.000 HD
ATOM     17  H   UNL     1       8.335   4.719  13.635  0.00  0.00    +0.000 HD
ATOM     18  H   UNL     1       8.072   5.846  14.846  0.00  0.00    +0.000 HD
ENDBRANCH   7  14
ENDBRANCH   1  10
BRANCH   5  19
ATOM     19  C   UNL     1       0.849  10.472  18.573  0.00  0.00    +0.000 C 
ATOM     20  C   UNL     1       0.848  11.992  18.765  0.00  0.00    +0.000 C 
ATOM     21  C   UNL     1      -0.378  12.507  19.524  0.00  0.00    +0.000 C 
ATOM     22  N   UNL     1      -1.681  12.074  18.959  0.00  0.00    +0.000 NA
ATOM     23  C   UNL     1      -1.681  10.601  18.791  0.00  0.00    +0.000 C 
ATOM     24  C   UNL     1      -0.507  10.114  17.943  0.00  0.00    +0.000 C 
BRANCH  22  25
ATOM     25  C   UNL     1      -2.719  12.468  19.978  0.00  0.00    +0.000 C 
BRANCH  25  26
ATOM     26  C   UNL     1      -4.137  12.255  19.468  0.00  0.00    +0.000 C 
ATOM     27  O   UNL     1      -5.105  12.041  20.179  0.00  0.00    +0.000 OA
BRANCH  26  28
ATOM     28  O   UNL     1      -4.222  12.392  18.122  0.00  0.00    +0.000 OA
ATOM     29  H   UNL     1      -5.009  12.958  17.940  0.00  0.00    +0.000 HD
ENDBRANCH  26  28
ENDBRANCH  25  26
ENDBRANCH  22  25
ENDBRANCH   5  19
BRANCH   5  30
ATOM     30  C   UNL     1       0.893  10.075  21.094  0.00  0.00    +0.000 C 
BRANCH  30  31
ATOM     31  C   UNL     1      -0.434   9.522  21.618  0.00  0.00    +0.000 C 
BRANCH  31  32
ATOM     32  C   UNL     1      -0.745  10.079  22.984  0.00  0.00    +0.000 C 
ATOM     33  O   UNL     1      -1.594  10.922  23.225  0.00  0.00    +0.000 OA
BRANCH  32  34
ATOM     34  O   UNL     1       0.012   9.519  23.957  0.00  0.00    +0.000 OA
ATOM     35  H   UNL     1      -0.311   8.655  24.275  0.00  0.00    +0.000 HD
ENDBRANCH  32  34
ENDBRANCH  31  32
ENDBRANCH  30  31
ENDBRANCH   5  30
TORSDOF 10
ENDMDL
MODEL 6
REMARK VINA RESULT:      -7.5      4.862      9.507
REMARK  Name = 
REMARK  10 active torsions:
REMARK  status: ('A' for Active; 'I' for Inactive)
REMARK    1  A    between atoms: C_2  and  C_4
REMARK    2  A    between atoms: C_7  and  C_8
REMARK    3  A    between atoms: N_12  and  C_13
REMARK    4  A    between atoms: N_12  and  C_18
REMARK    5  A    between atoms: C_13  and  C_14
REMARK    6  A    between atoms: C_14  and  C_15
REMARK    7  A    between atoms: C_15  and  O_17
REMARK    8  A    between atoms: N_21  and  C_22
REMARK    9  A    between atoms: C_22  and  C_23
REMARK   10  A    between atoms: C_23  and  O_25
REMARK                            x       y       z     vdW  Elec       q    Type
REMARK                         _______ _______ _______ _____ _____    ______ ____
ROOT
ATOM      1  C   UNL     1       2.981   6.472  18.576  0.00  0.00    +0.000 A 
ATOM      2  C   UNL     1       2.589   5.756  19.682  0.00  0.00    +0.000 A 
ATOM      3  S   UNL     1       1.655   6.750  20.716  0.00  0.00    +0.000 S 
ATOM      4  C   UNL     1       1.840   8.106  19.634  0.00  0.00    +0.000 A 
ATOM      5  N   UNL     1       1.369   9.379  19.893  0.00  0.00    +0.000 N 
ATOM      6  N   UNL     1       2.485   7.762  18.541  0.00  0.00    +0.000 NA
ENDROOT
BRANCH   1  10
ATOM      7  C   UNL     1       5.586   5.032  15.489  0.00  0.00    +0.000 A 
ATOM      8  C   UNL     1       5.434   6.402  15.704  0.00  0.00    +0.000 A 
ATOM      9  C   UNL     1       4.564   6.864  16.707  0.00  0.00    +0.000 A 
ATOM     10  C   UNL     1       3.847   5.968  17.508  0.00  0.00    +0.000 A 
ATOM     11  C   UNL     1       4.024   4.593  17.294  0.00  0.00    +0.000 A 
ATOM     12  C   UNL     1       4.881   4.124  16.292  0.00  0.00    +0.000 A 
BRANCH   7  14
ATOM     13  N   UNL     1       6.243   3.425  13.822  0.00  0.00    +0.000 NA
ATOM     14  C   UNL     1       6.510   4.535  14.426  0.00  0.00    +0.000 C 
ATOM     15  N   UNL     1       7.637   5.236  14.107  0.00  0.00    +0.000 N 
ATOM     16  H   UNL     1       6.941   3.247  13.098  0.00  0.00    +0.000 HD
ATOM     17  H   UNL     1       8.358   4.709  13.631  0.00  0.00    +0.000 HD
ATOM     18  H   UNL     1       8.025   5.803  14.855  0.00  0.00    +0.000 HD
ENDBRANCH   7  14
ENDBRANCH   1  10
BRANCH   5  19
ATOM     19  C   UNL     1       1.078  10.369  18.805  0.00  0.00    +0.000 C 
ATOM     20  C   UNL     1       1.148  11.867  19.121  0.00  0.00    +0.000 C 
ATOM     21  C   UNL     1      -0.073  12.382  19.888  0.00  0.00    +0.000 C 
ATOM     22  N   UNL     1      -1.379  12.066  19.256  0.00  0.00    +0.000 NA
ATOM     23  C   UNL     1      -1.448  10.612  18.968  0.00  0.00    +0.000 C 
ATOM     24  C   UNL     1      -0.275  10.134  18.114  0.00  0.00    +0.000 C 
BRANCH  22  25
ATOM     25  C   UNL     1      -2.425  12.430  20.277  0.00  0.00    +0.000 C 
BRANCH  25  26
ATOM     26  C   UNL     1      -2.176  13.799  20.894  0.00  0.00    +0.000 C 
ATOM     27  O   UNL     1      -1.696  13.984  22.000  0.00  0.00    +0.000 OA
BRANCH  26  28
ATOM     28  O   UNL     1      -2.492  14.807  20.045  0.00  0.00    +0.000 OA
ATOM     29  H   UNL     1      -1.875  14.742  19.278  0.00  0.00    +0.000 HD
ENDBRANCH  26  28
ENDBRANCH  25  26
ENDBRANCH  22  25
ENDBRANCH   5  19
BRANCH   5  30
ATOM     30  C   UNL     1       1.071   9.787  21.291  0.00  0.00    +0.000 C 
BRANCH  30  31
ATOM     31  C   UNL     1      -0.284   9.272  21.781  0.00  0.00    +0.000 C 
BRANCH  31  32
ATOM     32  C   UNL     1      -0.655   9.910  23.096  0.00  0.00    +0.000 C 
ATOM     33  O   UNL     1      -1.505  10.773  23.246  0.00  0.00    +0.000 OA
BRANCH  32  34
ATOM     34  O   UNL     1       0.047   9.401  24.136  0.00  0.00    +0.000 OA
ATOM     35  H   UNL     1       1.016   9.429  24.023  0.00  0.00    +0.000 HD
ENDBRANCH  32  34
ENDBRANCH  31  32
ENDBRANCH  30  31
ENDBRANCH   5  30
TORSDOF 10
ENDMDL
MODEL 7
REMARK VINA RESULT:      -7.3      4.418      8.703
REMARK  Name = 
REMARK  10 active torsions:
REMARK  status: ('A' for Active; 'I' for Inactive)
REMARK    1  A    between atoms: C_2  and  C_4
REMARK    2  A    between atoms: C_7  and  C_8
REMARK    3  A    between atoms: N_12  and  C_13
REMARK    4  A    between atoms: N_12  and  C_18
REMARK    5  A    between atoms: C_13  and  C_14
REMARK    6  A    between atoms: C_14  and  C_15
REMARK    7  A    between atoms: C_15  and  O_17
REMARK    8  A    between atoms: N_21  and  C_22
REMARK    9  A    between atoms: C_22  and  C_23
REMARK   10  A    between atoms: C_23  and  O_25
REMARK                            x       y       z     vdW  Elec       q    Type
REMARK                         _______ _______ _______ _____ _____    ______ ____
ROOT
ATOM      1  C   UNL     1       3.176   6.265  18.625  0.00  0.00    +0.000 A 
ATOM      2  C   UNL     1       3.043   5.593  19.817  0.00  0.00    +0.000 A 
ATOM      3  S   UNL     1       2.061   6.501  20.887  0.00  0.00    +0.000 S 
ATOM      4  C   UNL     1       1.880   7.767  19.700  0.00  0.00    +0.000 A 
ATOM      5  N   UNL     1       1.216   8.957  19.927  0.00  0.00    +0.000 N 
ATOM      6  N   UNL     1       2.454   7.442  18.562  0.00  0.00    +0.000 NA
ENDROOT
BRANCH   1  10
ATOM      7  C   UNL     1       5.653   5.006  15.359  0.00  0.00    +0.000 A 
ATOM      8  C   UNL     1       5.505   6.362  15.652  0.00  0.00    +0.000 A 
ATOM      9  C   UNL     1       4.676   6.765  16.714  0.00  0.00    +0.000 A 
ATOM     10  C   UNL     1       3.998   5.823  17.496  0.00  0.00    +0.000 A 
ATOM     11  C   UNL     1       4.172   4.462  17.203  0.00  0.00    +0.000 A 
ATOM     12  C   UNL     1       4.987   4.053  16.142  0.00  0.00    +0.000 A 
BRANCH   7  14
ATOM     13  N   UNL     1       7.612   5.234  13.979  0.00  0.00    +0.000 NA
ATOM     14  C   UNL     1       6.534   4.571  14.232  0.00  0.00    +0.000 C 
ATOM     15  N   UNL     1       6.193   3.494  13.467  0.00  0.00    +0.000 N 
ATOM     16  H   UNL     1       8.122   4.788  13.214  0.00  0.00    +0.000 HD
ATOM     17  H   UNL     1       6.639   3.446  12.559  0.00  0.00    +0.000 HD
ATOM     18  H   UNL     1       5.199   3.301  13.401  0.00  0.00    +0.000 HD
ENDBRANCH   7  14
ENDBRANCH   1  10
BRANCH   5  19
ATOM     19  C   UNL     1       0.635   9.780  18.816  0.00  0.00    +0.000 C 
ATOM     20  C   UNL     1       1.538  10.207  17.653  0.00  0.00    +0.000 C 
ATOM     21  C   UNL     1       2.467  11.373  18.004  0.00  0.00    +0.000 C 
ATOM     22  N   UNL     1       1.781  12.563  18.567  0.00  0.00    +0.000 NA
ATOM     23  C   UNL     1       0.922  12.146  19.702  0.00  0.00    +0.000 C 
ATOM     24  C   UNL     1      -0.071  11.054  19.308  0.00  0.00    +0.000 C 
BRANCH  22  25
ATOM     25  C   UNL     1       2.877  13.468  19.066  0.00  0.00    +0.000 C 
BRANCH  25  26
ATOM     26  C   UNL     1       2.948  14.772  18.284  0.00  0.00    +0.000 C 
ATOM     27  O   UNL     1       2.164  15.698  18.407  0.00  0.00    +0.000 OA
BRANCH  26  28
ATOM     28  O   UNL     1       4.030  14.820  17.468  0.00  0.00    +0.000 OA
ATOM     29  H   UNL     1       4.142  15.761  17.194  0.00  0.00    +0.000 HD
ENDBRANCH  26  28
ENDBRANCH  25  26
ENDBRANCH  22  25
ENDBRANCH   5  19
BRANCH   5  30
ATOM     30  C   UNL     1       1.003   9.431  21.319  0.00  0.00    +0.000 C 
BRANCH  30  31
ATOM     31  C   UNL     1      -0.384   9.078  21.858  0.00  0.00    +0.000 C 
BRANCH  31  32
ATOM     32  C   UNL     1      -0.671   9.829  23.133  0.00  0.00    +0.000 C 
ATOM     33  O   UNL     1      -1.510  10.705  23.263  0.00  0.00    +0.000 OA
BRANCH  32  34
ATOM     34  O   UNL     1       0.099   9.411  24.165  0.00  0.00    +0.000 OA
ATOM     35  H   UNL     1      -0.253   9.629  25.049  0.00  0.00    +0.000 HD
ENDBRANCH  32  34
ENDBRANCH  31  32
ENDBRANCH  30  31
ENDBRANCH   5  30
TORSDOF 10
ENDMDL
MODEL 8
REMARK VINA RESULT:      -7.3      4.868      9.454
REMARK  Name = 
REMARK  10 active torsions:
REMARK  status: ('A' for Active; 'I' for Inactive)
REMARK    1  A    between atoms: C_2  and  C_4
REMARK    2  A    between atoms: C_7  and  C_8
REMARK    3  A    between atoms: N_12  and  C_13
REMARK    4  A    between atoms: N_12  and  C_18
REMARK    5  A    between atoms: C_13  and  C_14
REMARK    6  A    between atoms: C_14  and  C_15
REMARK    7  A    between atoms: C_15  and  O_17
REMARK    8  A    between atoms: N_21  and  C_22
REMARK    9  A    between atoms: C_22  and  C_23
REMARK   10  A    between atoms: C_23  and  O_25
REMARK                            x       y       z     vdW  Elec       q    Type
REMARK                         _______ _______ _______ _____ _____    ______ ____
ROOT
ATOM      1  C   UNL     1       2.767   7.073  18.834  0.00  0.00    +0.000 A 
ATOM      2  C   UNL     1       2.430   6.547  20.059  0.00  0.00    +0.000 A 
ATOM      3  S   UNL     1       1.397   7.629  20.891  0.00  0.00    +0.000 S 
ATOM      4  C   UNL     1       1.470   8.767  19.570  0.00  0.00    +0.000 A 
ATOM      5  N   UNL     1       0.881  10.017  19.586  0.00  0.00    +0.000 N 
ATOM      6  N   UNL     1       2.155   8.282  18.558  0.00  0.00    +0.000 NA
ENDROOT
BRANCH   1  10
ATOM      7  C   UNL     1       5.390   5.236  15.983  0.00  0.00    +0.000 A 
ATOM      8  C   UNL     1       4.561   4.454  16.786  0.00  0.00    +0.000 A 
ATOM      9  C   UNL     1       3.718   5.065  17.731  0.00  0.00    +0.000 A 
ATOM     10  C   UNL     1       3.687   6.457  17.875  0.00  0.00    +0.000 A 
ATOM     11  C   UNL     1       4.511   7.233  17.047  0.00  0.00    +0.000 A 
ATOM     12  C   UNL     1       5.360   6.632  16.110  0.00  0.00    +0.000 A 
BRANCH   7  14
ATOM     13  N   UNL     1       6.006   3.411  14.540  0.00  0.00    +0.000 NA
ATOM     14  C   UNL     1       6.288   4.593  14.976  0.00  0.00    +0.000 C 
ATOM     15  N   UNL     1       7.405   5.240  14.533  0.00  0.00    +0.000 N 
ATOM     16  H   UNL     1       6.686   3.132  13.830  0.00  0.00    +0.000 HD
ATOM     17  H   UNL     1       8.114   4.650  14.117  0.00  0.00    +0.000 HD
ATOM     18  H   UNL     1       7.811   5.905  15.184  0.00  0.00    +0.000 HD
ENDBRANCH   7  14
ENDBRANCH   1  10
BRANCH   5  19
ATOM     19  C   UNL     1       0.512  10.750  18.331  0.00  0.00    +0.000 C 
ATOM     20  C   UNL     1       0.096  12.223  18.423  0.00  0.00    +0.000 C 
ATOM     21  C   UNL     1      -1.335  12.417  18.934  0.00  0.00    +0.000 C 
ATOM     22  N   UNL     1      -2.366  11.652  18.188  0.00  0.00    +0.000 NA
ATOM     23  C   UNL     1      -1.966  10.226  18.117  0.00  0.00    +0.000 C 
ATOM     24  C   UNL     1      -0.577  10.042  17.509  0.00  0.00    +0.000 C 
BRANCH  22  25
ATOM     25  C   UNL     1      -3.633  11.783  18.993  0.00  0.00    +0.000 C 
BRANCH  25  26
ATOM     26  C   UNL     1      -4.879  11.584  18.142  0.00  0.00    +0.000 C 
ATOM     27  O   UNL     1      -5.173  12.265  17.173  0.00  0.00    +0.000 OA
BRANCH  26  28
ATOM     28  O   UNL     1      -5.607  10.514  18.544  0.00  0.00    +0.000 OA
ATOM     29  H   UNL     1      -6.085  10.783  19.363  0.00  0.00    +0.000 HD
ENDBRANCH  26  28
ENDBRANCH  25  26
ENDBRANCH  22  25
ENDBRANCH   5  19
BRANCH   5  30
ATOM     30  C   UNL     1       0.532  10.653  20.882  0.00  0.00    +0.000 C 
BRANCH  30  31
ATOM     31  C   UNL     1      -0.628   9.952  21.592  0.00  0.00    +0.000 C 
BRANCH  31  32
ATOM     32  C   UNL     1      -0.566  10.187  23.080  0.00  0.00    +0.000 C 
ATOM     33  O   UNL     1       0.176   9.605  23.856  0.00  0.00    +0.000 OA
BRANCH  32  34
ATOM     34  O   UNL     1      -1.421  11.153  23.489  0.00  0.00    +0.000 OA
ATOM     35  H   UNL     1      -1.013  11.852  24.034  0.00  0.00    +0.000 HD
ENDBRANCH  32  34
ENDBRANCH  31  32
ENDBRANCH  30  31
ENDBRANCH   5  30
TORSDOF 10
ENDMDL
MODEL 9
REMARK VINA RESULT:      -7.2      4.942      9.524
REMARK  Name = 
REMARK  10 active torsions:
REMARK  status: ('A' for Active; 'I' for Inactive)
REMARK    1  A    between atoms: C_2  and  C_4
REMARK    2  A    between atoms: C_7  and  C_8
REMARK    3  A    between atoms: N_12  and  C_13
REMARK    4  A    between atoms: N_12  and  C_18
REMARK    5  A    between atoms: C_13  and  C_14
REMARK    6  A    between atoms: C_14  and  C_15
REMARK    7  A    between atoms: C_15  and  O_17
REMARK    8  A    between atoms: N_21  and  C_22
REMARK    9  A    between atoms: C_22  and  C_23
REMARK   10  A    between atoms: C_23  and  O_25
REMARK                            x       y       z     vdW  Elec       q    Type
REMARK                         _______ _______ _______ _____ _____    ______ ____
ROOT
ATOM      1  C   UNL     1       2.558   7.070  18.945  0.00  0.00    +0.000 A 
ATOM      2  C   UNL     1       2.198   6.565  20.172  0.00  0.00    +0.000 A 
ATOM      3  S   UNL     1       1.225   7.702  21.005  0.00  0.00    +0.000 S 
ATOM      4  C   UNL     1       1.352   8.830  19.680  0.00  0.00    +0.000 A 
ATOM      5  N   UNL     1       0.828  10.109  19.694  0.00  0.00    +0.000 N 
ATOM      6  N   UNL     1       2.008   8.308  18.667  0.00  0.00    +0.000 NA
ENDROOT
BRANCH   1  10
ATOM      7  C   UNL     1       5.214   5.152  16.179  0.00  0.00    +0.000 A 
ATOM      8  C   UNL     1       5.210   6.541  16.307  0.00  0.00    +0.000 A 
ATOM      9  C   UNL     1       4.322   7.161  17.204  0.00  0.00    +0.000 A 
ATOM     10  C   UNL     1       3.441   6.404  17.985  0.00  0.00    +0.000 A 
ATOM     11  C   UNL     1       3.470   5.008  17.861  0.00  0.00    +0.000 A 
ATOM     12  C   UNL     1       4.344   4.383  16.964  0.00  0.00    +0.000 A 
BRANCH   7  14
ATOM     13  N   UNL     1       6.235   3.198  15.212  0.00  0.00    +0.000 NA
ATOM     14  C   UNL     1       6.156   4.487  15.229  0.00  0.00    +0.000 C 
ATOM     15  N   UNL     1       6.940   5.234  14.397  0.00  0.00    +0.000 N 
ATOM     16  H   UNL     1       6.886   2.900  14.484  0.00  0.00    +0.000 HD
ATOM     17  H   UNL     1       7.754   4.761  14.024  0.00  0.00    +0.000 HD
ATOM     18  H   UNL     1       7.173   6.162  14.734  0.00  0.00    +0.000 HD
ENDBRANCH   7  14
ENDBRANCH   1  10
BRANCH   5  19
ATOM     19  C   UNL     1       0.494  10.857  18.438  0.00  0.00    +0.000 C 
ATOM     20  C   UNL     1       0.092  12.333  18.534  0.00  0.00    +0.000 C 
ATOM     21  C   UNL     1      -1.346  12.540  19.017  0.00  0.00    +0.000 C 
ATOM     22  N   UNL     1      -2.371  11.793  18.244  0.00  0.00    +0.000 NA
ATOM     23  C   UNL     1      -1.986  10.362  18.169  0.00  0.00    +0.000 C 
ATOM     24  C   UNL     1      -0.586  10.168  17.588  0.00  0.00    +0.000 C 
BRANCH  22  25
ATOM     25  C   UNL     1      -3.652  11.932  19.023  0.00  0.00    +0.000 C 
BRANCH  25  26
ATOM     26  C   UNL     1      -4.881  11.667  18.164  0.00  0.00    +0.000 C 
ATOM     27  O   UNL     1      -4.997  12.006  16.998  0.00  0.00    +0.000 OA
BRANCH  26  28
ATOM     28  O   UNL     1      -5.822  10.949  18.824  0.00  0.00    +0.000 OA
ATOM     29  H   UNL     1      -5.460  10.039  18.940  0.00  0.00    +0.000 HD
ENDBRANCH  26  28
ENDBRANCH  25  26
ENDBRANCH  22  25
ENDBRANCH   5  19
BRANCH   5  30
ATOM     30  C   UNL     1       0.517  10.766  20.990  0.00  0.00    +0.000 C 
BRANCH  30  31
ATOM     31  C   UNL     1      -0.827  10.322  21.570  0.00  0.00    +0.000 C 
BRANCH  31  32
ATOM     32  C   UNL     1      -0.914  10.656  23.038  0.00  0.00    +0.000 C 
ATOM     33  O   UNL     1      -1.714  11.429  23.539  0.00  0.00    +0.000 OA
BRANCH  32  34
ATOM     34  O   UNL     1      -0.006   9.978  23.778  0.00  0.00    +0.000 OA
ATOM     35  H   UNL     1       0.274  10.434  24.594  0.00  0.00    +0.000 HD
ENDBRANCH  32  34
ENDBRANCH  31  32
ENDBRANCH  30  31
ENDBRANCH   5  30
TORSDOF 10
ENDMDL
