MODEL 1
REMARK VINA RESULT:      -8.5      0.000      0.000
REMARK  Name = 
REMARK  8 active torsions:
REMARK  status: ('A' for Active; 'I' for Inactive)
REMARK    1  A    between atoms: C_1  and  C_2
REMARK    2  A    between atoms: C_2  and  N_3
REMARK    3  A    between atoms: N_3  and  C_4
REMARK    4  A    between atoms: N_3  and  C_5
REMARK    5  A    between atoms: C_7  and  C_8
REMARK    6  A    between atoms: C_12  and  C_13
REMARK    7  A    between atoms: C_17  and  C_18
REMARK    8  A    between atoms: N_20  and  C_21
REMARK                            x       y       z     vdW  Elec       q    Type
REMARK                         _______ _______ _______ _____ _____    ______ ____
ROOT
ATOM      1  C   UNL     1       3.780   4.688  17.402  0.00  0.00    +0.000 A 
ATOM      2  N   UNL     1       4.419   4.289  16.274  0.00  0.00    +0.000 NA
ATOM      3  C   UNL     1       5.110   5.202  15.558  0.00  0.00    +0.000 A 
ATOM      4  N   UNL     1       5.189   6.505  15.875  0.00  0.00    +0.000 NA
ATOM      5  C   UNL     1       4.522   6.886  16.977  0.00  0.00    +0.000 A 
ATOM      6  C   UNL     1       3.827   6.025  17.804  0.00  0.00    +0.000 A 
ENDROOT
BRANCH   3   7
ATOM      7  C   UNL     1       5.871   4.747  14.377  0.00  0.00    +0.000 A 
ATOM      8  C   UNL     1       7.120   5.302  14.049  0.00  0.00    +0.000 A 
ATOM      9  C   UNL     1       7.825   4.885  12.915  0.00  0.00    +0.000 A 
ATOM     10  C   UNL     1       7.297   3.903  12.081  0.00  0.00    +0.000 A 
ATOM     11  C   UNL     1       6.061   3.323  12.373  0.00  0.00    +0.000 A 
ATOM     12  C   UNL     1       5.464   2.281  11.474  0.00  0.00    +0.000 C 
ATOM     13  C   UNL     1       5.362   3.750  13.514  0.00  0.00    +0.000 A 
ENDBRANCH   3   7
BRANCH   6  14
ATOM     14  C   UNL     1       3.121   6.567  18.989  0.00  0.00    +0.000 C 
ATOM     15  O   UNL     1       3.211   5.980  20.060  0.00  0.00    +0.000 OA
ATOM     16  N   UNL     1       2.377   7.723  18.764  0.00  0.00    +0.000 N 
ATOM     17  H   UNL     1       2.392   8.135  17.841  0.00  0.00    +0.000 HD
BRANCH  16  18
ATOM     18  C   UNL     1       1.595   8.419  19.714  0.00  0.00    +0.000 A 
ATOM     19  C   UNL     1       1.380   7.973  21.021  0.00  0.00    +0.000 A 
ATOM     20  C   UNL     1       0.601   8.715  21.909  0.00  0.00    +0.000 A 
ATOM     21  C   UNL     1       0.032   9.907  21.485  0.00  0.00    +0.000 A 
ATOM     22  F   UNL     1      -0.718  10.618  22.341  0.00  0.00    +0.000 F 
ATOM     23  C   UNL     1       0.228  10.369  20.195  0.00  0.00    +0.000 A 
ATOM     24  C   UNL     1       1.012   9.631  19.306  0.00  0.00    +0.000 A 
ENDBRANCH  16  18
ENDBRANCH   6  14
BRANCH   1  25
ATOM     25  N   UNL     1       3.116   3.701  18.168  0.00  0.00    +0.000 N 
ATOM     26  C   UNL     1       3.912   2.477  18.261  0.00  0.00    +0.000 C 
BRANCH  25  28
ATOM     27  C   UNL     1       0.930   2.836  18.950  0.00  0.00    +0.000 C 
ATOM     28  C   UNL     1       1.695   3.534  17.829  0.00  0.00    +0.000 C 
ENDBRANCH  25  28
ENDBRANCH   1  25
TORSDOF 5
ENDMDL
MODEL 2
REMARK VINA RESULT:      -8.2      1.016      1.163
REMARK  Name = 
REMARK  8 active torsions:
REMARK  status: ('A' for Active; 'I' for Inactive)
REMARK    1  A    between atoms: C_1  and  C_2
REMARK    2  A    between atoms: C_2  and  N_3
REMARK    3  A    between atoms: N_3  and  C_4
REMARK    4  A    between atoms: N_3  and  C_5
REMARK    5  A    between atoms: C_7  and  C_8
REMARK    6  A    between atoms: C_12  and  C_13
REMARK    7  A    between atoms: C_17  and  C_18
REMARK    8  A    between atoms: N_20  and  C_21
REMARK                            x       y       z     vdW  Elec       q    Type
REMARK                         _______ _______ _______ _____ _____    ______ ____
ROOT
ATOM      1  C   UNL     1       3.138   4.924  18.267  0.00  0.00    +0.000 A 
ATOM      2  N   UNL     1       3.894   4.546  17.207  0.00  0.00    +0.000 NA
ATOM      3  C   UNL     1       4.595   5.486  16.538  0.00  0.00    +0.000 A 
ATOM      4  N   UNL     1       4.575   6.796  16.837  0.00  0.00    +0.000 NA
ATOM      5  C   UNL     1       3.795   7.153  17.869  0.00  0.00    +0.000 A 
ATOM      6  C   UNL     1       3.077   6.266  18.648  0.00  0.00    +0.000 A 
ENDROOT
BRANCH   3   7
ATOM      7  C   UNL     1       5.481   5.059  15.436  0.00  0.00    +0.000 A 
ATOM      8  C   UNL     1       6.849   5.379  15.426  0.00  0.00    +0.000 A 
ATOM      9  C   UNL     1       7.678   4.994  14.368  0.00  0.00    +0.000 A 
ATOM     10  C   UNL     1       7.158   4.277  13.292  0.00  0.00    +0.000 A 
ATOM     11  C   UNL     1       5.805   3.936  13.265  0.00  0.00    +0.000 A 
ATOM     12  C   UNL     1       5.221   3.186  12.104  0.00  0.00    +0.000 C 
ATOM     13  C   UNL     1       4.982   4.329  14.333  0.00  0.00    +0.000 A 
ENDBRANCH   3   7
BRANCH   6  14
ATOM     14  C   UNL     1       2.241   6.784  19.757  0.00  0.00    +0.000 C 
ATOM     15  O   UNL     1       1.863   6.014  20.631  0.00  0.00    +0.000 OA
ATOM     16  N   UNL     1       1.933   8.141  19.690  0.00  0.00    +0.000 N 
ATOM     17  H   UNL     1       2.319   8.686  18.931  0.00  0.00    +0.000 HD
BRANCH  16  18
ATOM     18  C   UNL     1       1.136   8.869  20.601  0.00  0.00    +0.000 A 
ATOM     19  C   UNL     1       1.205   8.718  21.989  0.00  0.00    +0.000 A 
ATOM     20  C   UNL     1       0.390   9.476  22.830  0.00  0.00    +0.000 A 
ATOM     21  C   UNL     1      -0.500  10.386  22.281  0.00  0.00    +0.000 A 
ATOM     22  F   UNL     1      -1.284  11.112  23.093  0.00  0.00    +0.000 F 
ATOM     23  C   UNL     1      -0.590  10.552  20.909  0.00  0.00    +0.000 A 
ATOM     24  C   UNL     1       0.228   9.799  20.065  0.00  0.00    +0.000 A 
ENDBRANCH  16  18
ENDBRANCH   6  14
BRANCH   1  25
ATOM     25  N   UNL     1       2.463   3.911  18.990  0.00  0.00    +0.000 N 
ATOM     26  C   UNL     1       3.403   2.928  19.529  0.00  0.00    +0.000 C 
BRANCH  25  28
ATOM     27  C   UNL     1       0.736   2.135  19.011  0.00  0.00    +0.000 C 
ATOM     28  C   UNL     1       1.276   3.377  18.308  0.00  0.00    +0.000 C 
ENDBRANCH  25  28
ENDBRANCH   1  25
TORSDOF 5
ENDMDL
MODEL 3
REMARK VINA RESULT:      -8.0      1.268      1.836
REMARK  Name = 
REMARK  8 active torsions:
REMARK  status: ('A' for Active; 'I' for Inactive)
REMARK    1  A    between atoms: C_1  and  C_2
REMARK    2  A    between atoms: C_2  and  N_3
REMARK    3  A    between atoms: N_3  and  C_4
REMARK    4  A    between atoms: N_3  and  C_5
REMARK    5  A    between atoms: C_7  and  C_8
REMARK    6  A    between atoms: C_12  and  C_13
REMARK    7  A    between atoms: C_17  and  C_18
REMARK    8  A    between atoms: N_20  and  C_21
REMARK                            x       y       z     vdW  Elec       q    Type
REMARK                         _______ _______ _______ _____ _____    ______ ____
ROOT
ATOM      1  C   UNL     1       2.989   5.146  18.666  0.00  0.00    +0.000 A 
ATOM      2  N   UNL     1       3.784   4.732  17.649  0.00  0.00    +0.000 NA
ATOM      3  C   UNL     1       4.440   5.656  16.915  0.00  0.00    +0.000 A 
ATOM      4  N   UNL     1       4.339   6.982  17.109  0.00  0.00    +0.000 NA
ATOM      5  C   UNL     1       3.522   7.373  18.100  0.00  0.00    +0.000 A 
ATOM      6  C   UNL     1       2.844   6.509  18.938  0.00  0.00    +0.000 A 
ENDROOT
BRANCH   3   7
ATOM      7  C   UNL     1       5.367   5.197  15.862  0.00  0.00    +0.000 A 
ATOM      8  C   UNL     1       6.751   5.420  15.952  0.00  0.00    +0.000 A 
ATOM      9  C   UNL     1       7.622   5.005  14.939  0.00  0.00    +0.000 A 
ATOM     10  C   UNL     1       7.128   4.356  13.810  0.00  0.00    +0.000 A 
ATOM     11  C   UNL     1       5.760   4.111  13.682  0.00  0.00    +0.000 A 
ATOM     12  C   UNL     1       5.206   3.436  12.463  0.00  0.00    +0.000 C 
ATOM     13  C   UNL     1       4.896   4.533  14.706  0.00  0.00    +0.000 A 
ENDBRANCH   3   7
BRANCH   6  14
ATOM     14  C   UNL     1       1.961   7.062  19.993  0.00  0.00    +0.000 C 
ATOM     15  O   UNL     1       1.508   6.312  20.849  0.00  0.00    +0.000 OA
ATOM     16  N   UNL     1       1.701   8.427  19.898  0.00  0.00    +0.000 N 
ATOM     17  H   UNL     1       2.147   8.953  19.159  0.00  0.00    +0.000 HD
BRANCH  16  18
ATOM     18  C   UNL     1       0.874   9.187  20.756  0.00  0.00    +0.000 A 
ATOM     19  C   UNL     1      -0.000  10.183  20.312  0.00  0.00    +0.000 A 
ATOM     20  C   UNL     1      -0.793  10.891  21.216  0.00  0.00    +0.000 A 
ATOM     21  C   UNL     1      -0.707  10.604  22.570  0.00  0.00    +0.000 A 
ATOM     22  F   UNL     1      -1.469  11.288  23.437  0.00  0.00    +0.000 F 
ATOM     23  C   UNL     1       0.153   9.624  23.035  0.00  0.00    +0.000 A 
ATOM     24  C   UNL     1       0.943   8.909  22.132  0.00  0.00    +0.000 A 
ENDBRANCH  16  18
ENDBRANCH   6  14
BRANCH   1  25
ATOM     25  N   UNL     1       2.363   4.156  19.460  0.00  0.00    +0.000 N 
ATOM     26  C   UNL     1       3.345   3.234  20.031  0.00  0.00    +0.000 C 
BRANCH  25  28
ATOM     27  C   UNL     1       1.289   2.026  18.790  0.00  0.00    +0.000 C 
ATOM     28  C   UNL     1       1.179   3.547  18.835  0.00  0.00    +0.000 C 
ENDBRANCH  25  28
ENDBRANCH   1  25
TORSDOF 5
ENDMDL
MODEL 4
REMARK VINA RESULT:      -7.8      3.424      8.575
REMARK  Name = 
REMARK  8 active torsions:
REMARK  status: ('A' for Active; 'I' for Inactive)
REMARK    1  A    between atoms: C_1  and  C_2
REMARK    2  A    between atoms: C_2  and  N_3
REMARK    3  A    between atoms: N_3  and  C_4
REMARK    4  A    between atoms: N_3  and  C_5
REMARK    5  A    between atoms: C_7  and  C_8
REMARK    6  A    between atoms: C_12  and  C_13
REMARK    7  A    between atoms: C_17  and  C_18
REMARK    8  A    between atoms: N_20  and  C_21
REMARK                            x       y       z     vdW  Elec       q    Type
REMARK                         _______ _______ _______ _____ _____    ______ ____
ROOT
ATOM      1  C   UNL     1       3.432   5.133  18.101  0.00  0.00    +0.000 A 
ATOM      2  N   UNL     1       2.659   5.919  18.891  0.00  0.00    +0.000 NA
ATOM      3  C   UNL     1       2.719   7.259  18.736  0.00  0.00    +0.000 A 
ATOM      4  N   UNL     1       3.524   7.881  17.858  0.00  0.00    +0.000 NA
ATOM      5  C   UNL     1       4.304   7.087  17.108  0.00  0.00    +0.000 A 
ATOM      6  C   UNL     1       4.285   5.706  17.155  0.00  0.00    +0.000 A 
ENDROOT
BRANCH   3   7
ATOM      7  C   UNL     1       1.816   8.106  19.541  0.00  0.00    +0.000 A 
ATOM      8  C   UNL     1       1.485   7.775  20.866  0.00  0.00    +0.000 A 
ATOM      9  C   UNL     1       0.611   8.568  21.617  0.00  0.00    +0.000 A 
ATOM     10  C   UNL     1       0.045   9.712  21.059  0.00  0.00    +0.000 A 
ATOM     11  C   UNL     1       0.350  10.078  19.747  0.00  0.00    +0.000 A 
ATOM     12  C   UNL     1      -0.268  11.293  19.120  0.00  0.00    +0.000 C 
ATOM     13  C   UNL     1       1.229   9.275  19.003  0.00  0.00    +0.000 A 
ENDBRANCH   3   7
BRANCH   6  14
ATOM     14  C   UNL     1       5.204   4.937  16.282  0.00  0.00    +0.000 C 
ATOM     15  O   UNL     1       6.115   4.295  16.791  0.00  0.00    +0.000 OA
ATOM     16  N   UNL     1       4.953   5.035  14.916  0.00  0.00    +0.000 N 
ATOM     17  H   UNL     1       4.157   5.578  14.609  0.00  0.00    +0.000 HD
BRANCH  16  18
ATOM     18  C   UNL     1       5.694   4.426  13.878  0.00  0.00    +0.000 A 
ATOM     19  C   UNL     1       7.027   4.732  13.591  0.00  0.00    +0.000 A 
ATOM     20  C   UNL     1       7.699   4.086  12.554  0.00  0.00    +0.000 A 
ATOM     21  C   UNL     1       7.034   3.132  11.798  0.00  0.00    +0.000 A 
ATOM     22  F   UNL     1       7.683   2.514  10.800  0.00  0.00    +0.000 F 
ATOM     23  C   UNL     1       5.713   2.813  12.060  0.00  0.00    +0.000 A 
ATOM     24  C   UNL     1       5.038   3.454  13.102  0.00  0.00    +0.000 A 
ENDBRANCH  16  18
ENDBRANCH   6  14
BRANCH   1  25
ATOM     25  N   UNL     1       3.304   3.731  18.238  0.00  0.00    +0.000 N 
ATOM     26  C   UNL     1       1.917   3.303  18.051  0.00  0.00    +0.000 C 
BRANCH  25  28
ATOM     27  C   UNL     1       3.030   2.684  20.468  0.00  0.00    +0.000 C 
ATOM     28  C   UNL     1       4.008   3.176  19.404  0.00  0.00    +0.000 C 
ENDBRANCH  25  28
ENDBRANCH   1  25
TORSDOF 5
ENDMDL
MODEL 5
REMARK VINA RESULT:      -7.7      4.008     10.561
REMARK  Name = 
REMARK  8 active torsions:
REMARK  status: ('A' for Active; 'I' for Inactive)
REMARK    1  A    between atoms: C_1  and  C_2
REMARK    2  A    between atoms: C_2  and  N_3
REMARK    3  A    between atoms: N_3  and  C_4
REMARK    4  A    between atoms: N_3  and  C_5
REMARK    5  A    between atoms: C_7  and  C_8
REMARK    6  A    between atoms: C_12  and  C_13
REMARK    7  A    between atoms: C_17  and  C_18
REMARK    8  A    between atoms: N_20  and  C_21
REMARK                            x       y       z     vdW  Elec       q    Type
REMARK                         _______ _______ _______ _____ _____    ______ ____
ROOT
ATOM      1  C   UNL     1      -0.616  10.768  19.363  0.00  0.00    +0.000 A 
ATOM      2  N   UNL     1      -1.282  11.487  20.301  0.00  0.00    +0.000 NA
ATOM      3  C   UNL     1      -0.740  11.612  21.532  0.00  0.00    +0.000 A 
ATOM      4  N   UNL     1       0.417  11.042  21.907  0.00  0.00    +0.000 NA
ATOM      5  C   UNL     1       1.043  10.308  20.974  0.00  0.00    +0.000 A 
ATOM      6  C   UNL     1       0.600  10.156  19.674  0.00  0.00    +0.000 A 
ENDROOT
BRANCH   3   7
ATOM      7  C   UNL     1      -1.427  12.463  22.524  0.00  0.00    +0.000 A 
ATOM      8  C   UNL     1      -0.879  13.685  22.949  0.00  0.00    +0.000 A 
ATOM      9  C   UNL     1      -1.521  14.476  23.908  0.00  0.00    +0.000 A 
ATOM     10  C   UNL     1      -2.728  14.062  24.465  0.00  0.00    +0.000 A 
ATOM     11  C   UNL     1      -3.309  12.856  24.068  0.00  0.00    +0.000 A 
ATOM     12  C   UNL     1      -4.596  12.382  24.674  0.00  0.00    +0.000 C 
ATOM     13  C   UNL     1      -2.655  12.071  23.105  0.00  0.00    +0.000 A 
ENDBRANCH   3   7
BRANCH   6  14
ATOM     14  C   UNL     1       1.375   9.309  18.736  0.00  0.00    +0.000 C 
ATOM     15  O   UNL     1       1.558   9.699  17.590  0.00  0.00    +0.000 OA
ATOM     16  N   UNL     1       1.821   8.097  19.256  0.00  0.00    +0.000 N 
ATOM     17  H   UNL     1       1.629   7.887  20.226  0.00  0.00    +0.000 HD
BRANCH  16  18
ATOM     18  C   UNL     1       2.551   7.103  18.565  0.00  0.00    +0.000 A 
ATOM     19  C   UNL     1       2.197   5.752  18.543  0.00  0.00    +0.000 A 
ATOM     20  C   UNL     1       2.962   4.825  17.834  0.00  0.00    +0.000 A 
ATOM     21  C   UNL     1       4.090   5.253  17.147  0.00  0.00    +0.000 A 
ATOM     22  F   UNL     1       4.825   4.360  16.468  0.00  0.00    +0.000 F 
ATOM     23  C   UNL     1       4.463   6.586  17.157  0.00  0.00    +0.000 A 
ATOM     24  C   UNL     1       3.696   7.517  17.860  0.00  0.00    +0.000 A 
ENDBRANCH  16  18
ENDBRANCH   6  14
BRANCH   1  25
ATOM     25  N   UNL     1      -1.172  10.705  18.063  0.00  0.00    +0.000 N 
ATOM     26  C   UNL     1      -1.474  12.042  17.550  0.00  0.00    +0.000 C 
BRANCH  25  28
ATOM     27  C   UNL     1      -3.320  10.159  16.954  0.00  0.00    +0.000 C 
ATOM     28  C   UNL     1      -2.227   9.691  17.911  0.00  0.00    +0.000 C 
ENDBRANCH  25  28
ENDBRANCH   1  25
TORSDOF 5
ENDMDL
MODEL 6
REMARK VINA RESULT:      -7.5      0.559      1.429
REMARK  Name = 
REMARK  8 active torsions:
REMARK  status: ('A' for Active; 'I' for Inactive)
REMARK    1  A    between atoms: C_1  and  C_2
REMARK    2  A    between atoms: C_2  and  N_3
REMARK    3  A    between atoms: N_3  and  C_4
REMARK    4  A    between atoms: N_3  and  C_5
REMARK    5  A    between atoms: C_7  and  C_8
REMARK    6  A    between atoms: C_12  and  C_13
REMARK    7  A    between atoms: C_17  and  C_18
REMARK    8  A    between atoms: N_20  and  C_21
REMARK                            x       y       z     vdW  Elec       q    Type
REMARK                         _______ _______ _______ _____ _____    ______ ____
ROOT
ATOM      1  C   UNL     1       3.530   4.781  17.698  0.00  0.00    +0.000 A 
ATOM      2  N   UNL     1       4.191   4.403  16.576  0.00  0.00    +0.000 NA
ATOM      3  C   UNL     1       4.877   5.333  15.878  0.00  0.00    +0.000 A 
ATOM      4  N   UNL     1       4.930   6.635  16.208  0.00  0.00    +0.000 NA
ATOM      5  C   UNL     1       4.242   6.995  17.303  0.00  0.00    +0.000 A 
ATOM      6  C   UNL     1       3.548   6.115  18.112  0.00  0.00    +0.000 A 
ENDROOT
BRANCH   3   7
ATOM      7  C   UNL     1       5.662   4.902  14.705  0.00  0.00    +0.000 A 
ATOM      8  C   UNL     1       5.239   3.840  13.887  0.00  0.00    +0.000 A 
ATOM      9  C   UNL     1       5.999   3.419  12.791  0.00  0.00    +0.000 A 
ATOM     10  C   UNL     1       7.202   4.051  12.485  0.00  0.00    +0.000 A 
ATOM     11  C   UNL     1       7.657   5.112  13.269  0.00  0.00    +0.000 A 
ATOM     12  C   UNL     1       8.961   5.790  12.971  0.00  0.00    +0.000 C 
ATOM     13  C   UNL     1       6.885   5.526  14.367  0.00  0.00    +0.000 A 
ENDBRANCH   3   7
BRANCH   6  14
ATOM     14  C   UNL     1       2.817   6.635  19.292  0.00  0.00    +0.000 C 
ATOM     15  O   UNL     1       2.771   5.961  20.313  0.00  0.00    +0.000 OA
ATOM     16  N   UNL     1       2.209   7.876  19.118  0.00  0.00    +0.000 N 
ATOM     17  H   UNL     1       2.330   8.354  18.235  0.00  0.00    +0.000 HD
BRANCH  16  18
ATOM     18  C   UNL     1       1.434   8.574  20.071  0.00  0.00    +0.000 A 
ATOM     19  C   UNL     1       1.462   8.307  21.442  0.00  0.00    +0.000 A 
ATOM     20  C   UNL     1       0.673   9.042  22.328  0.00  0.00    +0.000 A 
ATOM     21  C   UNL     1      -0.150  10.046  21.839  0.00  0.00    +0.000 A 
ATOM     22  F   UNL     1      -0.908  10.749  22.694  0.00  0.00    +0.000 F 
ATOM     23  C   UNL     1      -0.198  10.328  20.485  0.00  0.00    +0.000 A 
ATOM     24  C   UNL     1       0.595   9.598  19.596  0.00  0.00    +0.000 A 
ENDBRANCH  16  18
ENDBRANCH   6  14
BRANCH   1  25
ATOM     25  N   UNL     1       2.871   3.777  18.446  0.00  0.00    +0.000 N 
ATOM     26  C   UNL     1       3.714   2.590  18.599  0.00  0.00    +0.000 C 
BRANCH  25  28
ATOM     27  C   UNL     1       0.871   2.352  18.776  0.00  0.00    +0.000 C 
ATOM     28  C   UNL     1       1.478   3.542  18.038  0.00  0.00    +0.000 C 
ENDBRANCH  25  28
ENDBRANCH   1  25
TORSDOF 5
ENDMDL
MODEL 7
REMARK VINA RESULT:      -7.5      4.804     10.538
REMARK  Name = 
REMARK  8 active torsions:
REMARK  status: ('A' for Active; 'I' for Inactive)
REMARK    1  A    between atoms: C_1  and  C_2
REMARK    2  A    between atoms: C_2  and  N_3
REMARK    3  A    between atoms: N_3  and  C_4
REMARK    4  A    between atoms: N_3  and  C_5
REMARK    5  A    between atoms: C_7  and  C_8
REMARK    6  A    between atoms: C_12  and  C_13
REMARK    7  A    between atoms: C_17  and  C_18
REMARK    8  A    between atoms: N_20  and  C_21
REMARK                            x       y       z     vdW  Elec       q    Type
REMARK                         _______ _______ _______ _____ _____    ______ ____
ROOT
ATOM      1  C   UNL     1       0.042  10.153  20.227  0.00  0.00    +0.000 A 
ATOM      2  N   UNL     1      -0.695  11.085  20.881  0.00  0.00    +0.000 NA
ATOM      3  C   UNL     1      -0.727  11.062  22.231  0.00  0.00    +0.000 A 
ATOM      4  N   UNL     1      -0.091  10.149  22.984  0.00  0.00    +0.000 NA
ATOM      5  C   UNL     1       0.606   9.216  22.316  0.00  0.00    +0.000 A 
ATOM      6  C   UNL     1       0.742   9.178  20.942  0.00  0.00    +0.000 A 
ENDROOT
BRANCH   3   7
ATOM      7  C   UNL     1      -1.464  12.126  22.940  0.00  0.00    +0.000 A 
ATOM      8  C   UNL     1      -0.893  13.390  23.167  0.00  0.00    +0.000 A 
ATOM      9  C   UNL     1      -1.585  14.388  23.861  0.00  0.00    +0.000 A 
ATOM     10  C   UNL     1      -2.869  14.145  24.345  0.00  0.00    +0.000 A 
ATOM     11  C   UNL     1      -3.474  12.904  24.138  0.00  0.00    +0.000 A 
ATOM     12  C   UNL     1      -4.846  12.615  24.672  0.00  0.00    +0.000 C 
ATOM     13  C   UNL     1      -2.769  11.911  23.440  0.00  0.00    +0.000 A 
ENDBRANCH   3   7
BRANCH   6  14
ATOM     14  C   UNL     1       1.532   8.089  20.319  0.00  0.00    +0.000 C 
ATOM     15  O   UNL     1       2.186   8.326  19.311  0.00  0.00    +0.000 OA
ATOM     16  N   UNL     1       1.437   6.849  20.946  0.00  0.00    +0.000 N 
ATOM     17  H   UNL     1       0.882   6.775  21.787  0.00  0.00    +0.000 HD
BRANCH  16  18
ATOM     18  C   UNL     1       2.064   5.650  20.538  0.00  0.00    +0.000 A 
ATOM     19  C   UNL     1       1.545   4.377  20.787  0.00  0.00    +0.000 A 
ATOM     20  C   UNL     1       2.216   3.235  20.349  0.00  0.00    +0.000 A 
ATOM     21  C   UNL     1       3.414   3.368  19.662  0.00  0.00    +0.000 A 
ATOM     22  F   UNL     1       4.058   2.268  19.244  0.00  0.00    +0.000 F 
ATOM     23  C   UNL     1       3.951   4.618  19.405  0.00  0.00    +0.000 A 
ATOM     24  C   UNL     1       3.278   5.763  19.837  0.00  0.00    +0.000 A 
ENDBRANCH  16  18
ENDBRANCH   6  14
BRANCH   1  25
ATOM     25  N   UNL     1       0.110  10.236  18.816  0.00  0.00    +0.000 N 
ATOM     26  C   UNL     1       0.931  11.371  18.391  0.00  0.00    +0.000 C 
BRANCH  25  28
ATOM     27  C   UNL     1      -1.756  11.422  17.698  0.00  0.00    +0.000 C 
ATOM     28  C   UNL     1      -1.187  10.077  18.142  0.00  0.00    +0.000 C 
ENDBRANCH  25  28
ENDBRANCH   1  25
TORSDOF 5
ENDMDL
MODEL 8
REMARK VINA RESULT:      -7.5      4.454     10.926
REMARK  Name = 
REMARK  8 active torsions:
REMARK  status: ('A' for Active; 'I' for Inactive)
REMARK    1  A    between atoms: C_1  and  C_2
REMARK    2  A    between atoms: C_2  and  N_3
REMARK    3  A    between atoms: N_3  and  C_4
REMARK    4  A    between atoms: N_3  and  C_5
REMARK    5  A    between atoms: C_7  and  C_8
REMARK    6  A    between atoms: C_12  and  C_13
REMARK    7  A    between atoms: C_17  and  C_18
REMARK    8  A    between atoms: N_20  and  C_21
REMARK                            x       y       z     vdW  Elec       q    Type
REMARK                         _______ _______ _______ _____ _____    ______ ____
ROOT
ATOM      1  C   UNL     1      -0.630  10.831  20.102  0.00  0.00    +0.000 A 
ATOM      2  N   UNL     1      -1.366  11.622  20.922  0.00  0.00    +0.000 NA
ATOM      3  C   UNL     1      -1.119  11.594  22.250  0.00  0.00    +0.000 A 
ATOM      4  N   UNL     1      -0.199  10.804  22.828  0.00  0.00    +0.000 NA
ATOM      5  C   UNL     1       0.496  10.005  22.003  0.00  0.00    +0.000 A 
ATOM      6  C   UNL     1       0.355   9.992  20.628  0.00  0.00    +0.000 A 
ENDROOT
BRANCH   3   7
ATOM      7  C   UNL     1      -1.865  12.516  23.128  0.00  0.00    +0.000 A 
ATOM      8  C   UNL     1      -3.171  12.225  23.560  0.00  0.00    +0.000 A 
ATOM      9  C   UNL     1      -3.883  13.114  24.372  0.00  0.00    +0.000 A 
ATOM     10  C   UNL     1      -3.306  14.316  24.773  0.00  0.00    +0.000 A 
ATOM     11  C   UNL     1      -2.010  14.642  24.370  0.00  0.00    +0.000 A 
ATOM     12  C   UNL     1      -1.380  15.943  24.771  0.00  0.00    +0.000 C 
ATOM     13  C   UNL     1      -1.305  13.742  23.554  0.00  0.00    +0.000 A 
ENDBRANCH   3   7
BRANCH   6  14
ATOM     14  C   UNL     1       1.174   9.055  19.823  0.00  0.00    +0.000 C 
ATOM     15  O   UNL     1       1.551   9.396  18.709  0.00  0.00    +0.000 OA
ATOM     16  N   UNL     1       1.430   7.822  20.418  0.00  0.00    +0.000 N 
ATOM     17  H   UNL     1       1.085   7.657  21.353  0.00  0.00    +0.000 HD
BRANCH  16  18
ATOM     18  C   UNL     1       2.157   6.750  19.853  0.00  0.00    +0.000 A 
ATOM     19  C   UNL     1       2.886   6.845  18.665  0.00  0.00    +0.000 A 
ATOM     20  C   UNL     1       3.587   5.746  18.168  0.00  0.00    +0.000 A 
ATOM     21  C   UNL     1       3.554   4.545  18.861  0.00  0.00    +0.000 A 
ATOM     22  F   UNL     1       4.227   3.489  18.380  0.00  0.00    +0.000 F 
ATOM     23  C   UNL     1       2.837   4.424  20.039  0.00  0.00    +0.000 A 
ATOM     24  C   UNL     1       2.139   5.524  20.542  0.00  0.00    +0.000 A 
ENDBRANCH  16  18
ENDBRANCH   6  14
BRANCH   1  25
ATOM     25  N   UNL     1      -0.864  10.926  18.710  0.00  0.00    +0.000 N 
ATOM     26  C   UNL     1      -0.871  12.320  18.267  0.00  0.00    +0.000 C 
BRANCH  25  28
ATOM     27  C   UNL     1      -2.244  10.312  16.746  0.00  0.00    +0.000 C 
ATOM     28  C   UNL     1      -1.965  10.080  18.228  0.00  0.00    +0.000 C 
ENDBRANCH  25  28
ENDBRANCH   1  25
TORSDOF 5
ENDMDL
MODEL 9
REMARK VINA RESULT:      -7.4      4.508      6.992
REMARK  Name = 
REMARK  8 active torsions:
REMARK  status: ('A' for Active; 'I' for Inactive)
REMARK    1  A    between atoms: C_1  and  C_2
REMARK    2  A    between atoms: C_2  and  N_3
REMARK    3  A    between atoms: N_3  and  C_4
REMARK    4  A    between atoms: N_3  and  C_5
REMARK    5  A    between atoms: C_7  and  C_8
REMARK    6  A    between atoms: C_12  and  C_13
REMARK    7  A    between atoms: C_17  and  C_18
REMARK    8  A    between atoms: N_20  and  C_21
REMARK                            x       y       z     vdW  Elec       q    Type
REMARK                         _______ _______ _______ _____ _____    ______ ____
ROOT
ATOM      1  C   UNL     1       1.260   9.255  20.371  0.00  0.00    +0.000 A 
ATOM      2  N   UNL     1       1.611   7.954  20.525  0.00  0.00    +0.000 NA
ATOM      3  C   UNL     1       2.116   7.285  19.466  0.00  0.00    +0.000 A 
ATOM      4  N   UNL     1       2.273   7.819  18.243  0.00  0.00    +0.000 NA
ATOM      5  C   UNL     1       1.889   9.098  18.103  0.00  0.00    +0.000 A 
ATOM      6  C   UNL     1       1.406   9.884  19.132  0.00  0.00    +0.000 A 
ENDROOT
BRANCH   3   7
ATOM      7  C   UNL     1       2.573   5.895  19.659  0.00  0.00    +0.000 A 
ATOM      8  C   UNL     1       3.716   5.399  19.009  0.00  0.00    +0.000 A 
ATOM      9  C   UNL     1       4.131   4.074  19.176  0.00  0.00    +0.000 A 
ATOM     10  C   UNL     1       3.410   3.211  19.999  0.00  0.00    +0.000 A 
ATOM     11  C   UNL     1       2.271   3.664  20.666  0.00  0.00    +0.000 A 
ATOM     12  C   UNL     1       1.468   2.743  21.536  0.00  0.00    +0.000 C 
ATOM     13  C   UNL     1       1.864   4.996  20.490  0.00  0.00    +0.000 A 
ENDBRANCH   3   7
BRANCH   6  14
ATOM     14  C   UNL     1       1.004  11.282  18.851  0.00  0.00    +0.000 C 
ATOM     15  O   UNL     1      -0.097  11.502  18.359  0.00  0.00    +0.000 OA
ATOM     16  N   UNL     1       1.956  12.251  19.160  0.00  0.00    +0.000 N 
ATOM     17  H   UNL     1       2.825  11.956  19.582  0.00  0.00    +0.000 HD
BRANCH  16  18
ATOM     18  C   UNL     1       1.832  13.645  18.963  0.00  0.00    +0.000 A 
ATOM     19  C   UNL     1       0.804  14.419  19.508  0.00  0.00    +0.000 A 
ATOM     20  C   UNL     1       0.748  15.794  19.277  0.00  0.00    +0.000 A 
ATOM     21  C   UNL     1       1.723  16.396  18.495  0.00  0.00    +0.000 A 
ATOM     22  F   UNL     1       1.665  17.718  18.273  0.00  0.00    +0.000 F 
ATOM     23  C   UNL     1       2.750  15.650  17.942  0.00  0.00    +0.000 A 
ATOM     24  C   UNL     1       2.812  14.275  18.176  0.00  0.00    +0.000 A 
ENDBRANCH  16  18
ENDBRANCH   6  14
BRANCH   1  25
ATOM     25  N   UNL     1       0.793   9.952  21.510  0.00  0.00    +0.000 N 
ATOM     26  C   UNL     1       1.348   9.388  22.741  0.00  0.00    +0.000 C 
BRANCH  25  28
ATOM     27  C   UNL     1      -1.064  11.140  22.643  0.00  0.00    +0.000 C 
ATOM     28  C   UNL     1      -0.655  10.210  21.504  0.00  0.00    +0.000 C 
ENDBRANCH  25  28
ENDBRANCH   1  25
TORSDOF 5
ENDMDL
