MODEL 1
REMARK VINA RESULT:      -7.6      0.000      0.000
REMARK  Name = 
REMARK  15 active torsions:
REMARK  status: ('A' for Active; 'I' for Inactive)
REMARK    1  A    between atoms: C_1  and  C_2
REMARK    2  A    between atoms: C_2  and  C_3
REMARK    3  A    between atoms: C_10  and  O_11
REMARK    4  A    between atoms: O_11  and  C_12
REMARK    5  A    between atoms: C_13  and  C_14
REMARK    6  A    between atoms: C_14  and  O_15
REMARK    7  A    between atoms: O_15  and  C_16
REMARK    8  A    between atoms: C_16  and  C_18
REMARK    9  A    between atoms: C_18  and  C_19
REMARK   10  A    between atoms: C_21  and  O_22
REMARK   11  A    between atoms: O_22  and  C_23
REMARK   12  A    between atoms: C_24  and  O_25
REMARK   13  A    between atoms: O_25  and  C_26
REMARK   14  A    between atoms: C_27  and  O_28
REMARK   15  A    between atoms: O_28  and  C_29
REMARK                            x       y       z     vdW  Elec       q    Type
REMARK                         _______ _______ _______ _____ _____    ______ ____
ROOT
ATOM      1  C   UNL     1       2.774   6.664  19.397  0.00  0.00    +0.000 C 
ENDROOT
BRANCH   1  10
ATOM      2  C   UNL     1       6.292   6.527  17.110  0.00  0.00    +0.000 A 
ATOM      3  C   UNL     1       6.668   5.534  16.287  0.00  0.00    +0.000 A 
ATOM      4  C   UNL     1       5.819   4.337  16.175  0.00  0.00    +0.000 A 
ATOM      5  O   UNL     1       6.147   3.395  15.464  0.00  0.00    +0.000 OA
ATOM      6  C   UNL     1       4.567   4.346  16.946  0.00  0.00    +0.000 A 
ATOM      7  C   UNL     1       3.676   3.280  16.849  0.00  0.00    +0.000 A 
ATOM      8  C   UNL     1       2.489   3.304  17.585  0.00  0.00    +0.000 A 
ATOM      9  C   UNL     1       2.184   4.393  18.413  0.00  0.00    +0.000 A 
ATOM     10  C   UNL     1       3.082   5.478  18.506  0.00  0.00    +0.000 A 
ATOM     11  C   UNL     1       4.281   5.435  17.767  0.00  0.00    +0.000 A 
ATOM     12  O   UNL     1       5.153   6.488  17.894  0.00  0.00    +0.000 OA
BRANCH   2  14
ATOM     13  C   UNL     1       8.166   7.646  18.346  0.00  0.00    +0.000 C 
ATOM     14  C   UNL     1       7.096   7.788  17.271  0.00  0.00    +0.000 C 
ENDBRANCH   2  14
BRANCH   9  15
ATOM     15  O   UNL     1       1.048   4.485  19.174  0.00  0.00    +0.000 OA
ATOM     16  C   UNL     1       0.865   3.515  20.199  0.00  0.00    +0.000 C 
ENDBRANCH   9  15
ENDBRANCH   1  10
BRANCH   1  17
ATOM     17  O   UNL     1       2.150   7.742  18.678  0.00  0.00    +0.000 OA
BRANCH  17  18
ATOM     18  C   UNL     1       1.482   8.646  19.444  0.00  0.00    +0.000 C 
ATOM     19  O   UNL     1       1.058   8.439  20.574  0.00  0.00    +0.000 OA
BRANCH  18  20
ATOM     20  C   UNL     1       1.322   9.956  18.700  0.00  0.00    +0.000 C 
BRANCH  20  21
ATOM     21  C   UNL     1      -0.122  10.354  18.541  0.00  0.00    +0.000 A 
ATOM     22  C   UNL     1      -0.922   9.800  17.538  0.00  0.00    +0.000 A 
ATOM     23  C   UNL     1      -2.242  10.226  17.344  0.00  0.00    +0.000 A 
ATOM     24  C   UNL     1      -2.776  11.260  18.150  0.00  0.00    +0.000 A 
ATOM     25  C   UNL     1      -1.968  11.829  19.154  0.00  0.00    +0.000 A 
ATOM     26  C   UNL     1      -0.677  11.327  19.372  0.00  0.00    +0.000 A 
BRANCH  23  27
ATOM     27  O   UNL     1      -3.042   9.701  16.349  0.00  0.00    +0.000 OA
ATOM     28  C   UNL     1      -2.828  10.229  15.040  0.00  0.00    +0.000 C 
ENDBRANCH  23  27
BRANCH  24  29
ATOM     29  O   UNL     1      -4.050  11.672  17.821  0.00  0.00    +0.000 OA
ATOM     30  C   UNL     1      -5.123  11.156  18.598  0.00  0.00    +0.000 C 
ENDBRANCH  24  29
BRANCH  25  31
ATOM     31  O   UNL     1      -2.446  12.873  19.908  0.00  0.00    +0.000 OA
ATOM     32  C   UNL     1      -1.502  13.498  20.776  0.00  0.00    +0.000 C 
ENDBRANCH  25  31
ENDBRANCH  20  21
ENDBRANCH  18  20
ENDBRANCH  17  18
ENDBRANCH   1  17
TORSDOF 10
ENDMDL
MODEL 2
REMARK VINA RESULT:      -7.2      1.802      9.481
REMARK  Name = 
REMARK  15 active torsions:
REMARK  status: ('A' for Active; 'I' for Inactive)
REMARK    1  A    between atoms: C_1  and  C_2
REMARK    2  A    between atoms: C_2  and  C_3
REMARK    3  A    between atoms: C_10  and  O_11
REMARK    4  A    between atoms: O_11  and  C_12
REMARK    5  A    between atoms: C_13  and  C_14
REMARK    6  A    between atoms: C_14  and  O_15
REMARK    7  A    between atoms: O_15  and  C_16
REMARK    8  A    between atoms: C_16  and  C_18
REMARK    9  A    between atoms: C_18  and  C_19
REMARK   10  A    between atoms: C_21  and  O_22
REMARK   11  A    between atoms: O_22  and  C_23
REMARK   12  A    between atoms: C_24  and  O_25
REMARK   13  A    between atoms: O_25  and  C_26
REMARK   14  A    between atoms: C_27  and  O_28
REMARK   15  A    between atoms: O_28  and  C_29
REMARK                            x       y       z     vdW  Elec       q    Type
REMARK                         _______ _______ _______ _____ _____    ______ ____
ROOT
ATOM      1  C   UNL     1      -0.883  11.051  17.963  0.00  0.00    +0.000 C 
ENDROOT
BRANCH   1  10
ATOM      2  C   UNL     1      -2.742  12.534  21.423  0.00  0.00    +0.000 A 
ATOM      3  C   UNL     1      -4.047  12.819  21.565  0.00  0.00    +0.000 A 
ATOM      4  C   UNL     1      -4.946  12.654  20.412  0.00  0.00    +0.000 A 
ATOM      5  O   UNL     1      -6.134  12.939  20.492  0.00  0.00    +0.000 OA
ATOM      6  C   UNL     1      -4.342  12.121  19.181  0.00  0.00    +0.000 A 
ATOM      7  C   UNL     1      -5.133  11.876  18.061  0.00  0.00    +0.000 A 
ATOM      8  C   UNL     1      -4.547  11.367  16.901  0.00  0.00    +0.000 A 
ATOM      9  C   UNL     1      -3.173  11.094  16.855  0.00  0.00    +0.000 A 
ATOM     10  C   UNL     1      -2.370  11.334  17.991  0.00  0.00    +0.000 A 
ATOM     11  C   UNL     1      -2.974  11.860  19.152  0.00  0.00    +0.000 A 
ATOM     12  O   UNL     1      -2.170  12.112  20.236  0.00  0.00    +0.000 OA
BRANCH   2  14
ATOM     13  C   UNL     1      -1.127  11.323  22.912  0.00  0.00    +0.000 C 
ATOM     14  C   UNL     1      -1.760  12.663  22.556  0.00  0.00    +0.000 C 
ENDBRANCH   2  14
BRANCH   9  15
ATOM     15  O   UNL     1      -2.522  10.607  15.752  0.00  0.00    +0.000 OA
ATOM     16  C   UNL     1      -3.311  10.298  14.609  0.00  0.00    +0.000 C 
ENDBRANCH   9  15
ENDBRANCH   1  10
BRANCH   1  17
ATOM     17  O   UNL     1      -0.550   9.811  18.610  0.00  0.00    +0.000 OA
BRANCH  17  18
ATOM     18  C   UNL     1       0.750   9.680  18.991  0.00  0.00    +0.000 C 
ATOM     19  O   UNL     1       1.200   9.994  20.086  0.00  0.00    +0.000 OA
BRANCH  18  20
ATOM     20  C   UNL     1       1.578   9.097  17.865  0.00  0.00    +0.000 C 
BRANCH  20  21
ATOM     21  C   UNL     1       2.419   7.931  18.313  0.00  0.00    +0.000 A 
ATOM     22  C   UNL     1       3.570   7.556  17.614  0.00  0.00    +0.000 A 
ATOM     23  C   UNL     1       4.310   6.427  17.988  0.00  0.00    +0.000 A 
ATOM     24  C   UNL     1       3.875   5.623  19.069  0.00  0.00    +0.000 A 
ATOM     25  C   UNL     1       2.708   5.992  19.767  0.00  0.00    +0.000 A 
ATOM     26  C   UNL     1       2.033   7.170  19.415  0.00  0.00    +0.000 A 
BRANCH  23  27
ATOM     27  O   UNL     1       5.440   6.032  17.302  0.00  0.00    +0.000 OA
ATOM     28  C   UNL     1       5.248   5.710  15.925  0.00  0.00    +0.000 C 
ENDBRANCH  23  27
BRANCH  24  29
ATOM     29  O   UNL     1       4.616   4.485  19.299  0.00  0.00    +0.000 OA
ATOM     30  C   UNL     1       4.166   3.279  18.694  0.00  0.00    +0.000 C 
ENDBRANCH  24  29
BRANCH  25  31
ATOM     31  O   UNL     1       2.234   5.195  20.781  0.00  0.00    +0.000 OA
ATOM     32  C   UNL     1       1.106   4.384  20.460  0.00  0.00    +0.000 C 
ENDBRANCH  25  31
ENDBRANCH  20  21
ENDBRANCH  18  20
ENDBRANCH  17  18
ENDBRANCH   1  17
TORSDOF 10
ENDMDL
MODEL 3
REMARK VINA RESULT:      -7.1      1.544      9.317
REMARK  Name = 
REMARK  15 active torsions:
REMARK  status: ('A' for Active; 'I' for Inactive)
REMARK    1  A    between atoms: C_1  and  C_2
REMARK    2  A    between atoms: C_2  and  C_3
REMARK    3  A    between atoms: C_10  and  O_11
REMARK    4  A    between atoms: O_11  and  C_12
REMARK    5  A    between atoms: C_13  and  C_14
REMARK    6  A    between atoms: C_14  and  O_15
REMARK    7  A    between atoms: O_15  and  C_16
REMARK    8  A    between atoms: C_16  and  C_18
REMARK    9  A    between atoms: C_18  and  C_19
REMARK   10  A    between atoms: C_21  and  O_22
REMARK   11  A    between atoms: O_22  and  C_23
REMARK   12  A    between atoms: C_24  and  O_25
REMARK   13  A    between atoms: O_25  and  C_26
REMARK   14  A    between atoms: C_27  and  O_28
REMARK   15  A    between atoms: O_28  and  C_29
REMARK                            x       y       z     vdW  Elec       q    Type
REMARK                         _______ _______ _______ _____ _____    ______ ____
ROOT
ATOM      1  C   UNL     1      -0.061  10.591  19.119  0.00  0.00    +0.000 C 
ENDROOT
BRANCH   1  10
ATOM      2  C   UNL     1      -3.174  10.576  16.301  0.00  0.00    +0.000 A 
ATOM      3  C   UNL     1      -4.378  11.155  16.443  0.00  0.00    +0.000 A 
ATOM      4  C   UNL     1      -4.701  11.835  17.707  0.00  0.00    +0.000 A 
ATOM      5  O   UNL     1      -5.802  12.342  17.887  0.00  0.00    +0.000 OA
ATOM      6  C   UNL     1      -3.635  11.880  18.719  0.00  0.00    +0.000 A 
ATOM      7  C   UNL     1      -3.836  12.557  19.920  0.00  0.00    +0.000 A 
ATOM      8  C   UNL     1      -2.814  12.594  20.870  0.00  0.00    +0.000 A 
ATOM      9  C   UNL     1      -1.587  11.963  20.624  0.00  0.00    +0.000 A 
ATOM     10  C   UNL     1      -1.378  11.283  19.404  0.00  0.00    +0.000 A 
ATOM     11  C   UNL     1      -2.423  11.244  18.459  0.00  0.00    +0.000 A 
ATOM     12  O   UNL     1      -2.208  10.554  17.292  0.00  0.00    +0.000 OA
BRANCH   2  14
ATOM     13  C   UNL     1      -3.790  10.049  13.928  0.00  0.00    +0.000 C 
ATOM     14  C   UNL     1      -2.760   9.874  15.037  0.00  0.00    +0.000 C 
ENDBRANCH   2  14
BRANCH   9  15
ATOM     15  O   UNL     1      -0.541  11.943  21.510  0.00  0.00    +0.000 OA
ATOM     16  C   UNL     1      -0.734  11.250  22.737  0.00  0.00    +0.000 C 
ENDBRANCH   9  15
ENDBRANCH   1  10
BRANCH   1  17
ATOM     17  O   UNL     1       0.063   9.341  19.819  0.00  0.00    +0.000 OA
BRANCH  17  18
ATOM     18  C   UNL     1       1.279   8.737  19.726  0.00  0.00    +0.000 C 
ATOM     19  O   UNL     1       1.892   8.236  20.659  0.00  0.00    +0.000 OA
BRANCH  18  20
ATOM     20  C   UNL     1       1.783   8.777  18.298  0.00  0.00    +0.000 C 
BRANCH  20  21
ATOM     21  C   UNL     1       2.663   7.601  17.965  0.00  0.00    +0.000 A 
ATOM     22  C   UNL     1       2.314   6.302  18.347  0.00  0.00    +0.000 A 
ATOM     23  C   UNL     1       3.168   5.220  18.103  0.00  0.00    +0.000 A 
ATOM     24  C   UNL     1       4.426   5.436  17.490  0.00  0.00    +0.000 A 
ATOM     25  C   UNL     1       4.786   6.746  17.116  0.00  0.00    +0.000 A 
ATOM     26  C   UNL     1       3.876   7.795  17.306  0.00  0.00    +0.000 A 
BRANCH  23  27
ATOM     27  O   UNL     1       2.847   3.933  18.485  0.00  0.00    +0.000 OA
ATOM     28  C   UNL     1       1.573   3.458  18.051  0.00  0.00    +0.000 C 
ENDBRANCH  23  27
BRANCH  24  29
ATOM     29  O   UNL     1       5.232   4.323  17.378  0.00  0.00    +0.000 OA
ATOM     30  C   UNL     1       5.427   3.789  16.075  0.00  0.00    +0.000 C 
ENDBRANCH  24  29
BRANCH  25  31
ATOM     31  O   UNL     1       6.025   6.987  16.575  0.00  0.00    +0.000 OA
ATOM     32  C   UNL     1       7.065   7.280  17.506  0.00  0.00    +0.000 C 
ENDBRANCH  25  31
ENDBRANCH  20  21
ENDBRANCH  18  20
ENDBRANCH  17  18
ENDBRANCH   1  17
TORSDOF 10
ENDMDL
MODEL 4
REMARK VINA RESULT:      -7.1      1.721      9.374
REMARK  Name = 
REMARK  15 active torsions:
REMARK  status: ('A' for Active; 'I' for Inactive)
REMARK    1  A    between atoms: C_1  and  C_2
REMARK    2  A    between atoms: C_2  and  C_3
REMARK    3  A    between atoms: C_10  and  O_11
REMARK    4  A    between atoms: O_11  and  C_12
REMARK    5  A    between atoms: C_13  and  C_14
REMARK    6  A    between atoms: C_14  and  O_15
REMARK    7  A    between atoms: O_15  and  C_16
REMARK    8  A    between atoms: C_16  and  C_18
REMARK    9  A    between atoms: C_18  and  C_19
REMARK   10  A    between atoms: C_21  and  O_22
REMARK   11  A    between atoms: O_22  and  C_23
REMARK   12  A    between atoms: C_24  and  O_25
REMARK   13  A    between atoms: O_25  and  C_26
REMARK   14  A    between atoms: C_27  and  O_28
REMARK   15  A    between atoms: O_28  and  C_29
REMARK                            x       y       z     vdW  Elec       q    Type
REMARK                         _______ _______ _______ _____ _____    ______ ____
ROOT
ATOM      1  C   UNL     1       0.869  10.923  18.859  0.00  0.00    +0.000 C 
ENDROOT
BRANCH   1  10
ATOM      2  C   UNL     1      -2.845  10.522  16.944  0.00  0.00    +0.000 A 
ATOM      3  C   UNL     1      -4.011  11.053  17.350  0.00  0.00    +0.000 A 
ATOM      4  C   UNL     1      -4.050  11.821  18.604  0.00  0.00    +0.000 A 
ATOM      5  O   UNL     1      -5.101  12.288  19.026  0.00  0.00    +0.000 OA
ATOM      6  C   UNL     1      -2.769  12.002  19.303  0.00  0.00    +0.000 A 
ATOM      7  C   UNL     1      -2.705  12.767  20.465  0.00  0.00    +0.000 A 
ATOM      8  C   UNL     1      -1.481  12.932  21.116  0.00  0.00    +0.000 A 
ATOM      9  C   UNL     1      -0.316  12.342  20.607  0.00  0.00    +0.000 A 
ATOM     10  C   UNL     1      -0.376  11.573  19.425  0.00  0.00    +0.000 A 
ATOM     11  C   UNL     1      -1.621  11.405  18.785  0.00  0.00    +0.000 A 
ATOM     12  O   UNL     1      -1.662  10.630  17.652  0.00  0.00    +0.000 OA
BRANCH   2  14
ATOM     13  C   UNL     1      -3.668  10.246  14.591  0.00  0.00    +0.000 C 
ATOM     14  C   UNL     1      -2.717   9.737  15.667  0.00  0.00    +0.000 C 
ENDBRANCH   2  14
BRANCH   9  15
ATOM     15  O   UNL     1       0.918  12.447  21.194  0.00  0.00    +0.000 OA
ATOM     16  C   UNL     1       1.518  13.737  21.234  0.00  0.00    +0.000 C 
ENDBRANCH   9  15
ENDBRANCH   1  10
BRANCH   1  17
ATOM     17  O   UNL     1       0.680   9.525  18.582  0.00  0.00    +0.000 OA
BRANCH  17  18
ATOM     18  C   UNL     1       1.672   8.703  19.020  0.00  0.00    +0.000 C 
ATOM     19  O   UNL     1       1.838   8.351  20.180  0.00  0.00    +0.000 OA
BRANCH  18  20
ATOM     20  C   UNL     1       2.560   8.283  17.866  0.00  0.00    +0.000 C 
BRANCH  20  21
ATOM     21  C   UNL     1       2.993   6.844  17.967  0.00  0.00    +0.000 A 
ATOM     22  C   UNL     1       2.067   5.822  18.196  0.00  0.00    +0.000 A 
ATOM     23  C   UNL     1       2.479   4.494  18.364  0.00  0.00    +0.000 A 
ATOM     24  C   UNL     1       3.858   4.173  18.338  0.00  0.00    +0.000 A 
ATOM     25  C   UNL     1       4.794   5.203  18.119  0.00  0.00    +0.000 A 
ATOM     26  C   UNL     1       4.343   6.509  17.879  0.00  0.00    +0.000 A 
BRANCH  23  27
ATOM     27  O   UNL     1       1.582   3.474  18.606  0.00  0.00    +0.000 OA
ATOM     28  C   UNL     1       0.856   3.565  19.832  0.00  0.00    +0.000 C 
ENDBRANCH  23  27
BRANCH  24  29
ATOM     29  O   UNL     1       4.167   2.857  18.605  0.00  0.00    +0.000 OA
ATOM     30  C   UNL     1       4.487   2.522  19.949  0.00  0.00    +0.000 C 
ENDBRANCH  24  29
BRANCH  25  31
ATOM     31  O   UNL     1       6.139   4.925  18.148  0.00  0.00    +0.000 OA
ATOM     32  C   UNL     1       6.874   5.516  19.218  0.00  0.00    +0.000 C 
ENDBRANCH  25  31
ENDBRANCH  20  21
ENDBRANCH  18  20
ENDBRANCH  17  18
ENDBRANCH   1  17
TORSDOF 10
ENDMDL
MODEL 5
REMARK VINA RESULT:      -7.1      4.504      9.186
REMARK  Name = 
REMARK  15 active torsions:
REMARK  status: ('A' for Active; 'I' for Inactive)
REMARK    1  A    between atoms: C_1  and  C_2
REMARK    2  A    between atoms: C_2  and  C_3
REMARK    3  A    between atoms: C_10  and  O_11
REMARK    4  A    between atoms: O_11  and  C_12
REMARK    5  A    between atoms: C_13  and  C_14
REMARK    6  A    between atoms: C_14  and  O_15
REMARK    7  A    between atoms: O_15  and  C_16
REMARK    8  A    between atoms: C_16  and  C_18
REMARK    9  A    between atoms: C_18  and  C_19
REMARK   10  A    between atoms: C_21  and  O_22
REMARK   11  A    between atoms: O_22  and  C_23
REMARK   12  A    between atoms: C_24  and  O_25
REMARK   13  A    between atoms: O_25  and  C_26
REMARK   14  A    between atoms: C_27  and  O_28
REMARK   15  A    between atoms: O_28  and  C_29
REMARK                            x       y       z     vdW  Elec       q    Type
REMARK                         _______ _______ _______ _____ _____    ______ ____
ROOT
ATOM      1  C   UNL     1       6.314   7.360  16.671  0.00  0.00    +0.000 C 
ENDROOT
BRANCH   1  10
ATOM      2  C   UNL     1       2.748   6.198  18.558  0.00  0.00    +0.000 A 
ATOM      3  C   UNL     1       2.150   4.999  18.459  0.00  0.00    +0.000 A 
ATOM      4  C   UNL     1       2.740   3.974  17.583  0.00  0.00    +0.000 A 
ATOM      5  O   UNL     1       2.203   2.883  17.437  0.00  0.00    +0.000 OA
ATOM      6  C   UNL     1       3.999   4.330  16.912  0.00  0.00    +0.000 A 
ATOM      7  C   UNL     1       4.657   3.398  16.113  0.00  0.00    +0.000 A 
ATOM      8  C   UNL     1       5.853   3.750  15.485  0.00  0.00    +0.000 A 
ATOM      9  C   UNL     1       6.402   5.028  15.658  0.00  0.00    +0.000 A 
ATOM     10  C   UNL     1       5.741   5.972  16.474  0.00  0.00    +0.000 A 
ATOM     11  C   UNL     1       4.528   5.607  17.092  0.00  0.00    +0.000 A 
ATOM     12  O   UNL     1       3.888   6.550  17.858  0.00  0.00    +0.000 OA
BRANCH   2  14
ATOM     13  C   UNL     1       1.662   6.746  20.751  0.00  0.00    +0.000 C 
ATOM     14  C   UNL     1       2.218   7.293  19.442  0.00  0.00    +0.000 C 
ENDBRANCH   2  14
BRANCH   9  15
ATOM     15  O   UNL     1       7.563   5.453  15.067  0.00  0.00    +0.000 OA
ATOM     16  C   UNL     1       7.695   5.254  13.664  0.00  0.00    +0.000 C 
ENDBRANCH   9  15
ENDBRANCH   1  10
BRANCH   1  17
ATOM     17  O   UNL     1       7.731   7.339  16.911  0.00  0.00    +0.000 OA
BRANCH  17  18
ATOM     18  C   UNL     1       8.152   8.049  17.992  0.00  0.00    +0.000 C 
ATOM     19  O   UNL     1       8.658   7.571  18.999  0.00  0.00    +0.000 OA
BRANCH  18  20
ATOM     20  C   UNL     1       7.899   9.529  17.787  0.00  0.00    +0.000 C 
BRANCH  20  21
ATOM     21  C   UNL     1       8.955  10.388  18.430  0.00  0.00    +0.000 A 
ATOM     22  C   UNL     1       8.864  10.769  19.772  0.00  0.00    +0.000 A 
ATOM     23  C   UNL     1       9.807  11.629  20.348  0.00  0.00    +0.000 A 
ATOM     24  C   UNL     1      10.858  12.157  19.558  0.00  0.00    +0.000 A 
ATOM     25  C   UNL     1      10.945  11.784  18.202  0.00  0.00    +0.000 A 
ATOM     26  C   UNL     1      10.029  10.862  17.676  0.00  0.00    +0.000 A 
BRANCH  23  27
ATOM     27  O   UNL     1       9.726  12.027  21.666  0.00  0.00    +0.000 OA
ATOM     28  C   UNL     1       8.502  11.717  22.332  0.00  0.00    +0.000 C 
ENDBRANCH  23  27
BRANCH  24  29
ATOM     29  O   UNL     1      11.678  13.065  20.191  0.00  0.00    +0.000 OA
ATOM     30  C   UNL     1      11.354  14.442  20.056  0.00  0.00    +0.000 C 
ENDBRANCH  24  29
BRANCH  25  31
ATOM     31  O   UNL     1      11.920  12.330  17.403  0.00  0.00    +0.000 OA
ATOM     32  C   UNL     1      11.515  13.429  16.589  0.00  0.00    +0.000 C 
ENDBRANCH  25  31
ENDBRANCH  20  21
ENDBRANCH  18  20
ENDBRANCH  17  18
ENDBRANCH   1  17
TORSDOF 10
ENDMDL
MODEL 6
REMARK VINA RESULT:      -7.0      1.105      2.484
REMARK  Name = 
REMARK  15 active torsions:
REMARK  status: ('A' for Active; 'I' for Inactive)
REMARK    1  A    between atoms: C_1  and  C_2
REMARK    2  A    between atoms: C_2  and  C_3
REMARK    3  A    between atoms: C_10  and  O_11
REMARK    4  A    between atoms: O_11  and  C_12
REMARK    5  A    between atoms: C_13  and  C_14
REMARK    6  A    between atoms: C_14  and  O_15
REMARK    7  A    between atoms: O_15  and  C_16
REMARK    8  A    between atoms: C_16  and  C_18
REMARK    9  A    between atoms: C_18  and  C_19
REMARK   10  A    between atoms: C_21  and  O_22
REMARK   11  A    between atoms: O_22  and  C_23
REMARK   12  A    between atoms: C_24  and  O_25
REMARK   13  A    between atoms: O_25  and  C_26
REMARK   14  A    between atoms: C_27  and  O_28
REMARK   15  A    between atoms: O_28  and  C_29
REMARK                            x       y       z     vdW  Elec       q    Type
REMARK                         _______ _______ _______ _____ _____    ______ ____
ROOT
ATOM      1  C   UNL     1       2.802   7.327  18.029  0.00  0.00    +0.000 C 
ENDROOT
BRANCH   1  10
ATOM      2  C   UNL     1       6.964   7.570  17.532  0.00  0.00    +0.000 A 
ATOM      3  C   UNL     1       7.800   6.542  17.309  0.00  0.00    +0.000 A 
ATOM      4  C   UNL     1       7.259   5.174  17.270  0.00  0.00    +0.000 A 
ATOM      5  O   UNL     1       7.994   4.209  17.106  0.00  0.00    +0.000 OA
ATOM      6  C   UNL     1       5.802   5.041  17.423  0.00  0.00    +0.000 A 
ATOM      7  C   UNL     1       5.200   3.788  17.337  0.00  0.00    +0.000 A 
ATOM      8  C   UNL     1       3.816   3.676  17.481  0.00  0.00    +0.000 A 
ATOM      9  C   UNL     1       3.027   4.814  17.704  0.00  0.00    +0.000 A 
ATOM     10  C   UNL     1       3.634   6.086  17.784  0.00  0.00    +0.000 A 
ATOM     11  C   UNL     1       5.034   6.181  17.648  0.00  0.00    +0.000 A 
ATOM     12  O   UNL     1       5.607   7.424  17.757  0.00  0.00    +0.000 OA
BRANCH   2  14
ATOM     13  C   UNL     1       8.655   9.167  18.469  0.00  0.00    +0.000 C 
ATOM     14  C   UNL     1       7.435   8.998  17.573  0.00  0.00    +0.000 C 
ENDBRANCH   2  14
BRANCH   9  15
ATOM     15  O   UNL     1       1.667   4.786  17.869  0.00  0.00    +0.000 OA
ATOM     16  C   UNL     1       1.100   3.614  18.444  0.00  0.00    +0.000 C 
ENDBRANCH   9  15
ENDBRANCH   1  10
BRANCH   1  17
ATOM     17  O   UNL     1       2.235   7.355  19.349  0.00  0.00    +0.000 OA
BRANCH  17  18
ATOM     18  C   UNL     1       1.528   8.475  19.660  0.00  0.00    +0.000 C 
ATOM     19  O   UNL     1       0.908   8.654  20.700  0.00  0.00    +0.000 OA
BRANCH  18  20
ATOM     20  C   UNL     1       1.605   9.480  18.529  0.00  0.00    +0.000 C 
BRANCH  20  21
ATOM     21  C   UNL     1       0.302  10.206  18.315  0.00  0.00    +0.000 A 
ATOM     22  C   UNL     1       0.024  11.407  18.973  0.00  0.00    +0.000 A 
ATOM     23  C   UNL     1      -1.217  12.042  18.831  0.00  0.00    +0.000 A 
ATOM     24  C   UNL     1      -2.227  11.448  18.036  0.00  0.00    +0.000 A 
ATOM     25  C   UNL     1      -1.953  10.231  17.381  0.00  0.00    +0.000 A 
ATOM     26  C   UNL     1      -0.676   9.661  17.484  0.00  0.00    +0.000 A 
BRANCH  23  27
ATOM     27  O   UNL     1      -1.515  13.220  19.484  0.00  0.00    +0.000 OA
ATOM     28  C   UNL     1      -0.562  14.271  19.331  0.00  0.00    +0.000 C 
ENDBRANCH  23  27
BRANCH  24  29
ATOM     29  O   UNL     1      -3.441  12.101  18.034  0.00  0.00    +0.000 OA
ATOM     30  C   UNL     1      -4.488  11.532  18.809  0.00  0.00    +0.000 C 
ENDBRANCH  24  29
BRANCH  25  31
ATOM     31  O   UNL     1      -2.938   9.608  16.654  0.00  0.00    +0.000 OA
ATOM     32  C   UNL     1      -3.016   9.968  15.276  0.00  0.00    +0.000 C 
ENDBRANCH  25  31
ENDBRANCH  20  21
ENDBRANCH  18  20
ENDBRANCH  17  18
ENDBRANCH   1  17
TORSDOF 10
ENDMDL
MODEL 7
REMARK VINA RESULT:      -7.0      1.038      1.612
REMARK  Name = 
REMARK  15 active torsions:
REMARK  status: ('A' for Active; 'I' for Inactive)
REMARK    1  A    between atoms: C_1  and  C_2
REMARK    2  A    between atoms: C_2  and  C_3
REMARK    3  A    between atoms: C_10  and  O_11
REMARK    4  A    between atoms: O_11  and  C_12
REMARK    5  A    between atoms: C_13  and  C_14
REMARK    6  A    between atoms: C_14  and  O_15
REMARK    7  A    between atoms: O_15  and  C_16
REMARK    8  A    between atoms: C_16  and  C_18
REMARK    9  A    between atoms: C_18  and  C_19
REMARK   10  A    between atoms: C_21  and  O_22
REMARK   11  A    between atoms: O_22  and  C_23
REMARK   12  A    between atoms: C_24  and  O_25
REMARK   13  A    between atoms: O_25  and  C_26
REMARK   14  A    between atoms: C_27  and  O_28
REMARK   15  A    between atoms: O_28  and  C_29
REMARK                            x       y       z     vdW  Elec       q    Type
REMARK                         _______ _______ _______ _____ _____    ______ ____
ROOT
ATOM      1  C   UNL     1       2.759   6.342  19.492  0.00  0.00    +0.000 C 
ENDROOT
BRANCH   1  10
ATOM      2  C   UNL     1       6.263   6.444  17.181  0.00  0.00    +0.000 A 
ATOM      3  C   UNL     1       6.665   5.509  16.304  0.00  0.00    +0.000 A 
ATOM      4  C   UNL     1       5.855   4.292  16.133  0.00  0.00    +0.000 A 
ATOM      5  O   UNL     1       6.208   3.401  15.371  0.00  0.00    +0.000 OA
ATOM      6  C   UNL     1       4.609   4.219  16.910  0.00  0.00    +0.000 A 
ATOM      7  C   UNL     1       3.753   3.130  16.762  0.00  0.00    +0.000 A 
ATOM      8  C   UNL     1       2.572   3.076  17.505  0.00  0.00    +0.000 A 
ATOM      9  C   UNL     1       2.237   4.109  18.391  0.00  0.00    +0.000 A 
ATOM     10  C   UNL     1       3.099   5.217  18.537  0.00  0.00    +0.000 A 
ATOM     11  C   UNL     1       4.294   5.252  17.790  0.00  0.00    +0.000 A 
ATOM     12  O   UNL     1       5.131   6.326  17.968  0.00  0.00    +0.000 OA
BRANCH   2  14
ATOM     13  C   UNL     1       8.198   7.522  18.357  0.00  0.00    +0.000 C 
ATOM     14  C   UNL     1       7.026   7.721  17.405  0.00  0.00    +0.000 C 
ENDBRANCH   2  14
BRANCH   9  15
ATOM     15  O   UNL     1       1.104   4.122  19.163  0.00  0.00    +0.000 OA
ATOM     16  C   UNL     1       1.005   3.152  20.199  0.00  0.00    +0.000 C 
ENDBRANCH   9  15
ENDBRANCH   1  10
BRANCH   1  17
ATOM     17  O   UNL     1       2.373   7.545  18.806  0.00  0.00    +0.000 OA
BRANCH  17  18
ATOM     18  C   UNL     1       1.645   8.429  19.540  0.00  0.00    +0.000 C 
ATOM     19  O   UNL     1       1.209   8.224  20.665  0.00  0.00    +0.000 OA
BRANCH  18  20
ATOM     20  C   UNL     1       1.436   9.715  18.766  0.00  0.00    +0.000 C 
BRANCH  20  21
ATOM     21  C   UNL     1       0.324  10.556  19.338  0.00  0.00    +0.000 A 
ATOM     22  C   UNL     1      -0.943  10.581  18.750  0.00  0.00    +0.000 A 
ATOM     23  C   UNL     1      -1.953  11.420  19.237  0.00  0.00    +0.000 A 
ATOM     24  C   UNL     1      -1.687  12.288  20.324  0.00  0.00    +0.000 A 
ATOM     25  C   UNL     1      -0.407  12.273  20.911  0.00  0.00    +0.000 A 
ATOM     26  C   UNL     1       0.558  11.367  20.447  0.00  0.00    +0.000 A 
BRANCH  23  27
ATOM     27  O   UNL     1      -3.206  11.470  18.661  0.00  0.00    +0.000 OA
ATOM     28  C   UNL     1      -3.234  11.406  17.235  0.00  0.00    +0.000 C 
ENDBRANCH  23  27
BRANCH  24  29
ATOM     29  O   UNL     1      -2.715  13.139  20.670  0.00  0.00    +0.000 OA
ATOM     30  C   UNL     1      -3.468  12.813  21.831  0.00  0.00    +0.000 C 
ENDBRANCH  24  29
BRANCH  25  31
ATOM     31  O   UNL     1      -0.109  13.148  21.927  0.00  0.00    +0.000 OA
ATOM     32  C   UNL     1       0.723  14.253  21.574  0.00  0.00    +0.000 C 
ENDBRANCH  25  31
ENDBRANCH  20  21
ENDBRANCH  18  20
ENDBRANCH  17  18
ENDBRANCH   1  17
TORSDOF 10
ENDMDL
MODEL 8
REMARK VINA RESULT:      -7.0      1.277      2.819
REMARK  Name = 
REMARK  15 active torsions:
REMARK  status: ('A' for Active; 'I' for Inactive)
REMARK    1  A    between atoms: C_1  and  C_2
REMARK    2  A    between atoms: C_2  and  C_3
REMARK    3  A    between atoms: C_10  and  O_11
REMARK    4  A    between atoms: O_11  and  C_12
REMARK    5  A    between atoms: C_13  and  C_14
REMARK    6  A    between atoms: C_14  and  O_15
REMARK    7  A    between atoms: O_15  and  C_16
REMARK    8  A    between atoms: C_16  and  C_18
REMARK    9  A    between atoms: C_18  and  C_19
REMARK   10  A    between atoms: C_21  and  O_22
REMARK   11  A    between atoms: O_22  and  C_23
REMARK   12  A    between atoms: C_24  and  O_25
REMARK   13  A    between atoms: O_25  and  C_26
REMARK   14  A    between atoms: C_27  and  O_28
REMARK   15  A    between atoms: O_28  and  C_29
REMARK                            x       y       z     vdW  Elec       q    Type
REMARK                         _______ _______ _______ _____ _____    ______ ____
ROOT
ATOM      1  C   UNL     1       3.109   6.375  19.493  0.00  0.00    +0.000 C 
ENDROOT
BRANCH   1  10
ATOM      2  C   UNL     1       6.529   6.406  17.058  0.00  0.00    +0.000 A 
ATOM      3  C   UNL     1       6.832   5.512  16.102  0.00  0.00    +0.000 A 
ATOM      4  C   UNL     1       5.933   4.369  15.878  0.00  0.00    +0.000 A 
ATOM      5  O   UNL     1       6.196   3.514  15.042  0.00  0.00    +0.000 OA
ATOM      6  C   UNL     1       4.713   4.325  16.697  0.00  0.00    +0.000 A 
ATOM      7  C   UNL     1       3.777   3.310  16.507  0.00  0.00    +0.000 A 
ATOM      8  C   UNL     1       2.622   3.282  17.290  0.00  0.00    +0.000 A 
ATOM      9  C   UNL     1       2.392   4.269  18.260  0.00  0.00    +0.000 A 
ATOM     10  C   UNL     1       3.335   5.302  18.449  0.00  0.00    +0.000 A 
ATOM     11  C   UNL     1       4.502   5.311  17.659  0.00  0.00    +0.000 A 
ATOM     12  O   UNL     1       5.419   6.309  17.879  0.00  0.00    +0.000 OA
BRANCH   2  14
ATOM     13  C   UNL     1       8.241   7.416  18.587  0.00  0.00    +0.000 C 
ATOM     14  C   UNL     1       7.387   7.609  17.341  0.00  0.00    +0.000 C 
ENDBRANCH   2  14
BRANCH   9  15
ATOM     15  O   UNL     1       1.291   4.303  19.075  0.00  0.00    +0.000 OA
ATOM     16  C   UNL     1       0.903   3.088  19.705  0.00  0.00    +0.000 C 
ENDBRANCH   9  15
ENDBRANCH   1  10
BRANCH   1  17
ATOM     17  O   UNL     1       1.988   7.219  19.178  0.00  0.00    +0.000 OA
BRANCH  17  18
ATOM     18  C   UNL     1       2.252   8.249  18.330  0.00  0.00    +0.000 C 
ATOM     19  O   UNL     1       3.370   8.644  18.024  0.00  0.00    +0.000 OA
BRANCH  18  20
ATOM     20  C   UNL     1       0.964   8.857  17.816  0.00  0.00    +0.000 C 
BRANCH  20  21
ATOM     21  C   UNL     1       0.334   9.797  18.810  0.00  0.00    +0.000 A 
ATOM     22  C   UNL     1       0.720   9.798  20.154  0.00  0.00    +0.000 A 
ATOM     23  C   UNL     1       0.082  10.619  21.092  0.00  0.00    +0.000 A 
ATOM     24  C   UNL     1      -0.997  11.443  20.691  0.00  0.00    +0.000 A 
ATOM     25  C   UNL     1      -1.396  11.436  19.340  0.00  0.00    +0.000 A 
ATOM     26  C   UNL     1      -0.687  10.659  18.413  0.00  0.00    +0.000 A 
BRANCH  23  27
ATOM     27  O   UNL     1       0.439  10.622  22.425  0.00  0.00    +0.000 OA
ATOM     28  C   UNL     1       0.070   9.460  23.167  0.00  0.00    +0.000 C 
ENDBRANCH  23  27
BRANCH  24  29
ATOM     29  O   UNL     1      -1.618  12.143  21.703  0.00  0.00    +0.000 OA
ATOM     30  C   UNL     1      -1.182  13.476  21.937  0.00  0.00    +0.000 C 
ENDBRANCH  24  29
BRANCH  25  31
ATOM     31  O   UNL     1      -2.478  12.182  18.941  0.00  0.00    +0.000 OA
ATOM     32  C   UNL     1      -3.432  11.508  18.121  0.00  0.00    +0.000 C 
ENDBRANCH  25  31
ENDBRANCH  20  21
ENDBRANCH  18  20
ENDBRANCH  17  18
ENDBRANCH   1  17
TORSDOF 10
ENDMDL
MODEL 9
REMARK VINA RESULT:      -7.0      1.062      1.205
REMARK  Name = 
REMARK  15 active torsions:
REMARK  status: ('A' for Active; 'I' for Inactive)
REMARK    1  A    between atoms: C_1  and  C_2
REMARK    2  A    between atoms: C_2  and  C_3
REMARK    3  A    between atoms: C_10  and  O_11
REMARK    4  A    between atoms: O_11  and  C_12
REMARK    5  A    between atoms: C_13  and  C_14
REMARK    6  A    between atoms: C_14  and  O_15
REMARK    7  A    between atoms: O_15  and  C_16
REMARK    8  A    between atoms: C_16  and  C_18
REMARK    9  A    between atoms: C_18  and  C_19
REMARK   10  A    between atoms: C_21  and  O_22
REMARK   11  A    between atoms: O_22  and  C_23
REMARK   12  A    between atoms: C_24  and  O_25
REMARK   13  A    between atoms: O_25  and  C_26
REMARK   14  A    between atoms: C_27  and  O_28
REMARK   15  A    between atoms: O_28  and  C_29
REMARK                            x       y       z     vdW  Elec       q    Type
REMARK                         _______ _______ _______ _____ _____    ______ ____
ROOT
ATOM      1  C   UNL     1       2.808   7.288  17.967  0.00  0.00    +0.000 C 
ENDROOT
BRANCH   1  10
ATOM      2  C   UNL     1       6.970   7.582  17.500  0.00  0.00    +0.000 A 
ATOM      3  C   UNL     1       7.828   6.559  17.351  0.00  0.00    +0.000 A 
ATOM      4  C   UNL     1       7.313   5.181  17.393  0.00  0.00    +0.000 A 
ATOM      5  O   UNL     1       8.069   4.222  17.298  0.00  0.00    +0.000 OA
ATOM      6  C   UNL     1       5.858   5.028  17.538  0.00  0.00    +0.000 A 
ATOM      7  C   UNL     1       5.281   3.760  17.526  0.00  0.00    +0.000 A 
ATOM      8  C   UNL     1       3.898   3.631  17.662  0.00  0.00    +0.000 A 
ATOM      9  C   UNL     1       3.084   4.764  17.804  0.00  0.00    +0.000 A 
ATOM     10  C   UNL     1       3.666   6.050  17.810  0.00  0.00    +0.000 A 
ATOM     11  C   UNL     1       5.066   6.165  17.683  0.00  0.00    +0.000 A 
ATOM     12  O   UNL     1       5.613   7.424  17.719  0.00  0.00    +0.000 OA
BRANCH   2  14
ATOM     13  C   UNL     1       8.583   9.281  18.395  0.00  0.00    +0.000 C 
ATOM     14  C   UNL     1       7.412   9.019  17.456  0.00  0.00    +0.000 C 
ENDBRANCH   2  14
BRANCH   9  15
ATOM     15  O   UNL     1       1.723   4.719  17.956  0.00  0.00    +0.000 OA
ATOM     16  C   UNL     1       1.159   3.516  18.464  0.00  0.00    +0.000 C 
ENDBRANCH   9  15
ENDBRANCH   1  10
BRANCH   1  17
ATOM     17  O   UNL     1       2.099   7.308  19.218  0.00  0.00    +0.000 OA
BRANCH  17  18
ATOM     18  C   UNL     1       1.627   8.524  19.603  0.00  0.00    +0.000 C 
ATOM     19  O   UNL     1       1.377   8.853  20.755  0.00  0.00    +0.000 OA
BRANCH  18  20
ATOM     20  C   UNL     1       1.439   9.426  18.400  0.00  0.00    +0.000 C 
BRANCH  20  21
ATOM     21  C   UNL     1       0.059  10.025  18.340  0.00  0.00    +0.000 A 
ATOM     22  C   UNL     1      -0.901   9.548  17.443  0.00  0.00    +0.000 A 
ATOM     23  C   UNL     1      -2.159  10.154  17.336  0.00  0.00    +0.000 A 
ATOM     24  C   UNL     1      -2.464  11.293  18.119  0.00  0.00    +0.000 A 
ATOM     25  C   UNL     1      -1.493  11.784  19.015  0.00  0.00    +0.000 A 
ATOM     26  C   UNL     1      -0.273  11.108  19.153  0.00  0.00    +0.000 A 
BRANCH  23  27
ATOM     27  O   UNL     1      -3.114   9.706  16.446  0.00  0.00    +0.000 OA
ATOM     28  C   UNL     1      -2.885  10.032  15.076  0.00  0.00    +0.000 C 
ENDBRANCH  23  27
BRANCH  24  29
ATOM     29  O   UNL     1      -3.690  11.872  17.875  0.00  0.00    +0.000 OA
ATOM     30  C   UNL     1      -4.749  11.560  18.771  0.00  0.00    +0.000 C 
ENDBRANCH  24  29
BRANCH  25  31
ATOM     31  O   UNL     1      -1.745  12.923  19.742  0.00  0.00    +0.000 OA
ATOM     32  C   UNL     1      -0.598  13.656  20.168  0.00  0.00    +0.000 C 
ENDBRANCH  25  31
ENDBRANCH  20  21
ENDBRANCH  18  20
ENDBRANCH  17  18
ENDBRANCH   1  17
TORSDOF 10
ENDMDL
