MODEL 1
REMARK VINA RESULT:      -8.5      0.000      0.000
REMARK  Name = 
REMARK  5 active torsions:
REMARK  status: ('A' for Active; 'I' for Inactive)
REMARK    1  A    between atoms: C_2  and  O_3
REMARK    2  A    between atoms: C_2  and  C_21
REMARK    3  A    between atoms: O_3  and  C_4
REMARK    4  A    between atoms: C_8  and  C_9
REMARK    5  A    between atoms: C_25  and  C_26
REMARK                            x       y       z     vdW  Elec       q    Type
REMARK                         _______ _______ _______ _____ _____    ______ ____
ROOT
ATOM      1  C   UNL     1       4.492   4.070  19.101  0.00  0.00    +0.000 A 
ATOM      2  C   UNL     1       3.759   3.128  18.382  0.00  0.00    +0.000 A 
ATOM      3  C   UNL     1       2.368   3.237  18.314  0.00  0.00    +0.000 A 
ATOM      4  C   UNL     1       1.709   4.265  18.989  0.00  0.00    +0.000 A 
ATOM      5  C   UNL     1       2.430   5.200  19.742  0.00  0.00    +0.000 A 
ATOM      6  C   UNL     1       3.833   5.109  19.781  0.00  0.00    +0.000 A 
ENDROOT
BRANCH   5   7
ATOM      7  C   UNL     1       1.656   6.118  20.597  0.00  0.00    +0.000 C 
ATOM      8  C   UNL     1       1.547   7.408  20.243  0.00  0.00    +0.000 C 
ATOM      9  C   UNL     1       2.005   8.003  18.938  0.00  0.00    +0.000 C 
ATOM     10  C   UNL     1       1.636   9.441  19.042  0.00  0.00    +0.000 A 
ATOM     11  C   UNL     1       1.795  10.402  18.058  0.00  0.00    +0.000 A 
ATOM     12  C   UNL     1       1.529  11.728  18.387  0.00  0.00    +0.000 A 
ATOM     13  C   UNL     1       1.110  12.071  19.686  0.00  0.00    +0.000 A 
ATOM     14  C   UNL     1       0.900  11.083  20.659  0.00  0.00    +0.000 A 
ATOM     15  C   UNL     1       1.155   9.768  20.309  0.00  0.00    +0.000 A 
ATOM     16  C   UNL     1       1.023   8.527  21.102  0.00  0.00    +0.000 C 
ATOM     17  O   UNL     1       0.599   8.436  22.240  0.00  0.00    +0.000 OA
ENDBRANCH   5   7
BRANCH   1  18
ATOM     18  O   UNL     1       5.906   3.998  19.271  0.00  0.00    +0.000 OA
BRANCH  18  20
ATOM     19  O   UNL     1       7.947   5.107  18.956  0.00  0.00    +0.000 OA
ATOM     20  C   UNL     1       6.829   4.782  18.583  0.00  0.00    +0.000 C 
BRANCH  20  21
ATOM     21  C   UNL     1       6.311   5.167  17.228  0.00  0.00    +0.000 A 
ATOM     22  C   UNL     1       5.577   6.338  17.010  0.00  0.00    +0.000 A 
ATOM     23  C   UNL     1       5.083   6.633  15.734  0.00  0.00    +0.000 A 
ATOM     24  C   UNL     1       5.331   5.771  14.664  0.00  0.00    +0.000 A 
ATOM     25  C   UNL     1       6.103   4.616  14.845  0.00  0.00    +0.000 A 
ATOM     26  C   UNL     1       6.583   4.320  16.134  0.00  0.00    +0.000 A 
BRANCH  25  27
ATOM     27  C   UNL     1       6.375   3.699  13.682  0.00  0.00    +0.000 C 
ATOM     28 CL   UNL     1       5.010   3.703  12.549  0.00  0.00    +0.000 Cl
ENDBRANCH  25  27
ENDBRANCH  20  21
ENDBRANCH  18  20
ENDBRANCH   1  18
TORSDOF 5
ENDMDL
MODEL 2
REMARK VINA RESULT:      -8.4      2.704      3.751
REMARK  Name = 
REMARK  5 active torsions:
REMARK  status: ('A' for Active; 'I' for Inactive)
REMARK    1  A    between atoms: C_2  and  O_3
REMARK    2  A    between atoms: C_2  and  C_21
REMARK    3  A    between atoms: O_3  and  C_4
REMARK    4  A    between atoms: C_8  and  C_9
REMARK    5  A    between atoms: C_25  and  C_26
REMARK                            x       y       z     vdW  Elec       q    Type
REMARK                         _______ _______ _______ _____ _____    ______ ____
ROOT
ATOM      1  C   UNL     1       4.025   4.582  17.858  0.00  0.00    +0.000 A 
ATOM      2  C   UNL     1       3.847   4.041  19.130  0.00  0.00    +0.000 A 
ATOM      3  C   UNL     1       3.106   4.741  20.084  0.00  0.00    +0.000 A 
ATOM      4  C   UNL     1       2.572   5.994  19.781  0.00  0.00    +0.000 A 
ATOM      5  C   UNL     1       2.770   6.565  18.517  0.00  0.00    +0.000 A 
ATOM      6  C   UNL     1       3.486   5.844  17.546  0.00  0.00    +0.000 A 
ENDROOT
BRANCH   5   7
ATOM      7  C   UNL     1       2.367   7.973  18.343  0.00  0.00    +0.000 C 
ATOM      8  C   UNL     1       1.693   8.588  19.327  0.00  0.00    +0.000 C 
ATOM      9  C   UNL     1       1.440   8.028  20.702  0.00  0.00    +0.000 C 
ATOM     10  C   UNL     1       0.680   9.101  21.399  0.00  0.00    +0.000 A 
ATOM     11  C   UNL     1       0.266   9.087  22.721  0.00  0.00    +0.000 A 
ATOM     12  C   UNL     1      -0.564  10.115  23.159  0.00  0.00    +0.000 A 
ATOM     13  C   UNL     1      -0.965  11.134  22.276  0.00  0.00    +0.000 A 
ATOM     14  C   UNL     1      -0.496  11.167  20.954  0.00  0.00    +0.000 A 
ATOM     15  C   UNL     1       0.341  10.145  20.541  0.00  0.00    +0.000 A 
ATOM     16  C   UNL     1       0.990   9.914  19.233  0.00  0.00    +0.000 C 
ATOM     17  O   UNL     1       0.938  10.645  18.259  0.00  0.00    +0.000 OA
ENDBRANCH   5   7
BRANCH   1  18
ATOM     18  O   UNL     1       4.816   3.963  16.846  0.00  0.00    +0.000 OA
BRANCH  18  20
ATOM     19  O   UNL     1       6.143   4.546  15.004  0.00  0.00    +0.000 OA
ATOM     20  C   UNL     1       5.892   4.568  16.200  0.00  0.00    +0.000 C 
BRANCH  20  21
ATOM     21  C   UNL     1       6.738   5.345  17.166  0.00  0.00    +0.000 A 
ATOM     22  C   UNL     1       7.353   4.750  18.274  0.00  0.00    +0.000 A 
ATOM     23  C   UNL     1       8.100   5.527  19.166  0.00  0.00    +0.000 A 
ATOM     24  C   UNL     1       8.254   6.898  18.952  0.00  0.00    +0.000 A 
ATOM     25  C   UNL     1       7.689   7.510  17.826  0.00  0.00    +0.000 A 
ATOM     26  C   UNL     1       6.926   6.724  16.941  0.00  0.00    +0.000 A 
BRANCH  25  27
ATOM     27  C   UNL     1       7.871   8.987  17.597  0.00  0.00    +0.000 C 
ATOM     28 CL   UNL     1       8.956   9.680  18.817  0.00  0.00    +0.000 Cl
ENDBRANCH  25  27
ENDBRANCH  20  21
ENDBRANCH  18  20
ENDBRANCH   1  18
TORSDOF 5
ENDMDL
MODEL 3
REMARK VINA RESULT:      -8.3      2.411      3.686
REMARK  Name = 
REMARK  5 active torsions:
REMARK  status: ('A' for Active; 'I' for Inactive)
REMARK    1  A    between atoms: C_2  and  O_3
REMARK    2  A    between atoms: C_2  and  C_21
REMARK    3  A    between atoms: O_3  and  C_4
REMARK    4  A    between atoms: C_8  and  C_9
REMARK    5  A    between atoms: C_25  and  C_26
REMARK                            x       y       z     vdW  Elec       q    Type
REMARK                         _______ _______ _______ _____ _____    ______ ____
ROOT
ATOM      1  C   UNL     1       2.388   5.817  18.708  0.00  0.00    +0.000 A 
ATOM      2  C   UNL     1       2.516   6.742  17.674  0.00  0.00    +0.000 A 
ATOM      3  C   UNL     1       2.332   8.102  17.933  0.00  0.00    +0.000 A 
ATOM      4  C   UNL     1       1.987   8.535  19.215  0.00  0.00    +0.000 A 
ATOM      5  C   UNL     1       1.822   7.613  20.256  0.00  0.00    +0.000 A 
ATOM      6  C   UNL     1       2.042   6.248  20.002  0.00  0.00    +0.000 A 
ENDROOT
BRANCH   5   7
ATOM      7  C   UNL     1       1.248   8.117  21.518  0.00  0.00    +0.000 C 
ATOM      8  C   UNL     1       0.447   9.193  21.489  0.00  0.00    +0.000 C 
ATOM      9  C   UNL     1      -0.079   9.865  20.247  0.00  0.00    +0.000 C 
ATOM     10  C   UNL     1      -0.923  10.977  20.763  0.00  0.00    +0.000 A 
ATOM     11  C   UNL     1      -1.680  11.852  20.003  0.00  0.00    +0.000 A 
ATOM     12  C   UNL     1      -2.289  12.924  20.650  0.00  0.00    +0.000 A 
ATOM     13  C   UNL     1      -2.134  13.103  22.036  0.00  0.00    +0.000 A 
ATOM     14  C   UNL     1      -1.410  12.179  22.805  0.00  0.00    +0.000 A 
ATOM     15  C   UNL     1      -0.824  11.111  22.147  0.00  0.00    +0.000 A 
ATOM     16  C   UNL     1      -0.019   9.990  22.677  0.00  0.00    +0.000 C 
ATOM     17  O   UNL     1       0.240   9.773  23.848  0.00  0.00    +0.000 OA
ENDBRANCH   5   7
BRANCH   1  18
ATOM     18  O   UNL     1       2.499   4.409  18.518  0.00  0.00    +0.000 OA
BRANCH  18  20
ATOM     19  O   UNL     1       3.689   2.688  19.576  0.00  0.00    +0.000 OA
ATOM     20  C   UNL     1       3.628   3.653  18.828  0.00  0.00    +0.000 C 
BRANCH  20  21
ATOM     21  C   UNL     1       4.828   4.131  18.064  0.00  0.00    +0.000 A 
ATOM     22  C   UNL     1       5.043   3.804  16.721  0.00  0.00    +0.000 A 
ATOM     23  C   UNL     1       6.198   4.243  16.064  0.00  0.00    +0.000 A 
ATOM     24  C   UNL     1       7.139   5.024  16.737  0.00  0.00    +0.000 A 
ATOM     25  C   UNL     1       6.927   5.405  18.068  0.00  0.00    +0.000 A 
ATOM     26  C   UNL     1       5.770   4.947  18.726  0.00  0.00    +0.000 A 
BRANCH  25  27
ATOM     27  C   UNL     1       7.942   6.258  18.782  0.00  0.00    +0.000 C 
ATOM     28 CL   UNL     1       8.030   7.871  18.049  0.00  0.00    +0.000 Cl
ENDBRANCH  25  27
ENDBRANCH  20  21
ENDBRANCH  18  20
ENDBRANCH   1  18
TORSDOF 5
ENDMDL
MODEL 4
REMARK VINA RESULT:      -8.2      4.878      9.610
REMARK  Name = 
REMARK  5 active torsions:
REMARK  status: ('A' for Active; 'I' for Inactive)
REMARK    1  A    between atoms: C_2  and  O_3
REMARK    2  A    between atoms: C_2  and  C_21
REMARK    3  A    between atoms: O_3  and  C_4
REMARK    4  A    between atoms: C_8  and  C_9
REMARK    5  A    between atoms: C_25  and  C_26
REMARK                            x       y       z     vdW  Elec       q    Type
REMARK                         _______ _______ _______ _____ _____    ______ ____
ROOT
ATOM      1  C   UNL     1      -0.143  10.235  18.736  0.00  0.00    +0.000 A 
ATOM      2  C   UNL     1      -0.355   9.879  20.066  0.00  0.00    +0.000 A 
ATOM      3  C   UNL     1       0.549   9.031  20.710  0.00  0.00    +0.000 A 
ATOM      4  C   UNL     1       1.644   8.512  20.016  0.00  0.00    +0.000 A 
ATOM      5  C   UNL     1       1.851   8.835  18.669  0.00  0.00    +0.000 A 
ATOM      6  C   UNL     1       0.959   9.717  18.033  0.00  0.00    +0.000 A 
ENDROOT
BRANCH   5   7
ATOM      7  C   UNL     1       2.894   8.083  17.949  0.00  0.00    +0.000 C 
ATOM      8  C   UNL     1       2.844   6.742  17.935  0.00  0.00    +0.000 C 
ATOM      9  C   UNL     1       1.708   5.900  18.454  0.00  0.00    +0.000 C 
ATOM     10  C   UNL     1       2.138   4.500  18.184  0.00  0.00    +0.000 A 
ATOM     11  C   UNL     1       1.399   3.354  18.425  0.00  0.00    +0.000 A 
ATOM     12  C   UNL     1       2.023   2.122  18.248  0.00  0.00    +0.000 A 
ATOM     13  C   UNL     1       3.365   2.055  17.835  0.00  0.00    +0.000 A 
ATOM     14  C   UNL     1       4.088   3.221  17.541  0.00  0.00    +0.000 A 
ATOM     15  C   UNL     1       3.446   4.437  17.708  0.00  0.00    +0.000 A 
ATOM     16  C   UNL     1       3.935   5.813  17.478  0.00  0.00    +0.000 C 
ATOM     17  O   UNL     1       5.024   6.130  17.032  0.00  0.00    +0.000 OA
ENDBRANCH   5   7
BRANCH   1  18
ATOM     18  O   UNL     1      -1.047  11.045  17.988  0.00  0.00    +0.000 OA
BRANCH  18  20
ATOM     19  O   UNL     1      -2.160   9.672  16.447  0.00  0.00    +0.000 OA
ATOM     20  C   UNL     1      -2.150  10.562  17.285  0.00  0.00    +0.000 C 
BRANCH  20  21
ATOM     21  C   UNL     1      -3.413  11.243  17.723  0.00  0.00    +0.000 A 
ATOM     22  C   UNL     1      -4.533  11.357  16.891  0.00  0.00    +0.000 A 
ATOM     23  C   UNL     1      -5.674  12.036  17.334  0.00  0.00    +0.000 A 
ATOM     24  C   UNL     1      -5.713  12.591  18.614  0.00  0.00    +0.000 A 
ATOM     25  C   UNL     1      -4.624  12.452  19.484  0.00  0.00    +0.000 A 
ATOM     26  C   UNL     1      -3.475  11.780  19.026  0.00  0.00    +0.000 A 
BRANCH  25  27
ATOM     27  C   UNL     1      -4.681  13.044  20.867  0.00  0.00    +0.000 C 
ATOM     28 CL   UNL     1      -6.180  12.572  21.689  0.00  0.00    +0.000 Cl
ENDBRANCH  25  27
ENDBRANCH  20  21
ENDBRANCH  18  20
ENDBRANCH   1  18
TORSDOF 5
ENDMDL
MODEL 5
REMARK VINA RESULT:      -8.2      2.075      3.278
REMARK  Name = 
REMARK  5 active torsions:
REMARK  status: ('A' for Active; 'I' for Inactive)
REMARK    1  A    between atoms: C_2  and  O_3
REMARK    2  A    between atoms: C_2  and  C_21
REMARK    3  A    between atoms: O_3  and  C_4
REMARK    4  A    between atoms: C_8  and  C_9
REMARK    5  A    between atoms: C_25  and  C_26
REMARK                            x       y       z     vdW  Elec       q    Type
REMARK                         _______ _______ _______ _____ _____    ______ ____
ROOT
ATOM      1  C   UNL     1       2.567   5.942  18.891  0.00  0.00    +0.000 A 
ATOM      2  C   UNL     1       2.625   6.794  17.790  0.00  0.00    +0.000 A 
ATOM      3  C   UNL     1       2.309   8.146  17.941  0.00  0.00    +0.000 A 
ATOM      4  C   UNL     1       1.903   8.639  19.182  0.00  0.00    +0.000 A 
ATOM      5  C   UNL     1       1.807   7.788  20.290  0.00  0.00    +0.000 A 
ATOM      6  C   UNL     1       2.160   6.434  20.144  0.00  0.00    +0.000 A 
ENDROOT
BRANCH   5   7
ATOM      7  C   UNL     1       1.167   8.329  21.503  0.00  0.00    +0.000 C 
ATOM      8  C   UNL     1       0.327   9.370  21.391  0.00  0.00    +0.000 C 
ATOM      9  C   UNL     1      -0.174   9.960  20.100  0.00  0.00    +0.000 C 
ATOM     10  C   UNL     1      -1.078  11.062  20.528  0.00  0.00    +0.000 A 
ATOM     11  C   UNL     1      -1.838  11.870  19.698  0.00  0.00    +0.000 A 
ATOM     12  C   UNL     1      -2.510  12.947  20.268  0.00  0.00    +0.000 A 
ATOM     13  C   UNL     1      -2.416  13.198  21.649  0.00  0.00    +0.000 A 
ATOM     14  C   UNL     1      -1.688  12.341  22.489  0.00  0.00    +0.000 A 
ATOM     15  C   UNL     1      -1.038  11.267  21.907  0.00  0.00    +0.000 A 
ATOM     16  C   UNL     1      -0.213  10.204  22.520  0.00  0.00    +0.000 C 
ATOM     17  O   UNL     1       0.008  10.054  23.709  0.00  0.00    +0.000 OA
ENDBRANCH   5   7
BRANCH   1  18
ATOM     18  O   UNL     1       2.814   4.540  18.811  0.00  0.00    +0.000 OA
BRANCH  18  20
ATOM     19  O   UNL     1       2.463   3.194  16.924  0.00  0.00    +0.000 OA
ATOM     20  C   UNL     1       3.184   3.864  17.650  0.00  0.00    +0.000 C 
BRANCH  20  21
ATOM     21  C   UNL     1       4.629   4.098  17.322  0.00  0.00    +0.000 A 
ATOM     22  C   UNL     1       5.593   4.340  18.306  0.00  0.00    +0.000 A 
ATOM     23  C   UNL     1       6.922   4.591  17.945  0.00  0.00    +0.000 A 
ATOM     24  C   UNL     1       7.301   4.585  16.601  0.00  0.00    +0.000 A 
ATOM     25  C   UNL     1       6.366   4.300  15.598  0.00  0.00    +0.000 A 
ATOM     26  C   UNL     1       5.029   4.064  15.970  0.00  0.00    +0.000 A 
BRANCH  25  27
ATOM     27  C   UNL     1       6.788   4.285  14.153  0.00  0.00    +0.000 C 
ATOM     28 CL   UNL     1       5.409   3.908  13.103  0.00  0.00    +0.000 Cl
ENDBRANCH  25  27
ENDBRANCH  20  21
ENDBRANCH  18  20
ENDBRANCH   1  18
TORSDOF 5
ENDMDL
MODEL 6
REMARK VINA RESULT:      -8.1      2.246      3.828
REMARK  Name = 
REMARK  5 active torsions:
REMARK  status: ('A' for Active; 'I' for Inactive)
REMARK    1  A    between atoms: C_2  and  O_3
REMARK    2  A    between atoms: C_2  and  C_21
REMARK    3  A    between atoms: O_3  and  C_4
REMARK    4  A    between atoms: C_8  and  C_9
REMARK    5  A    between atoms: C_25  and  C_26
REMARK                            x       y       z     vdW  Elec       q    Type
REMARK                         _______ _______ _______ _____ _____    ______ ____
ROOT
ATOM      1  C   UNL     1       6.333   4.198  16.655  0.00  0.00    +0.000 A 
ATOM      2  C   UNL     1       7.483   4.808  17.152  0.00  0.00    +0.000 A 
ATOM      3  C   UNL     1       7.477   5.359  18.436  0.00  0.00    +0.000 A 
ATOM      4  C   UNL     1       6.315   5.332  19.208  0.00  0.00    +0.000 A 
ATOM      5  C   UNL     1       5.142   4.752  18.709  0.00  0.00    +0.000 A 
ATOM      6  C   UNL     1       5.160   4.166  17.430  0.00  0.00    +0.000 A 
ENDROOT
BRANCH   5   7
ATOM      7  C   UNL     1       3.906   4.953  19.487  0.00  0.00    +0.000 C 
ATOM      8  C   UNL     1       3.199   6.081  19.314  0.00  0.00    +0.000 C 
ATOM      9  C   UNL     1       3.452   7.123  18.257  0.00  0.00    +0.000 C 
ATOM     10  C   UNL     1       2.391   8.141  18.486  0.00  0.00    +0.000 A 
ATOM     11  C   UNL     1       2.161   9.273  17.722  0.00  0.00    +0.000 A 
ATOM     12  C   UNL     1       1.216  10.190  18.175  0.00  0.00    +0.000 A 
ATOM     13  C   UNL     1       0.519   9.962  19.375  0.00  0.00    +0.000 A 
ATOM     14  C   UNL     1       0.721   8.786  20.113  0.00  0.00    +0.000 A 
ATOM     15  C   UNL     1       1.653   7.879  19.639  0.00  0.00    +0.000 A 
ATOM     16  C   UNL     1       2.073   6.570  20.184  0.00  0.00    +0.000 C 
ATOM     17  O   UNL     1       1.614   6.012  21.165  0.00  0.00    +0.000 OA
ENDBRANCH   5   7
BRANCH   1  18
ATOM     18  O   UNL     1       6.236   3.666  15.337  0.00  0.00    +0.000 OA
BRANCH  18  20
ATOM     19  O   UNL     1       6.992   5.496  14.081  0.00  0.00    +0.000 OA
ATOM     20  C   UNL     1       6.491   4.384  14.170  0.00  0.00    +0.000 C 
BRANCH  20  21
ATOM     21  C   UNL     1       6.123   3.590  12.952  0.00  0.00    +0.000 A 
ATOM     22  C   UNL     1       7.034   2.757  12.293  0.00  0.00    +0.000 A 
ATOM     23  C   UNL     1       6.651   2.067  11.137  0.00  0.00    +0.000 A 
ATOM     24  C   UNL     1       5.353   2.190  10.639  0.00  0.00    +0.000 A 
ATOM     25  C   UNL     1       4.407   2.980  11.305  0.00  0.00    +0.000 A 
ATOM     26  C   UNL     1       4.805   3.682  12.458  0.00  0.00    +0.000 A 
BRANCH  25  27
ATOM     27  C   UNL     1       3.006   3.096  10.766  0.00  0.00    +0.000 C 
ATOM     28 CL   UNL     1       2.937   4.285   9.452  0.00  0.00    +0.000 Cl
ENDBRANCH  25  27
ENDBRANCH  20  21
ENDBRANCH  18  20
ENDBRANCH   1  18
TORSDOF 5
ENDMDL
MODEL 7
REMARK VINA RESULT:      -8.1      1.870      2.917
REMARK  Name = 
REMARK  5 active torsions:
REMARK  status: ('A' for Active; 'I' for Inactive)
REMARK    1  A    between atoms: C_2  and  O_3
REMARK    2  A    between atoms: C_2  and  C_21
REMARK    3  A    between atoms: O_3  and  C_4
REMARK    4  A    between atoms: C_8  and  C_9
REMARK    5  A    between atoms: C_25  and  C_26
REMARK                            x       y       z     vdW  Elec       q    Type
REMARK                         _______ _______ _______ _____ _____    ______ ____
ROOT
ATOM      1  C   UNL     1       4.692   4.883  17.242  0.00  0.00    +0.000 A 
ATOM      2  C   UNL     1       3.860   3.986  17.909  0.00  0.00    +0.000 A 
ATOM      3  C   UNL     1       2.615   4.412  18.378  0.00  0.00    +0.000 A 
ATOM      4  C   UNL     1       2.216   5.739  18.212  0.00  0.00    +0.000 A 
ATOM      5  C   UNL     1       3.057   6.660  17.573  0.00  0.00    +0.000 A 
ATOM      6  C   UNL     1       4.294   6.222  17.070  0.00  0.00    +0.000 A 
ENDROOT
BRANCH   5   7
ATOM      7  C   UNL     1       2.666   8.081  17.629  0.00  0.00    +0.000 C 
ATOM      8  C   UNL     1       2.072   8.554  18.735  0.00  0.00    +0.000 C 
ATOM      9  C   UNL     1       1.906   7.806  20.032  0.00  0.00    +0.000 C 
ATOM     10  C   UNL     1       1.214   8.774  20.926  0.00  0.00    +0.000 A 
ATOM     11  C   UNL     1       0.893   8.576  22.259  0.00  0.00    +0.000 A 
ATOM     12  C   UNL     1       0.112   9.536  22.895  0.00  0.00    +0.000 A 
ATOM     13  C   UNL     1      -0.332  10.673  22.196  0.00  0.00    +0.000 A 
ATOM     14  C   UNL     1       0.044  10.891  20.862  0.00  0.00    +0.000 A 
ATOM     15  C   UNL     1       0.834   9.933  20.250  0.00  0.00    +0.000 A 
ATOM     16  C   UNL     1       1.386   9.885  18.879  0.00  0.00    +0.000 C 
ATOM     17  O   UNL     1       1.279  10.747  18.025  0.00  0.00    +0.000 OA
ENDBRANCH   5   7
BRANCH   1  18
ATOM     18  O   UNL     1       6.000   4.548  16.786  0.00  0.00    +0.000 OA
BRANCH  18  20
ATOM     19  O   UNL     1       7.480   6.356  16.595  0.00  0.00    +0.000 OA
ATOM     20  C   UNL     1       6.855   5.420  16.116  0.00  0.00    +0.000 C 
BRANCH  20  21
ATOM     21  C   UNL     1       6.990   5.045  14.669  0.00  0.00    +0.000 A 
ATOM     22  C   UNL     1       7.958   5.612  13.833  0.00  0.00    +0.000 A 
ATOM     23  C   UNL     1       8.017   5.256  12.481  0.00  0.00    +0.000 A 
ATOM     24  C   UNL     1       7.123   4.321  11.957  0.00  0.00    +0.000 A 
ATOM     25  C   UNL     1       6.174   3.704  12.782  0.00  0.00    +0.000 A 
ATOM     26  C   UNL     1       6.111   4.079  14.137  0.00  0.00    +0.000 A 
BRANCH  25  27
ATOM     27  C   UNL     1       5.221   2.688  12.209  0.00  0.00    +0.000 C 
ATOM     28 CL   UNL     1       6.088   1.520  11.195  0.00  0.00    +0.000 Cl
ENDBRANCH  25  27
ENDBRANCH  20  21
ENDBRANCH  18  20
ENDBRANCH   1  18
TORSDOF 5
ENDMDL
MODEL 8
REMARK VINA RESULT:      -8.0      4.233      8.610
REMARK  Name = 
REMARK  5 active torsions:
REMARK  status: ('A' for Active; 'I' for Inactive)
REMARK    1  A    between atoms: C_2  and  O_3
REMARK    2  A    between atoms: C_2  and  C_21
REMARK    3  A    between atoms: O_3  and  C_4
REMARK    4  A    between atoms: C_8  and  C_9
REMARK    5  A    between atoms: C_25  and  C_26
REMARK                            x       y       z     vdW  Elec       q    Type
REMARK                         _______ _______ _______ _____ _____    ______ ____
ROOT
ATOM      1  C   UNL     1       0.827  10.244  19.716  0.00  0.00    +0.000 A 
ATOM      2  C   UNL     1       0.512  10.642  21.014  0.00  0.00    +0.000 A 
ATOM      3  C   UNL     1       0.727   9.764  22.080  0.00  0.00    +0.000 A 
ATOM      4  C   UNL     1       1.224   8.481  21.846  0.00  0.00    +0.000 A 
ATOM      5  C   UNL     1       1.514   8.056  20.543  0.00  0.00    +0.000 A 
ATOM      6  C   UNL     1       1.330   8.953  19.476  0.00  0.00    +0.000 A 
ENDROOT
BRANCH   5   7
ATOM      7  C   UNL     1       1.824   6.628  20.354  0.00  0.00    +0.000 C 
ATOM      8  C   UNL     1       2.612   6.258  19.333  0.00  0.00    +0.000 C 
ATOM      9  C   UNL     1       3.373   7.191  18.428  0.00  0.00    +0.000 C 
ATOM     10  C   UNL     1       4.095   6.286  17.493  0.00  0.00    +0.000 A 
ATOM     11  C   UNL     1       4.986   6.668  16.504  0.00  0.00    +0.000 A 
ATOM     12  C   UNL     1       5.451   5.692  15.627  0.00  0.00    +0.000 A 
ATOM     13  C   UNL     1       5.023   4.358  15.751  0.00  0.00    +0.000 A 
ATOM     14  C   UNL     1       4.162   3.972  16.790  0.00  0.00    +0.000 A 
ATOM     15  C   UNL     1       3.722   4.953  17.662  0.00  0.00    +0.000 A 
ATOM     16  C   UNL     1       2.830   4.855  18.837  0.00  0.00    +0.000 C 
ATOM     17  O   UNL     1       2.344   3.835  19.294  0.00  0.00    +0.000 OA
ENDBRANCH   5   7
BRANCH   1  18
ATOM     18  O   UNL     1       0.584  11.053  18.568  0.00  0.00    +0.000 OA
BRANCH  18  20
ATOM     19  O   UNL     1      -0.323  13.214  18.626  0.00  0.00    +0.000 OA
ATOM     20  C   UNL     1      -0.428  12.006  18.469  0.00  0.00    +0.000 C 
BRANCH  20  21
ATOM     21  C   UNL     1      -1.731  11.376  18.071  0.00  0.00    +0.000 A 
ATOM     22  C   UNL     1      -1.803  10.294  17.187  0.00  0.00    +0.000 A 
ATOM     23  C   UNL     1      -3.045   9.767  16.817  0.00  0.00    +0.000 A 
ATOM     24  C   UNL     1      -4.223  10.305  17.338  0.00  0.00    +0.000 A 
ATOM     25  C   UNL     1      -4.178  11.358  18.260  0.00  0.00    +0.000 A 
ATOM     26  C   UNL     1      -2.925  11.892  18.615  0.00  0.00    +0.000 A 
BRANCH  25  27
ATOM     27  C   UNL     1      -5.454  11.923  18.825  0.00  0.00    +0.000 C 
ATOM     28 CL   UNL     1      -6.800  10.794  18.581  0.00  0.00    +0.000 Cl
ENDBRANCH  25  27
ENDBRANCH  20  21
ENDBRANCH  18  20
ENDBRANCH   1  18
TORSDOF 5
ENDMDL
MODEL 9
REMARK VINA RESULT:      -7.9      3.607      8.356
REMARK  Name = 
REMARK  5 active torsions:
REMARK  status: ('A' for Active; 'I' for Inactive)
REMARK    1  A    between atoms: C_2  and  O_3
REMARK    2  A    between atoms: C_2  and  C_21
REMARK    3  A    between atoms: O_3  and  C_4
REMARK    4  A    between atoms: C_8  and  C_9
REMARK    5  A    between atoms: C_25  and  C_26
REMARK                            x       y       z     vdW  Elec       q    Type
REMARK                         _______ _______ _______ _____ _____    ______ ____
ROOT
ATOM      1  C   UNL     1       0.845  10.218  19.708  0.00  0.00    +0.000 A 
ATOM      2  C   UNL     1       0.553  10.609  21.014  0.00  0.00    +0.000 A 
ATOM      3  C   UNL     1       0.777   9.722  22.070  0.00  0.00    +0.000 A 
ATOM      4  C   UNL     1       1.261   8.437  21.819  0.00  0.00    +0.000 A 
ATOM      5  C   UNL     1       1.528   8.020  20.509  0.00  0.00    +0.000 A 
ATOM      6  C   UNL     1       1.335   8.925  19.451  0.00  0.00    +0.000 A 
ENDROOT
BRANCH   5   7
ATOM      7  C   UNL     1       1.825   6.590  20.305  0.00  0.00    +0.000 C 
ATOM      8  C   UNL     1       2.620   6.225  19.287  0.00  0.00    +0.000 C 
ATOM      9  C   UNL     1       3.401   7.162  18.402  0.00  0.00    +0.000 C 
ATOM     10  C   UNL     1       4.123   6.260  17.464  0.00  0.00    +0.000 A 
ATOM     11  C   UNL     1       5.029   6.646  16.490  0.00  0.00    +0.000 A 
ATOM     12  C   UNL     1       5.493   5.676  15.605  0.00  0.00    +0.000 A 
ATOM     13  C   UNL     1       5.049   4.345  15.708  0.00  0.00    +0.000 A 
ATOM     14  C   UNL     1       4.173   3.955  16.732  0.00  0.00    +0.000 A 
ATOM     15  C   UNL     1       3.734   4.930  17.612  0.00  0.00    +0.000 A 
ATOM     16  C   UNL     1       2.829   4.826  18.776  0.00  0.00    +0.000 C 
ATOM     17  O   UNL     1       2.327   3.806  19.215  0.00  0.00    +0.000 OA
ENDBRANCH   5   7
BRANCH   1  18
ATOM     18  O   UNL     1       0.590  11.037  18.570  0.00  0.00    +0.000 OA
BRANCH  18  20
ATOM     19  O   UNL     1       0.450  13.377  18.638  0.00  0.00    +0.000 OA
ATOM     20  C   UNL     1      -0.064  12.267  18.608  0.00  0.00    +0.000 C 
BRANCH  20  21
ATOM     21  C   UNL     1      -1.553  12.093  18.547  0.00  0.00    +0.000 A 
ATOM     22  C   UNL     1      -2.395  12.451  19.606  0.00  0.00    +0.000 A 
ATOM     23  C   UNL     1      -3.775  12.232  19.515  0.00  0.00    +0.000 A 
ATOM     24  C   UNL     1      -4.326  11.671  18.362  0.00  0.00    +0.000 A 
ATOM     25  C   UNL     1      -3.512  11.346  17.269  0.00  0.00    +0.000 A 
ATOM     26  C   UNL     1      -2.124  11.556  17.375  0.00  0.00    +0.000 A 
BRANCH  25  27
ATOM     27  C   UNL     1      -4.118  10.753  16.025  0.00  0.00    +0.000 C 
ATOM     28 CL   UNL     1      -2.858  10.371  14.836  0.00  0.00    +0.000 Cl
ENDBRANCH  25  27
ENDBRANCH  20  21
ENDBRANCH  18  20
ENDBRANCH   1  18
TORSDOF 5
ENDMDL
