MODEL 1
REMARK VINA RESULT:      -5.4      0.000      0.000
REMARK  Name = 
REMARK  2 active torsions:
REMARK  status: ('A' for Active; 'I' for Inactive)
REMARK    1  A    between atoms: C_1  and  C_2
REMARK    2  A    between atoms: C_4  and  C_5
REMARK                            x       y       z     vdW  Elec       q    Type
REMARK                         _______ _______ _______ _____ _____    ______ ____
ROOT
ATOM      1  C   UNL     1       2.616   2.086  19.092  0.00  0.00    +0.000 C 
ATOM      2  C   UNL     1       3.840   2.555  18.312  0.00  0.00    +0.000 C 
ATOM      3  C   UNL     1       3.510   3.720  17.376  0.00  0.00    +0.000 C 
ATOM      4  C   UNL     1       4.605   4.757  17.606  0.00  0.00    +0.000 C 
ATOM      5  C   UNL     1       5.088   4.441  19.018  0.00  0.00    +0.000 C 
ATOM      6  N   UNL     1       4.924   2.993  19.198  0.00  0.00    +0.000 NA
ATOM      7  H   UNL     1       4.737   2.773  20.174  0.00  0.00    +0.000 HD
ENDROOT
BRANCH   4   8
ATOM      8  C   UNL     1       5.679   4.724  16.564  0.00  0.00    +0.000 A 
ATOM      9  C   UNL     1       7.002   5.105  16.638  0.00  0.00    +0.000 A 
ATOM     10  N   UNL     1       7.530   4.834  15.410  0.00  0.00    +0.000 N 
ATOM     11  C   UNL     1       6.535   4.303  14.642  0.00  0.00    +0.000 A 
ATOM     12  N   UNL     1       5.406   4.223  15.308  0.00  0.00    +0.000 NA
ATOM     13  H   UNL     1       8.483   4.991  15.117  0.00  0.00    +0.000 HD
ENDBRANCH   4   8
TORSDOF 1
ENDMDL
MODEL 2
REMARK VINA RESULT:      -5.4      1.870      2.553
REMARK  Name = 
REMARK  2 active torsions:
REMARK  status: ('A' for Active; 'I' for Inactive)
REMARK    1  A    between atoms: C_1  and  C_2
REMARK    2  A    between atoms: C_4  and  C_5
REMARK                            x       y       z     vdW  Elec       q    Type
REMARK                         _______ _______ _______ _____ _____    ______ ____
ROOT
ATOM      1  C   UNL     1       4.532   5.275  19.435  0.00  0.00    +0.000 C 
ATOM      2  C   UNL     1       5.099   4.748  18.122  0.00  0.00    +0.000 C 
ATOM      3  C   UNL     1       5.397   5.878  17.133  0.00  0.00    +0.000 C 
ATOM      4  C   UNL     1       6.797   5.599  16.596  0.00  0.00    +0.000 C 
ATOM      5  C   UNL     1       7.431   4.764  17.704  0.00  0.00    +0.000 C 
ATOM      6  N   UNL     1       6.342   3.995  18.319  0.00  0.00    +0.000 NA
ATOM      7  H   UNL     1       6.537   3.824  19.304  0.00  0.00    +0.000 HD
ENDROOT
BRANCH   4   8
ATOM      8  C   UNL     1       6.794   4.939  15.252  0.00  0.00    +0.000 A 
ATOM      9  C   UNL     1       6.037   3.889  14.779  0.00  0.00    +0.000 A 
ATOM     10  N   UNL     1       6.421   3.717  13.481  0.00  0.00    +0.000 N 
ATOM     11  C   UNL     1       7.377   4.651  13.208  0.00  0.00    +0.000 A 
ATOM     12  N   UNL     1       7.625   5.404  14.255  0.00  0.00    +0.000 NA
ATOM     13  H   UNL     1       6.063   3.029  12.834  0.00  0.00    +0.000 HD
ENDBRANCH   4   8
TORSDOF 1
ENDMDL
MODEL 3
REMARK VINA RESULT:      -5.3      1.403      1.802
REMARK  Name = 
REMARK  2 active torsions:
REMARK  status: ('A' for Active; 'I' for Inactive)
REMARK    1  A    between atoms: C_1  and  C_2
REMARK    2  A    between atoms: C_4  and  C_5
REMARK                            x       y       z     vdW  Elec       q    Type
REMARK                         _______ _______ _______ _____ _____    ______ ____
ROOT
ATOM      1  C   UNL     1       1.804   2.250  19.067  0.00  0.00    +0.000 C 
ATOM      2  C   UNL     1       3.218   2.787  18.878  0.00  0.00    +0.000 C 
ATOM      3  C   UNL     1       3.514   3.117  17.412  0.00  0.00    +0.000 C 
ATOM      4  C   UNL     1       4.154   4.502  17.422  0.00  0.00    +0.000 C 
ATOM      5  C   UNL     1       3.630   5.115  18.716  0.00  0.00    +0.000 C 
ATOM      6  N   UNL     1       3.457   4.005  19.661  0.00  0.00    +0.000 NA
ATOM      7  H   UNL     1       2.696   4.201  20.308  0.00  0.00    +0.000 HD
ENDROOT
BRANCH   4   8
ATOM      8  C   UNL     1       5.647   4.464  17.317  0.00  0.00    +0.000 A 
ATOM      9  C   UNL     1       6.457   4.290  16.215  0.00  0.00    +0.000 A 
ATOM     10  N   UNL     1       7.735   4.369  16.684  0.00  0.00    +0.000 N 
ATOM     11  C   UNL     1       7.666   4.589  18.029  0.00  0.00    +0.000 A 
ATOM     12  N   UNL     1       6.422   4.651  18.442  0.00  0.00    +0.000 NA
ATOM     13  H   UNL     1       8.581   4.287  16.140  0.00  0.00    +0.000 HD
ENDBRANCH   4   8
TORSDOF 1
ENDMDL
MODEL 4
REMARK VINA RESULT:      -5.3      2.271      4.816
REMARK  Name = 
REMARK  2 active torsions:
REMARK  status: ('A' for Active; 'I' for Inactive)
REMARK    1  A    between atoms: C_1  and  C_2
REMARK    2  A    between atoms: C_4  and  C_5
REMARK                            x       y       z     vdW  Elec       q    Type
REMARK                         _______ _______ _______ _____ _____    ______ ____
ROOT
ATOM      1  C   UNL     1       6.694   5.592  19.028  0.00  0.00    +0.000 C 
ATOM      2  C   UNL     1       5.420   4.772  19.199  0.00  0.00    +0.000 C 
ATOM      3  C   UNL     1       4.175   5.550  18.766  0.00  0.00    +0.000 C 
ATOM      4  C   UNL     1       3.378   4.596  17.882  0.00  0.00    +0.000 C 
ATOM      5  C   UNL     1       4.443   3.635  17.364  0.00  0.00    +0.000 C 
ATOM      6  N   UNL     1       5.455   3.528  18.422  0.00  0.00    +0.000 NA
ATOM      7  H   UNL     1       6.374   3.350  18.021  0.00  0.00    +0.000 HD
ENDROOT
BRANCH   4   8
ATOM      8  C   UNL     1       2.245   3.933  18.601  0.00  0.00    +0.000 A 
ATOM      9  C   UNL     1       1.643   4.252  19.799  0.00  0.00    +0.000 A 
ATOM     10  N   UNL     1       0.647   3.335  19.964  0.00  0.00    +0.000 N 
ATOM     11  C   UNL     1       0.669   2.505  18.881  0.00  0.00    +0.000 A 
ATOM     12  N   UNL     1       1.621   2.838  18.041  0.00  0.00    +0.000 NA
ATOM     13  H   UNL     1       0.004   3.279  20.741  0.00  0.00    +0.000 HD
ENDBRANCH   4   8
TORSDOF 1
ENDMDL
MODEL 5
REMARK VINA RESULT:      -5.3      2.149      3.912
REMARK  Name = 
REMARK  2 active torsions:
REMARK  status: ('A' for Active; 'I' for Inactive)
REMARK    1  A    between atoms: C_1  and  C_2
REMARK    2  A    between atoms: C_4  and  C_5
REMARK                            x       y       z     vdW  Elec       q    Type
REMARK                         _______ _______ _______ _____ _____    ______ ____
ROOT
ATOM      1  C   UNL     1       5.886   3.755  13.308  0.00  0.00    +0.000 C 
ATOM      2  C   UNL     1       6.466   4.127  14.669  0.00  0.00    +0.000 C 
ATOM      3  C   UNL     1       6.069   5.544  15.092  0.00  0.00    +0.000 C 
ATOM      4  C   UNL     1       5.594   5.425  16.537  0.00  0.00    +0.000 C 
ATOM      5  C   UNL     1       5.159   3.967  16.639  0.00  0.00    +0.000 C 
ATOM      6  N   UNL     1       6.025   3.211  15.727  0.00  0.00    +0.000 NA
ATOM      7  H   UNL     1       5.533   2.401  15.354  0.00  0.00    +0.000 HD
ENDROOT
BRANCH   4   8
ATOM      8  C   UNL     1       6.634   5.830  17.536  0.00  0.00    +0.000 A 
ATOM      9  C   UNL     1       7.340   7.008  17.656  0.00  0.00    +0.000 A 
ATOM     10  N   UNL     1       8.132   6.848  18.755  0.00  0.00    +0.000 N 
ATOM     11  C   UNL     1       7.885   5.606  19.263  0.00  0.00    +0.000 A 
ATOM     12  N   UNL     1       6.987   4.966  18.551  0.00  0.00    +0.000 NA
ATOM     13  H   UNL     1       8.780   7.524  19.132  0.00  0.00    +0.000 HD
ENDBRANCH   4   8
TORSDOF 1
ENDMDL
MODEL 6
REMARK VINA RESULT:      -5.3      1.544      4.465
REMARK  Name = 
REMARK  2 active torsions:
REMARK  status: ('A' for Active; 'I' for Inactive)
REMARK    1  A    between atoms: C_1  and  C_2
REMARK    2  A    between atoms: C_4  and  C_5
REMARK                            x       y       z     vdW  Elec       q    Type
REMARK                         _______ _______ _______ _____ _____    ______ ____
ROOT
ATOM      1  C   UNL     1       7.616   7.510  17.493  0.00  0.00    +0.000 C 
ATOM      2  C   UNL     1       6.945   6.222  17.956  0.00  0.00    +0.000 C 
ATOM      3  C   UNL     1       5.469   6.168  17.551  0.00  0.00    +0.000 C 
ATOM      4  C   UNL     1       5.256   4.784  16.947  0.00  0.00    +0.000 C 
ATOM      5  C   UNL     1       6.654   4.395  16.475  0.00  0.00    +0.000 C 
ATOM      6  N   UNL     1       7.597   5.029  17.405  0.00  0.00    +0.000 NA
ATOM      7  H   UNL     1       8.470   5.252  16.931  0.00  0.00    +0.000 HD
ENDROOT
BRANCH   4   8
ATOM      8  C   UNL     1       4.634   3.812  17.901  0.00  0.00    +0.000 A 
ATOM      9  C   UNL     1       3.566   2.958  17.729  0.00  0.00    +0.000 A 
ATOM     10  N   UNL     1       3.446   2.281  18.908  0.00  0.00    +0.000 N 
ATOM     11  C   UNL     1       4.427   2.732  19.742  0.00  0.00    +0.000 A 
ATOM     12  N   UNL     1       5.161   3.655  19.166  0.00  0.00    +0.000 NA
ATOM     13  H   UNL     1       2.762   1.572  19.127  0.00  0.00    +0.000 HD
ENDBRANCH   4   8
TORSDOF 1
ENDMDL
MODEL 7
REMARK VINA RESULT:      -5.3      1.102      1.187
REMARK  Name = 
REMARK  2 active torsions:
REMARK  status: ('A' for Active; 'I' for Inactive)
REMARK    1  A    between atoms: C_1  and  C_2
REMARK    2  A    between atoms: C_4  and  C_5
REMARK                            x       y       z     vdW  Elec       q    Type
REMARK                         _______ _______ _______ _____ _____    ______ ____
ROOT
ATOM      1  C   UNL     1       1.670   2.272  18.534  0.00  0.00    +0.000 C 
ATOM      2  C   UNL     1       2.894   2.758  17.766  0.00  0.00    +0.000 C 
ATOM      3  C   UNL     1       2.851   4.269  17.518  0.00  0.00    +0.000 C 
ATOM      4  C   UNL     1       4.232   4.790  17.904  0.00  0.00    +0.000 C 
ATOM      5  C   UNL     1       4.733   3.741  18.892  0.00  0.00    +0.000 C 
ATOM      6  N   UNL     1       4.145   2.463  18.474  0.00  0.00    +0.000 NA
ATOM      7  H   UNL     1       3.998   1.856  19.278  0.00  0.00    +0.000 HD
ENDROOT
BRANCH   4   8
ATOM      8  C   UNL     1       5.131   5.009  16.728  0.00  0.00    +0.000 A 
ATOM      9  C   UNL     1       5.232   6.086  15.874  0.00  0.00    +0.000 A 
ATOM     10  N   UNL     1       6.231   5.769  15.001  0.00  0.00    +0.000 N 
ATOM     11  C   UNL     1       6.702   4.535  15.345  0.00  0.00    +0.000 A 
ATOM     12  N   UNL     1       6.060   4.049  16.382  0.00  0.00    +0.000 NA
ATOM     13  H   UNL     1       6.568   6.340  14.240  0.00  0.00    +0.000 HD
ENDBRANCH   4   8
TORSDOF 1
ENDMDL
MODEL 8
REMARK VINA RESULT:      -5.3      2.458      5.354
REMARK  Name = 
REMARK  2 active torsions:
REMARK  status: ('A' for Active; 'I' for Inactive)
REMARK    1  A    between atoms: C_1  and  C_2
REMARK    2  A    between atoms: C_4  and  C_5
REMARK                            x       y       z     vdW  Elec       q    Type
REMARK                         _______ _______ _______ _____ _____    ______ ____
ROOT
ATOM      1  C   UNL     1       4.531   6.787  17.050  0.00  0.00    +0.000 C 
ATOM      2  C   UNL     1       4.070   5.797  18.114  0.00  0.00    +0.000 C 
ATOM      3  C   UNL     1       2.559   5.554  18.053  0.00  0.00    +0.000 C 
ATOM      4  C   UNL     1       2.380   4.041  18.115  0.00  0.00    +0.000 C 
ATOM      5  C   UNL     1       3.710   3.515  17.585  0.00  0.00    +0.000 C 
ATOM      6  N   UNL     1       4.731   4.494  17.980  0.00  0.00    +0.000 NA
ATOM      7  H   UNL     1       5.489   4.515  17.301  0.00  0.00    +0.000 HD
ENDROOT
BRANCH   4   8
ATOM      8  C   UNL     1       2.020   3.543  19.480  0.00  0.00    +0.000 A 
ATOM      9  C   UNL     1       0.783   3.344  20.056  0.00  0.00    +0.000 A 
ATOM     10  N   UNL     1       1.035   2.852  21.303  0.00  0.00    +0.000 N 
ATOM     11  C   UNL     1       2.389   2.764  21.444  0.00  0.00    +0.000 A 
ATOM     12  N   UNL     1       3.012   3.173  20.363  0.00  0.00    +0.000 NA
ATOM     13  H   UNL     1       0.349   2.594  21.997  0.00  0.00    +0.000 HD
ENDBRANCH   4   8
TORSDOF 1
ENDMDL
MODEL 9
REMARK VINA RESULT:      -5.2      2.301      3.870
REMARK  Name = 
REMARK  2 active torsions:
REMARK  status: ('A' for Active; 'I' for Inactive)
REMARK    1  A    between atoms: C_1  and  C_2
REMARK    2  A    between atoms: C_4  and  C_5
REMARK                            x       y       z     vdW  Elec       q    Type
REMARK                         _______ _______ _______ _____ _____    ______ ____
ROOT
ATOM      1  C   UNL     1       5.663   3.633  13.245  0.00  0.00    +0.000 C 
ATOM      2  C   UNL     1       6.311   4.217  14.496  0.00  0.00    +0.000 C 
ATOM      3  C   UNL     1       5.670   5.545  14.906  0.00  0.00    +0.000 C 
ATOM      4  C   UNL     1       5.414   5.436  16.405  0.00  0.00    +0.000 C 
ATOM      5  C   UNL     1       5.323   3.930  16.631  0.00  0.00    +0.000 C 
ATOM      6  N   UNL     1       6.215   3.308  15.644  0.00  0.00    +0.000 NA
ATOM      7  H   UNL     1       5.868   2.388  15.379  0.00  0.00    +0.000 HD
ENDROOT
BRANCH   4   8
ATOM      8  C   UNL     1       6.455   6.122  17.234  0.00  0.00    +0.000 A 
ATOM      9  C   UNL     1       7.159   5.670  18.330  0.00  0.00    +0.000 A 
ATOM     10  N   UNL     1       7.996   6.691  18.673  0.00  0.00    +0.000 N 
ATOM     11  C   UNL     1       7.785   7.710  17.791  0.00  0.00    +0.000 A 
ATOM     12  N   UNL     1       6.862   7.399  16.911  0.00  0.00    +0.000 NA
ATOM     13  H   UNL     1       8.657   6.695  19.436  0.00  0.00    +0.000 HD
ENDBRANCH   4   8
TORSDOF 1
ENDMDL
