MODEL 1
REMARK VINA RESULT:      -7.6      0.000      0.000
REMARK  Name = 
REMARK  9 active torsions:
REMARK  status: ('A' for Active; 'I' for Inactive)
REMARK    1  A    between atoms: C_1  and  O_2
REMARK    2  A    between atoms: O_2  and  C_3
REMARK    3  A    between atoms: C_3  and  C_5
REMARK    4  A    between atoms: C_5  and  C_6
REMARK    5  A    between atoms: C_5  and  N_10
REMARK    6  A    between atoms: C_6  and  C_7
REMARK    7  A    between atoms: C_7  and  C_8
REMARK    8  A    between atoms: C_7  and  C_9
REMARK    9  A    between atoms: C_11  and  C_13
REMARK                            x       y       z     vdW  Elec       q    Type
REMARK                         _______ _______ _______ _____ _____    ______ ____
ROOT
ATOM      1  N   UNL     1       5.020   4.404  16.403  0.00  0.00    +0.000 N 
ATOM      2  C   UNL     1       4.201   5.213  17.148  0.00  0.00    +0.000 C 
ATOM      3  O   UNL     1       4.191   6.433  17.085  0.00  0.00    +0.000 OA
ATOM      4  H   UNL     1       4.953   3.395  16.478  0.00  0.00    +0.000 HD
ENDROOT
BRANCH   2   5
ATOM      5  C   UNL     1       3.264   4.510  18.060  0.00  0.00    +0.000 A 
ATOM      6  C   UNL     1       2.102   3.927  17.512  0.00  0.00    +0.000 A 
ATOM      7  C   UNL     1       1.193   3.247  18.330  0.00  0.00    +0.000 A 
ATOM      8  C   UNL     1       1.475   3.182  19.678  0.00  0.00    +0.000 A 
ATOM      9  C   UNL     1       2.602   3.766  20.215  0.00  0.00    +0.000 A 
ATOM     10  C   UNL     1       3.515   4.438  19.435  0.00  0.00    +0.000 A 
ATOM     11  O   UNL     1       2.684   3.601  21.559  0.00  0.00    +0.000 OA
ATOM     12  C   UNL     1       1.470   2.867  21.818  0.00  0.00    +0.000 C 
ATOM     13  O   UNL     1       0.711   2.577  20.624  0.00  0.00    +0.000 OA
ENDBRANCH   2   5
BRANCH   1  14
ATOM     14  C   UNL     1       6.012   4.898  15.445  0.00  0.00    +0.000 C 
BRANCH  14  15
ATOM     15  C   UNL     1       7.265   5.209  16.284  0.00  0.00    +0.000 C 
ATOM     16  O   UNL     1       7.951   4.343  16.818  0.00  0.00    +0.000 OA
BRANCH  15  18
ATOM     17  C   UNL     1       7.536   7.128  17.640  0.00  0.00    +0.000 C 
ATOM     18  O   UNL     1       7.520   6.546  16.328  0.00  0.00    +0.000 OA
ENDBRANCH  15  18
ENDBRANCH  14  15
BRANCH  14  19
ATOM     19  C   UNL     1       6.364   3.825  14.404  0.00  0.00    +0.000 C 
BRANCH  19  20
ATOM     20  C   UNL     1       6.215   4.228  12.921  0.00  0.00    +0.000 C 
ATOM     21  C   UNL     1       7.495   4.819  12.326  0.00  0.00    +0.000 C 
ATOM     22  C   UNL     1       5.799   3.002  12.100  0.00  0.00    +0.000 C 
ENDBRANCH  19  20
ENDBRANCH  14  19
ENDBRANCH   1  14
TORSDOF 6
ENDMDL
MODEL 2
REMARK VINA RESULT:      -7.0      1.385      1.630
REMARK  Name = 
REMARK  9 active torsions:
REMARK  status: ('A' for Active; 'I' for Inactive)
REMARK    1  A    between atoms: C_1  and  O_2
REMARK    2  A    between atoms: O_2  and  C_3
REMARK    3  A    between atoms: C_3  and  C_5
REMARK    4  A    between atoms: C_5  and  C_6
REMARK    5  A    between atoms: C_5  and  N_10
REMARK    6  A    between atoms: C_6  and  C_7
REMARK    7  A    between atoms: C_7  and  C_8
REMARK    8  A    between atoms: C_7  and  C_9
REMARK    9  A    between atoms: C_11  and  C_13
REMARK                            x       y       z     vdW  Elec       q    Type
REMARK                         _______ _______ _______ _____ _____    ______ ____
ROOT
ATOM      1  N   UNL     1       4.831   4.584  16.111  0.00  0.00    +0.000 N 
ATOM      2  C   UNL     1       4.426   5.602  16.936  0.00  0.00    +0.000 C 
ATOM      3  O   UNL     1       4.612   6.788  16.714  0.00  0.00    +0.000 OA
ATOM      4  H   UNL     1       4.614   3.620  16.338  0.00  0.00    +0.000 HD
ENDROOT
BRANCH   2   5
ATOM      5  C   UNL     1       3.694   5.182  18.158  0.00  0.00    +0.000 A 
ATOM      6  C   UNL     1       2.755   6.072  18.720  0.00  0.00    +0.000 A 
ATOM      7  C   UNL     1       2.035   5.718  19.866  0.00  0.00    +0.000 A 
ATOM      8  C   UNL     1       2.289   4.481  20.420  0.00  0.00    +0.000 A 
ATOM      9  C   UNL     1       3.220   3.619  19.880  0.00  0.00    +0.000 A 
ATOM     10  C   UNL     1       3.940   3.939  18.752  0.00  0.00    +0.000 A 
ATOM     11  O   UNL     1       3.330   2.465  20.585  0.00  0.00    +0.000 OA
ATOM     12  C   UNL     1       2.382   2.700  21.645  0.00  0.00    +0.000 C 
ATOM     13  O   UNL     1       1.700   3.970  21.532  0.00  0.00    +0.000 OA
ENDBRANCH   2   5
BRANCH   1  14
ATOM     14  C   UNL     1       5.564   4.785  14.858  0.00  0.00    +0.000 C 
BRANCH  14  15
ATOM     15  C   UNL     1       7.043   4.895  15.268  0.00  0.00    +0.000 C 
ATOM     16  O   UNL     1       7.831   5.680  14.747  0.00  0.00    +0.000 OA
BRANCH  15  18
ATOM     17  C   UNL     1       7.743   4.666  17.515  0.00  0.00    +0.000 C 
ATOM     18  O   UNL     1       7.347   4.043  16.285  0.00  0.00    +0.000 OA
ENDBRANCH  15  18
ENDBRANCH  14  15
BRANCH  14  19
ATOM     19  C   UNL     1       5.396   3.584  13.916  0.00  0.00    +0.000 C 
BRANCH  19  20
ATOM     20  C   UNL     1       5.607   3.853  12.410  0.00  0.00    +0.000 C 
ATOM     21  C   UNL     1       6.942   3.320  11.885  0.00  0.00    +0.000 C 
ATOM     22  C   UNL     1       4.463   3.215  11.614  0.00  0.00    +0.000 C 
ENDBRANCH  19  20
ENDBRANCH  14  19
ENDBRANCH   1  14
TORSDOF 6
ENDMDL
MODEL 3
REMARK VINA RESULT:      -7.0      0.903      1.219
REMARK  Name = 
REMARK  9 active torsions:
REMARK  status: ('A' for Active; 'I' for Inactive)
REMARK    1  A    between atoms: C_1  and  O_2
REMARK    2  A    between atoms: O_2  and  C_3
REMARK    3  A    between atoms: C_3  and  C_5
REMARK    4  A    between atoms: C_5  and  C_6
REMARK    5  A    between atoms: C_5  and  N_10
REMARK    6  A    between atoms: C_6  and  C_7
REMARK    7  A    between atoms: C_7  and  C_8
REMARK    8  A    between atoms: C_7  and  C_9
REMARK    9  A    between atoms: C_11  and  C_13
REMARK                            x       y       z     vdW  Elec       q    Type
REMARK                         _______ _______ _______ _____ _____    ______ ____
ROOT
ATOM      1  N   UNL     1       5.315   5.137  16.871  0.00  0.00    +0.000 N 
ATOM      2  C   UNL     1       4.231   5.750  17.444  0.00  0.00    +0.000 C 
ATOM      3  O   UNL     1       3.974   6.940  17.340  0.00  0.00    +0.000 OA
ATOM      4  H   UNL     1       5.451   4.137  16.968  0.00  0.00    +0.000 HD
ENDROOT
BRANCH   2   5
ATOM      5  C   UNL     1       3.324   4.860  18.212  0.00  0.00    +0.000 A 
ATOM      6  C   UNL     1       2.239   4.260  17.538  0.00  0.00    +0.000 A 
ATOM      7  C   UNL     1       1.363   3.408  18.218  0.00  0.00    +0.000 A 
ATOM      8  C   UNL     1       1.597   3.192  19.560  0.00  0.00    +0.000 A 
ATOM      9  C   UNL     1       2.647   3.792  20.221  0.00  0.00    +0.000 A 
ATOM     10  C   UNL     1       3.527   4.631  19.578  0.00  0.00    +0.000 A 
ATOM     11  O   UNL     1       2.690   3.461  21.535  0.00  0.00    +0.000 OA
ATOM     12  C   UNL     1       1.537   2.603  21.640  0.00  0.00    +0.000 C 
ATOM     13  O   UNL     1       0.852   2.409  20.382  0.00  0.00    +0.000 OA
ENDBRANCH   2   5
BRANCH   1  14
ATOM     14  C   UNL     1       6.327   5.834  16.073  0.00  0.00    +0.000 C 
BRANCH  14  15
ATOM     15  C   UNL     1       7.305   6.437  17.097  0.00  0.00    +0.000 C 
ATOM     16  O   UNL     1       7.557   7.637  17.164  0.00  0.00    +0.000 OA
BRANCH  15  18
ATOM     17  C   UNL     1       7.749   5.775  19.324  0.00  0.00    +0.000 C 
ATOM     18  O   UNL     1       7.821   5.483  17.921  0.00  0.00    +0.000 OA
ENDBRANCH  15  18
ENDBRANCH  14  15
BRANCH  14  19
ATOM     19  C   UNL     1       7.093   4.858  15.168  0.00  0.00    +0.000 C 
BRANCH  19  20
ATOM     20  C   UNL     1       6.766   4.915  13.660  0.00  0.00    +0.000 C 
ATOM     21  C   UNL     1       8.009   5.061  12.780  0.00  0.00    +0.000 C 
ATOM     22  C   UNL     1       6.011   3.643  13.255  0.00  0.00    +0.000 C 
ENDBRANCH  19  20
ENDBRANCH  14  19
ENDBRANCH   1  14
TORSDOF 6
ENDMDL
MODEL 4
REMARK VINA RESULT:      -7.0      2.256      6.963
REMARK  Name = 
REMARK  9 active torsions:
REMARK  status: ('A' for Active; 'I' for Inactive)
REMARK    1  A    between atoms: C_1  and  O_2
REMARK    2  A    between atoms: O_2  and  C_3
REMARK    3  A    between atoms: C_3  and  C_5
REMARK    4  A    between atoms: C_5  and  C_6
REMARK    5  A    between atoms: C_5  and  N_10
REMARK    6  A    between atoms: C_6  and  C_7
REMARK    7  A    between atoms: C_7  and  C_8
REMARK    8  A    between atoms: C_7  and  C_9
REMARK    9  A    between atoms: C_11  and  C_13
REMARK                            x       y       z     vdW  Elec       q    Type
REMARK                         _______ _______ _______ _____ _____    ______ ____
ROOT
ATOM      1  N   UNL     1       3.320   5.403  19.052  0.00  0.00    +0.000 N 
ATOM      2  C   UNL     1       4.419   4.587  18.969  0.00  0.00    +0.000 C 
ATOM      3  O   UNL     1       4.696   3.714  19.777  0.00  0.00    +0.000 OA
ATOM      4  H   UNL     1       3.130   6.086  18.327  0.00  0.00    +0.000 HD
ENDROOT
BRANCH   2   5
ATOM      5  C   UNL     1       5.287   4.802  17.784  0.00  0.00    +0.000 A 
ATOM      6  C   UNL     1       6.348   5.727  17.884  0.00  0.00    +0.000 A 
ATOM      7  C   UNL     1       7.197   5.958  16.797  0.00  0.00    +0.000 A 
ATOM      8  C   UNL     1       6.948   5.258  15.635  0.00  0.00    +0.000 A 
ATOM      9  C   UNL     1       5.901   4.367  15.533  0.00  0.00    +0.000 A 
ATOM     10  C   UNL     1       5.053   4.117  16.586  0.00  0.00    +0.000 A 
ATOM     11  O   UNL     1       5.822   3.798  14.304  0.00  0.00    +0.000 OA
ATOM     12  C   UNL     1       6.921   4.444  13.631  0.00  0.00    +0.000 C 
ATOM     13  O   UNL     1       7.655   5.355  14.479  0.00  0.00    +0.000 OA
ENDBRANCH   2   5
BRANCH   1  14
ATOM     14  C   UNL     1       2.340   5.351  20.139  0.00  0.00    +0.000 C 
BRANCH  14  15
ATOM     15  C   UNL     1       1.887   6.807  20.347  0.00  0.00    +0.000 C 
ATOM     16  O   UNL     1       1.095   7.150  21.220  0.00  0.00    +0.000 OA
BRANCH  15  18
ATOM     17  C   UNL     1       1.645   8.654  18.889  0.00  0.00    +0.000 C 
ATOM     18  O   UNL     1       2.494   7.651  19.467  0.00  0.00    +0.000 OA
ENDBRANCH  15  18
ENDBRANCH  14  15
BRANCH  14  19
ATOM     19  C   UNL     1       1.121   4.502  19.750  0.00  0.00    +0.000 C 
BRANCH  19  20
ATOM     20  C   UNL     1       1.090   3.053  20.285  0.00  0.00    +0.000 C 
ATOM     21  C   UNL     1       1.685   2.038  19.307  0.00  0.00    +0.000 C 
ATOM     22  C   UNL     1       1.859   2.984  21.609  0.00  0.00    +0.000 C 
ENDBRANCH  19  20
ENDBRANCH  14  19
ENDBRANCH   1  14
TORSDOF 6
ENDMDL
MODEL 5
REMARK VINA RESULT:      -7.0      0.923      1.067
REMARK  Name = 
REMARK  9 active torsions:
REMARK  status: ('A' for Active; 'I' for Inactive)
REMARK    1  A    between atoms: C_1  and  O_2
REMARK    2  A    between atoms: O_2  and  C_3
REMARK    3  A    between atoms: C_3  and  C_5
REMARK    4  A    between atoms: C_5  and  C_6
REMARK    5  A    between atoms: C_5  and  N_10
REMARK    6  A    between atoms: C_6  and  C_7
REMARK    7  A    between atoms: C_7  and  C_8
REMARK    8  A    between atoms: C_7  and  C_9
REMARK    9  A    between atoms: C_11  and  C_13
REMARK                            x       y       z     vdW  Elec       q    Type
REMARK                         _______ _______ _______ _____ _____    ______ ____
ROOT
ATOM      1  N   UNL     1       5.247   5.240  16.982  0.00  0.00    +0.000 N 
ATOM      2  C   UNL     1       4.153   5.857  17.533  0.00  0.00    +0.000 C 
ATOM      3  O   UNL     1       3.894   7.044  17.412  0.00  0.00    +0.000 OA
ATOM      4  H   UNL     1       5.386   4.242  17.092  0.00  0.00    +0.000 HD
ENDROOT
BRANCH   2   5
ATOM      5  C   UNL     1       3.239   4.972  18.298  0.00  0.00    +0.000 A 
ATOM      6  C   UNL     1       2.187   4.333  17.609  0.00  0.00    +0.000 A 
ATOM      7  C   UNL     1       1.304   3.484  18.285  0.00  0.00    +0.000 A 
ATOM      8  C   UNL     1       1.499   3.311  19.640  0.00  0.00    +0.000 A 
ATOM      9  C   UNL     1       2.517   3.950  20.315  0.00  0.00    +0.000 A 
ATOM     10  C   UNL     1       3.402   4.787  19.676  0.00  0.00    +0.000 A 
ATOM     11  O   UNL     1       2.524   3.659  21.640  0.00  0.00    +0.000 OA
ATOM     12  C   UNL     1       1.383   2.782  21.734  0.00  0.00    +0.000 C 
ATOM     13  O   UNL     1       0.743   2.538  20.461  0.00  0.00    +0.000 OA
ENDBRANCH   2   5
BRANCH   1  14
ATOM     14  C   UNL     1       6.268   5.933  16.191  0.00  0.00    +0.000 C 
BRANCH  14  15
ATOM     15  C   UNL     1       7.225   6.557  17.222  0.00  0.00    +0.000 C 
ATOM     16  O   UNL     1       7.718   5.927  18.153  0.00  0.00    +0.000 OA
BRANCH  15  18
ATOM     17  C   UNL     1       8.153   8.596  17.982  0.00  0.00    +0.000 C 
ATOM     18  O   UNL     1       7.469   7.869  16.950  0.00  0.00    +0.000 OA
ENDBRANCH  15  18
ENDBRANCH  14  15
BRANCH  14  19
ATOM     19  C   UNL     1       7.055   4.948  15.314  0.00  0.00    +0.000 C 
BRANCH  19  20
ATOM     20  C   UNL     1       6.779   5.003  13.796  0.00  0.00    +0.000 C 
ATOM     21  C   UNL     1       8.032   5.290  12.966  0.00  0.00    +0.000 C 
ATOM     22  C   UNL     1       6.169   3.673  13.341  0.00  0.00    +0.000 C 
ENDBRANCH  19  20
ENDBRANCH  14  19
ENDBRANCH   1  14
TORSDOF 6
ENDMDL
MODEL 6
REMARK VINA RESULT:      -7.0      0.950      1.229
REMARK  Name = 
REMARK  9 active torsions:
REMARK  status: ('A' for Active; 'I' for Inactive)
REMARK    1  A    between atoms: C_1  and  O_2
REMARK    2  A    between atoms: O_2  and  C_3
REMARK    3  A    between atoms: C_3  and  C_5
REMARK    4  A    between atoms: C_5  and  C_6
REMARK    5  A    between atoms: C_5  and  N_10
REMARK    6  A    between atoms: C_6  and  C_7
REMARK    7  A    between atoms: C_7  and  C_8
REMARK    8  A    between atoms: C_7  and  C_9
REMARK    9  A    between atoms: C_11  and  C_13
REMARK                            x       y       z     vdW  Elec       q    Type
REMARK                         _______ _______ _______ _____ _____    ______ ____
ROOT
ATOM      1  N   UNL     1       5.069   4.868  16.780  0.00  0.00    +0.000 N 
ATOM      2  C   UNL     1       4.251   5.783  17.391  0.00  0.00    +0.000 C 
ATOM      3  O   UNL     1       4.157   6.955  17.062  0.00  0.00    +0.000 OA
ATOM      4  H   UNL     1       5.073   3.899  17.081  0.00  0.00    +0.000 HD
ENDROOT
BRANCH   2   5
ATOM      5  C   UNL     1       3.423   5.257  18.506  0.00  0.00    +0.000 A 
ATOM      6  C   UNL     1       2.673   6.170  19.277  0.00  0.00    +0.000 A 
ATOM      7  C   UNL     1       1.872   5.721  20.333  0.00  0.00    +0.000 A 
ATOM      8  C   UNL     1       1.857   4.366  20.589  0.00  0.00    +0.000 A 
ATOM      9  C   UNL     1       2.604   3.477  19.845  0.00  0.00    +0.000 A 
ATOM     10  C   UNL     1       3.397   3.889  18.800  0.00  0.00    +0.000 A 
ATOM     11  O   UNL     1       2.461   2.197  20.270  0.00  0.00    +0.000 OA
ATOM     12  C   UNL     1       1.558   2.375  21.380  0.00  0.00    +0.000 C 
ATOM     13  O   UNL     1       1.153   3.749  21.572  0.00  0.00    +0.000 OA
ENDBRANCH   2   5
BRANCH   1  14
ATOM     14  C   UNL     1       5.962   5.182  15.662  0.00  0.00    +0.000 C 
BRANCH  14  15
ATOM     15  C   UNL     1       7.348   5.389  16.297  0.00  0.00    +0.000 C 
ATOM     16  O   UNL     1       8.048   4.467  16.706  0.00  0.00    +0.000 OA
BRANCH  15  18
ATOM     17  C   UNL     1       7.619   7.346  17.598  0.00  0.00    +0.000 C 
ATOM     18  O   UNL     1       7.700   6.705  16.317  0.00  0.00    +0.000 OA
ENDBRANCH  15  18
ENDBRANCH  14  15
BRANCH  14  19
ATOM     19  C   UNL     1       6.040   4.015  14.667  0.00  0.00    +0.000 C 
BRANCH  19  20
ATOM     20  C   UNL     1       6.157   4.390  13.173  0.00  0.00    +0.000 C 
ATOM     21  C   UNL     1       7.546   4.906  12.789  0.00  0.00    +0.000 C 
ATOM     22  C   UNL     1       5.822   3.166  12.314  0.00  0.00    +0.000 C 
ENDBRANCH  19  20
ENDBRANCH  14  19
ENDBRANCH   1  14
TORSDOF 6
ENDMDL
MODEL 7
REMARK VINA RESULT:      -6.9      1.106      1.603
REMARK  Name = 
REMARK  9 active torsions:
REMARK  status: ('A' for Active; 'I' for Inactive)
REMARK    1  A    between atoms: C_1  and  O_2
REMARK    2  A    between atoms: O_2  and  C_3
REMARK    3  A    between atoms: C_3  and  C_5
REMARK    4  A    between atoms: C_5  and  C_6
REMARK    5  A    between atoms: C_5  and  N_10
REMARK    6  A    between atoms: C_6  and  C_7
REMARK    7  A    between atoms: C_7  and  C_8
REMARK    8  A    between atoms: C_7  and  C_9
REMARK    9  A    between atoms: C_11  and  C_13
REMARK                            x       y       z     vdW  Elec       q    Type
REMARK                         _______ _______ _______ _____ _____    ______ ____
ROOT
ATOM      1  N   UNL     1       5.145   4.108  16.360  0.00  0.00    +0.000 N 
ATOM      2  C   UNL     1       4.307   4.831  17.169  0.00  0.00    +0.000 C 
ATOM      3  O   UNL     1       3.921   5.965  16.930  0.00  0.00    +0.000 OA
ATOM      4  H   UNL     1       5.399   3.157  16.601  0.00  0.00    +0.000 HD
ENDROOT
BRANCH   2   5
ATOM      5  C   UNL     1       3.844   4.135  18.396  0.00  0.00    +0.000 A 
ATOM      6  C   UNL     1       4.721   3.229  19.028  0.00  0.00    +0.000 A 
ATOM      7  C   UNL     1       4.333   2.554  20.190  0.00  0.00    +0.000 A 
ATOM      8  C   UNL     1       3.068   2.803  20.679  0.00  0.00    +0.000 A 
ATOM      9  C   UNL     1       2.205   3.676  20.050  0.00  0.00    +0.000 A 
ATOM     10  C   UNL     1       2.561   4.356  18.909  0.00  0.00    +0.000 A 
ATOM     11  O   UNL     1       1.007   3.766  20.681  0.00  0.00    +0.000 OA
ATOM     12  C   UNL     1       1.198   2.835  21.766  0.00  0.00    +0.000 C 
ATOM     13  O   UNL     1       2.514   2.239  21.783  0.00  0.00    +0.000 OA
ENDBRANCH   2   5
BRANCH   1  14
ATOM     14  C   UNL     1       5.711   4.612  15.106  0.00  0.00    +0.000 C 
BRANCH  14  15
ATOM     15  C   UNL     1       7.135   5.072  15.460  0.00  0.00    +0.000 C 
ATOM     16  O   UNL     1       7.888   5.616  14.657  0.00  0.00    +0.000 OA
BRANCH  15  18
ATOM     17  C   UNL     1       7.558   5.987  17.600  0.00  0.00    +0.000 C 
ATOM     18  O   UNL     1       7.432   4.826  16.766  0.00  0.00    +0.000 OA
ENDBRANCH  15  18
ENDBRANCH  14  15
BRANCH  14  19
ATOM     19  C   UNL     1       5.795   3.501  14.048  0.00  0.00    +0.000 C 
BRANCH  19  20
ATOM     20  C   UNL     1       5.748   3.951  12.571  0.00  0.00    +0.000 C 
ATOM     21  C   UNL     1       7.065   3.716  11.828  0.00  0.00    +0.000 C 
ATOM     22  C   UNL     1       4.623   3.202  11.847  0.00  0.00    +0.000 C 
ENDBRANCH  19  20
ENDBRANCH  14  19
ENDBRANCH   1  14
TORSDOF 6
ENDMDL
MODEL 8
REMARK VINA RESULT:      -6.9      3.806      4.982
REMARK  Name = 
REMARK  9 active torsions:
REMARK  status: ('A' for Active; 'I' for Inactive)
REMARK    1  A    between atoms: C_1  and  O_2
REMARK    2  A    between atoms: O_2  and  C_3
REMARK    3  A    between atoms: C_3  and  C_5
REMARK    4  A    between atoms: C_5  and  C_6
REMARK    5  A    between atoms: C_5  and  N_10
REMARK    6  A    between atoms: C_6  and  C_7
REMARK    7  A    between atoms: C_7  and  C_8
REMARK    8  A    between atoms: C_7  and  C_9
REMARK    9  A    between atoms: C_11  and  C_13
REMARK                            x       y       z     vdW  Elec       q    Type
REMARK                         _______ _______ _______ _____ _____    ______ ____
ROOT
ATOM      1  N   UNL     1       3.538   5.635  17.590  0.00  0.00    +0.000 N 
ATOM      2  C   UNL     1       3.327   6.091  18.866  0.00  0.00    +0.000 C 
ATOM      3  O   UNL     1       3.769   5.559  19.872  0.00  0.00    +0.000 OA
ATOM      4  H   UNL     1       3.171   6.144  16.794  0.00  0.00    +0.000 HD
ENDROOT
BRANCH   2   5
ATOM      5  C   UNL     1       2.523   7.334  18.976  0.00  0.00    +0.000 A 
ATOM      6  C   UNL     1       2.423   8.174  17.847  0.00  0.00    +0.000 A 
ATOM      7  C   UNL     1       1.670   9.352  17.900  0.00  0.00    +0.000 A 
ATOM      8  C   UNL     1       1.047   9.657  19.092  0.00  0.00    +0.000 A 
ATOM      9  C   UNL     1       1.161   8.844  20.200  0.00  0.00    +0.000 A 
ATOM     10  C   UNL     1       1.891   7.678  20.176  0.00  0.00    +0.000 A 
ATOM     11  O   UNL     1       0.488   9.331  21.272  0.00  0.00    +0.000 OA
ATOM     12  C   UNL     1      -0.046  10.555  20.728  0.00  0.00    +0.000 C 
ATOM     13  O   UNL     1       0.287  10.755  19.336  0.00  0.00    +0.000 OA
ENDBRANCH   2   5
BRANCH   1  14
ATOM     14  C   UNL     1       4.304   4.429  17.265  0.00  0.00    +0.000 C 
BRANCH  14  15
ATOM     15  C   UNL     1       3.297   3.270  17.362  0.00  0.00    +0.000 C 
ATOM     16  O   UNL     1       2.147   3.338  16.935  0.00  0.00    +0.000 OA
BRANCH  15  18
ATOM     17  C   UNL     1       3.678   2.077  19.368  0.00  0.00    +0.000 C 
ATOM     18  O   UNL     1       3.850   2.172  17.947  0.00  0.00    +0.000 OA
ENDBRANCH  15  18
ENDBRANCH  14  15
BRANCH  14  19
ATOM     19  C   UNL     1       4.857   4.490  15.833  0.00  0.00    +0.000 C 
BRANCH  19  20
ATOM     20  C   UNL     1       6.350   4.139  15.655  0.00  0.00    +0.000 C 
ATOM     21  C   UNL     1       6.978   4.788  14.420  0.00  0.00    +0.000 C 
ATOM     22  C   UNL     1       7.128   4.576  16.902  0.00  0.00    +0.000 C 
ENDBRANCH  19  20
ENDBRANCH  14  19
ENDBRANCH   1  14
TORSDOF 6
ENDMDL
MODEL 9
REMARK VINA RESULT:      -6.7      3.662      5.394
REMARK  Name = 
REMARK  9 active torsions:
REMARK  status: ('A' for Active; 'I' for Inactive)
REMARK    1  A    between atoms: C_1  and  O_2
REMARK    2  A    between atoms: O_2  and  C_3
REMARK    3  A    between atoms: C_3  and  C_5
REMARK    4  A    between atoms: C_5  and  C_6
REMARK    5  A    between atoms: C_5  and  N_10
REMARK    6  A    between atoms: C_6  and  C_7
REMARK    7  A    between atoms: C_7  and  C_8
REMARK    8  A    between atoms: C_7  and  C_9
REMARK    9  A    between atoms: C_11  and  C_13
REMARK                            x       y       z     vdW  Elec       q    Type
REMARK                         _______ _______ _______ _____ _____    ______ ____
ROOT
ATOM      1  N   UNL     1       3.124   5.372  18.200  0.00  0.00    +0.000 N 
ATOM      2  C   UNL     1       3.350   6.666  17.803  0.00  0.00    +0.000 C 
ATOM      3  O   UNL     1       4.151   6.995  16.942  0.00  0.00    +0.000 OA
ATOM      4  H   UNL     1       2.418   5.164  18.897  0.00  0.00    +0.000 HD
ENDROOT
BRANCH   2   5
ATOM      5  C   UNL     1       2.522   7.696  18.479  0.00  0.00    +0.000 A 
ATOM      6  C   UNL     1       2.144   8.842  17.748  0.00  0.00    +0.000 A 
ATOM      7  C   UNL     1       1.357   9.836  18.339  0.00  0.00    +0.000 A 
ATOM      8  C   UNL     1       0.982   9.654  19.653  0.00  0.00    +0.000 A 
ATOM      9  C   UNL     1       1.366   8.541  20.372  0.00  0.00    +0.000 A 
ATOM     10  C   UNL     1       2.136   7.546  19.816  0.00  0.00    +0.000 A 
ATOM     11  O   UNL     1       0.907   8.563  21.648  0.00  0.00    +0.000 OA
ATOM     12  C   UNL     1       0.207   9.824  21.666  0.00  0.00    +0.000 C 
ATOM     13  O   UNL     1       0.232  10.510  20.394  0.00  0.00    +0.000 OA
ENDBRANCH   2   5
BRANCH   1  14
ATOM     14  C   UNL     1       3.833   4.211  17.657  0.00  0.00    +0.000 C 
BRANCH  14  15
ATOM     15  C   UNL     1       5.253   4.294  18.243  0.00  0.00    +0.000 C 
ATOM     16  O   UNL     1       5.489   4.260  19.448  0.00  0.00    +0.000 OA
BRANCH  15  18
ATOM     17  C   UNL     1       7.524   4.691  17.712  0.00  0.00    +0.000 C 
ATOM     18  O   UNL     1       6.197   4.377  17.265  0.00  0.00    +0.000 OA
ENDBRANCH  15  18
ENDBRANCH  14  15
BRANCH  14  19
ATOM     19  C   UNL     1       3.182   2.897  18.114  0.00  0.00    +0.000 C 
BRANCH  19  20
ATOM     20  C   UNL     1       2.030   3.018  19.136  0.00  0.00    +0.000 C 
ATOM     21  C   UNL     1       0.785   2.222  18.737  0.00  0.00    +0.000 C 
ATOM     22  C   UNL     1       2.515   2.536  20.508  0.00  0.00    +0.000 C 
ENDBRANCH  19  20
ENDBRANCH  14  19
ENDBRANCH   1  14
TORSDOF 6
ENDMDL
