MODEL 1
REMARK VINA RESULT:      -8.3      0.000      0.000
REMARK  Name = 
REMARK  13 active torsions:
REMARK  status: ('A' for Active; 'I' for Inactive)
REMARK    1  A    between atoms: C_1  and  C_2
REMARK    2  A    between atoms: C_2  and  C_3
REMARK    3  A    between atoms: C_3  and  C_4
REMARK    4  A    between atoms: C_4  and  C_5
REMARK    5  A    between atoms: C_8  and  C_9
REMARK    6  A    between atoms: C_9  and  O_11
REMARK    7  A    between atoms: O_11  and  C_12
REMARK    8  A    between atoms: C_12  and  C_13
REMARK    9  A    between atoms: C_14  and  N_15
REMARK   10  A    between atoms: N_15  and  C_16
REMARK   11  A    between atoms: C_16  and  C_17
REMARK   12  A    between atoms: C_20  and  C_21
REMARK   13  A    between atoms: C_26  and  C_27
REMARK                            x       y       z     vdW  Elec       q    Type
REMARK                         _______ _______ _______ _____ _____    ______ ____
ROOT
ATOM      1  C   UNL     1       2.361   7.474  18.857  0.00  0.00    +0.000 C 
ENDROOT
BRANCH   1   2
ATOM      2  C   UNL     1       1.597   8.497  19.659  0.00  0.00    +0.000 A 
ATOM      3  C   UNL     1       0.971   9.552  18.983  0.00  0.00    +0.000 A 
ATOM      4  C   UNL     1       0.245  10.517  19.685  0.00  0.00    +0.000 A 
ATOM      5  C   UNL     1       0.190  10.510  21.085  0.00  0.00    +0.000 A 
ATOM      6  C   UNL     1       0.747   9.396  21.738  0.00  0.00    +0.000 A 
ATOM      7  C   UNL     1       1.406   8.386  21.035  0.00  0.00    +0.000 A 
BRANCH   5   8
ATOM      8  C   UNL     1      -0.422  11.622  21.861  0.00  0.00    +0.000 A 
ATOM      9  C   UNL     1      -1.487  11.315  22.744  0.00  0.00    +0.000 A 
ATOM     10  C   UNL     1      -2.132  12.290  23.505  0.00  0.00    +0.000 A 
ATOM     11  C   UNL     1      -1.752  13.617  23.383  0.00  0.00    +0.000 A 
ATOM     12  C   UNL     1      -0.707  13.959  22.529  0.00  0.00    +0.000 A 
ATOM     13  C   UNL     1      -0.012  12.980  21.784  0.00  0.00    +0.000 A 
BRANCH  13  14
ATOM     14  C   UNL     1       1.121  13.448  20.985  0.00  0.00    +0.000 A 
ATOM     15  N   UNL     1       1.000  14.071  19.763  0.00  0.00    +0.000 NA
ATOM     16  N   UNL     1       2.223  14.389  19.366  0.00  0.00    +0.000 NA
ATOM     17  N   UNL     1       3.021  13.912  20.323  0.00  0.00    +0.000 N 
ATOM     18  N   UNL     1       2.411  13.306  21.353  0.00  0.00    +0.000 NA
ATOM     19  H   UNL     1       4.031  14.002  20.269  0.00  0.00    +0.000 HD
ENDBRANCH  13  14
ENDBRANCH   5   8
ENDBRANCH   1   2
BRANCH   1  20
ATOM     20  N   UNL     1       3.024   6.452  19.680  0.00  0.00    +0.000 N 
ATOM     21  H   UNL     1       2.399   5.987  20.333  0.00  0.00    +0.000 HD
BRANCH  20  26
ATOM     22  C   UNL     1       5.730   4.800  18.032  0.00  0.00    +0.000 A 
ATOM     23  N   UNL     1       5.213   3.728  17.430  0.00  0.00    +0.000 NA
ATOM     24  C   UNL     1       3.886   3.549  17.598  0.00  0.00    +0.000 A 
ATOM     25  C   UNL     1       3.057   4.397  18.325  0.00  0.00    +0.000 A 
ATOM     26  C   UNL     1       3.689   5.488  18.904  0.00  0.00    +0.000 A 
ATOM     27  N   UNL     1       5.018   5.664  18.767  0.00  0.00    +0.000 NA
BRANCH  25  28
ATOM     28  C   UNL     1       1.624   4.053  18.316  0.00  0.00    +0.000 C 
ATOM     29  O   UNL     1       1.007   3.883  17.280  0.00  0.00    +0.000 OA
BRANCH  28  30
ATOM     30  O   UNL     1       1.070   4.089  19.557  0.00  0.00    +0.000 OA
BRANCH  30  31
ATOM     31  C   UNL     1       1.175   2.865  20.302  0.00  0.00    +0.000 C 
ATOM     32  C   UNL     1       1.902   3.187  21.594  0.00  0.00    +0.000 C 
ENDBRANCH  30  31
ENDBRANCH  28  30
ENDBRANCH  25  28
BRANCH  22  33
ATOM     33  C   UNL     1       7.167   5.160  17.802  0.00  0.00    +0.000 C 
BRANCH  33  34
ATOM     34  C   UNL     1       7.782   5.914  18.985  0.00  0.00    +0.000 C 
BRANCH  34  36
ATOM     35  C   UNL     1       7.609   7.805  17.331  0.00  0.00    +0.000 C 
ATOM     36  C   UNL     1       8.240   7.335  18.632  0.00  0.00    +0.000 C 
ENDBRANCH  34  36
ENDBRANCH  33  34
ENDBRANCH  22  33
ENDBRANCH  20  26
ENDBRANCH   1  20
TORSDOF 11
ENDMDL
MODEL 2
REMARK VINA RESULT:      -8.3      2.745      4.699
REMARK  Name = 
REMARK  13 active torsions:
REMARK  status: ('A' for Active; 'I' for Inactive)
REMARK    1  A    between atoms: C_1  and  C_2
REMARK    2  A    between atoms: C_2  and  C_3
REMARK    3  A    between atoms: C_3  and  C_4
REMARK    4  A    between atoms: C_4  and  C_5
REMARK    5  A    between atoms: C_8  and  C_9
REMARK    6  A    between atoms: C_9  and  O_11
REMARK    7  A    between atoms: O_11  and  C_12
REMARK    8  A    between atoms: C_12  and  C_13
REMARK    9  A    between atoms: C_14  and  N_15
REMARK   10  A    between atoms: N_15  and  C_16
REMARK   11  A    between atoms: C_16  and  C_17
REMARK   12  A    between atoms: C_20  and  C_21
REMARK   13  A    between atoms: C_26  and  C_27
REMARK                            x       y       z     vdW  Elec       q    Type
REMARK                         _______ _______ _______ _____ _____    ______ ____
ROOT
ATOM      1  C   UNL     1       3.482   7.353  17.769  0.00  0.00    +0.000 C 
ENDROOT
BRANCH   1   2
ATOM      2  C   UNL     1       2.441   8.178  18.481  0.00  0.00    +0.000 A 
ATOM      3  C   UNL     1       1.894   9.285  17.822  0.00  0.00    +0.000 A 
ATOM      4  C   UNL     1       0.919  10.073  18.440  0.00  0.00    +0.000 A 
ATOM      5  C   UNL     1       0.521   9.834  19.762  0.00  0.00    +0.000 A 
ATOM      6  C   UNL     1       1.015   8.667  20.373  0.00  0.00    +0.000 A 
ATOM      7  C   UNL     1       1.930   7.831  19.731  0.00  0.00    +0.000 A 
BRANCH   5   8
ATOM      8  C   UNL     1      -0.376  10.761  20.501  0.00  0.00    +0.000 A 
ATOM      9  C   UNL     1      -0.088  11.029  21.862  0.00  0.00    +0.000 A 
ATOM     10  C   UNL     1      -0.877  11.875  22.641  0.00  0.00    +0.000 A 
ATOM     11  C   UNL     1      -2.007  12.458  22.091  0.00  0.00    +0.000 A 
ATOM     12  C   UNL     1      -2.323  12.222  20.755  0.00  0.00    +0.000 A 
ATOM     13  C   UNL     1      -1.511  11.405  19.937  0.00  0.00    +0.000 A 
BRANCH  13  14
ATOM     14  C   UNL     1      -1.897  11.298  18.530  0.00  0.00    +0.000 A 
ATOM     15  N   UNL     1      -2.641  10.263  18.010  0.00  0.00    +0.000 NA
ATOM     16  N   UNL     1      -2.830  10.528  16.725  0.00  0.00    +0.000 NA
ATOM     17  N   UNL     1      -2.164  11.665  16.516  0.00  0.00    +0.000 N 
ATOM     18  N   UNL     1      -1.552  12.197  17.585  0.00  0.00    +0.000 NA
ATOM     19  H   UNL     1      -2.125  12.098  15.598  0.00  0.00    +0.000 HD
ENDBRANCH  13  14
ENDBRANCH   5   8
ENDBRANCH   1   2
BRANCH   1  20
ATOM     20  N   UNL     1       4.061   6.285  18.600  0.00  0.00    +0.000 N 
ATOM     21  H   UNL     1       3.793   6.341  19.579  0.00  0.00    +0.000 HD
BRANCH  20  26
ATOM     22  C   UNL     1       2.235   3.254  18.107  0.00  0.00    +0.000 A 
ATOM     23  N   UNL     1       2.958   2.502  17.276  0.00  0.00    +0.000 NA
ATOM     24  C   UNL     1       4.117   3.052  16.853  0.00  0.00    +0.000 A 
ATOM     25  C   UNL     1       4.585   4.305  17.233  0.00  0.00    +0.000 A 
ATOM     26  C   UNL     1       3.764   5.003  18.107  0.00  0.00    +0.000 A 
ATOM     27  N   UNL     1       2.592   4.477  18.516  0.00  0.00    +0.000 NA
BRANCH  25  28
ATOM     28  C   UNL     1       5.911   4.678  16.710  0.00  0.00    +0.000 C 
ATOM     29  O   UNL     1       6.892   4.750  17.429  0.00  0.00    +0.000 OA
BRANCH  28  30
ATOM     30  O   UNL     1       5.871   5.056  15.405  0.00  0.00    +0.000 OA
BRANCH  30  31
ATOM     31  C   UNL     1       6.737   4.310  14.533  0.00  0.00    +0.000 C 
ATOM     32  C   UNL     1       5.878   3.756  13.413  0.00  0.00    +0.000 C 
ENDBRANCH  30  31
ENDBRANCH  28  30
ENDBRANCH  25  28
BRANCH  22  33
ATOM     33  C   UNL     1       0.997   2.685  18.735  0.00  0.00    +0.000 C 
BRANCH  33  34
ATOM     34  C   UNL     1       0.632   3.378  20.050  0.00  0.00    +0.000 C 
BRANCH  34  36
ATOM     35  C   UNL     1       2.418   3.472  21.822  0.00  0.00    +0.000 C 
ATOM     36  C   UNL     1       1.226   2.694  21.288  0.00  0.00    +0.000 C 
ENDBRANCH  34  36
ENDBRANCH  33  34
ENDBRANCH  22  33
ENDBRANCH  20  26
ENDBRANCH   1  20
TORSDOF 11
ENDMDL
MODEL 3
REMARK VINA RESULT:      -8.2      2.485      3.107
REMARK  Name = 
REMARK  13 active torsions:
REMARK  status: ('A' for Active; 'I' for Inactive)
REMARK    1  A    between atoms: C_1  and  C_2
REMARK    2  A    between atoms: C_2  and  C_3
REMARK    3  A    between atoms: C_3  and  C_4
REMARK    4  A    between atoms: C_4  and  C_5
REMARK    5  A    between atoms: C_8  and  C_9
REMARK    6  A    between atoms: C_9  and  O_11
REMARK    7  A    between atoms: O_11  and  C_12
REMARK    8  A    between atoms: C_12  and  C_13
REMARK    9  A    between atoms: C_14  and  N_15
REMARK   10  A    between atoms: N_15  and  C_16
REMARK   11  A    between atoms: C_16  and  C_17
REMARK   12  A    between atoms: C_20  and  C_21
REMARK   13  A    between atoms: C_26  and  C_27
REMARK                            x       y       z     vdW  Elec       q    Type
REMARK                         _______ _______ _______ _____ _____    ______ ____
ROOT
ATOM      1  C   UNL     1       2.762   7.159  18.612  0.00  0.00    +0.000 C 
ENDROOT
BRANCH   1   2
ATOM      2  C   UNL     1       1.868   8.301  19.019  0.00  0.00    +0.000 A 
ATOM      3  C   UNL     1       1.295   8.286  20.297  0.00  0.00    +0.000 A 
ATOM      4  C   UNL     1       0.467   9.329  20.720  0.00  0.00    +0.000 A 
ATOM      5  C   UNL     1       0.116  10.374  19.857  0.00  0.00    +0.000 A 
ATOM      6  C   UNL     1       0.770  10.419  18.612  0.00  0.00    +0.000 A 
ATOM      7  C   UNL     1       1.661   9.421  18.214  0.00  0.00    +0.000 A 
BRANCH   5   8
ATOM      8  C   UNL     1      -0.902  11.396  20.221  0.00  0.00    +0.000 A 
ATOM      9  C   UNL     1      -0.701  12.150  21.404  0.00  0.00    +0.000 A 
ATOM     10  C   UNL     1      -1.605  13.122  21.834  0.00  0.00    +0.000 A 
ATOM     11  C   UNL     1      -2.762  13.350  21.108  0.00  0.00    +0.000 A 
ATOM     12  C   UNL     1      -2.995  12.632  19.937  0.00  0.00    +0.000 A 
ATOM     13  C   UNL     1      -2.070  11.677  19.461  0.00  0.00    +0.000 A 
BRANCH  13  14
ATOM     14  C   UNL     1      -2.382  11.047  18.178  0.00  0.00    +0.000 A 
ATOM     15  N   UNL     1      -2.199  11.653  16.955  0.00  0.00    +0.000 NA
ATOM     16  N   UNL     1      -2.544  10.771  16.029  0.00  0.00    +0.000 NA
ATOM     17  N   UNL     1      -2.958   9.705  16.718  0.00  0.00    +0.000 N 
ATOM     18  N   UNL     1      -2.896   9.806  18.054  0.00  0.00    +0.000 NA
ATOM     19  H   UNL     1      -3.300   8.870  16.252  0.00  0.00    +0.000 HD
ENDBRANCH  13  14
ENDBRANCH   5   8
ENDBRANCH   1   2
BRANCH   1  20
ATOM     20  N   UNL     1       2.046   6.049  17.964  0.00  0.00    +0.000 N 
ATOM     21  H   UNL     1       1.632   6.299  17.071  0.00  0.00    +0.000 HD
BRANCH  20  26
ATOM     22  C   UNL     1       4.876   4.093  16.998  0.00  0.00    +0.000 A 
ATOM     23  N   UNL     1       4.620   2.839  17.374  0.00  0.00    +0.000 NA
ATOM     24  C   UNL     1       3.436   2.647  17.993  0.00  0.00    +0.000 A 
ATOM     25  C   UNL     1       2.499   3.645  18.240  0.00  0.00    +0.000 A 
ATOM     26  C   UNL     1       2.856   4.912  17.802  0.00  0.00    +0.000 A 
ATOM     27  N   UNL     1       4.046   5.123  17.207  0.00  0.00    +0.000 NA
BRANCH  25  28
ATOM     28  C   UNL     1       1.240   3.200  18.864  0.00  0.00    +0.000 C 
ATOM     29  O   UNL     1       0.568   2.299  18.392  0.00  0.00    +0.000 OA
BRANCH  28  30
ATOM     30  O   UNL     1       0.867   3.986  19.908  0.00  0.00    +0.000 OA
BRANCH  30  31
ATOM     31  C   UNL     1       1.752   3.947  21.040  0.00  0.00    +0.000 C 
ATOM     32  C   UNL     1       1.590   2.586  21.689  0.00  0.00    +0.000 C 
ENDBRANCH  30  31
ENDBRANCH  28  30
ENDBRANCH  25  28
BRANCH  22  33
ATOM     33  C   UNL     1       6.103   4.389  16.190  0.00  0.00    +0.000 C 
BRANCH  33  34
ATOM     34  C   UNL     1       7.354   4.556  17.058  0.00  0.00    +0.000 C 
BRANCH  34  36
ATOM     35  C   UNL     1       7.749   5.805  19.208  0.00  0.00    +0.000 C 
ATOM     36  C   UNL     1       7.458   5.935  17.721  0.00  0.00    +0.000 C 
ENDBRANCH  34  36
ENDBRANCH  33  34
ENDBRANCH  22  33
ENDBRANCH  20  26
ENDBRANCH   1  20
TORSDOF 11
ENDMDL
MODEL 4
REMARK VINA RESULT:      -8.2      2.362      4.211
REMARK  Name = 
REMARK  13 active torsions:
REMARK  status: ('A' for Active; 'I' for Inactive)
REMARK    1  A    between atoms: C_1  and  C_2
REMARK    2  A    between atoms: C_2  and  C_3
REMARK    3  A    between atoms: C_3  and  C_4
REMARK    4  A    between atoms: C_4  and  C_5
REMARK    5  A    between atoms: C_8  and  C_9
REMARK    6  A    between atoms: C_9  and  O_11
REMARK    7  A    between atoms: O_11  and  C_12
REMARK    8  A    between atoms: C_12  and  C_13
REMARK    9  A    between atoms: C_14  and  N_15
REMARK   10  A    between atoms: N_15  and  C_16
REMARK   11  A    between atoms: C_16  and  C_17
REMARK   12  A    between atoms: C_20  and  C_21
REMARK   13  A    between atoms: C_26  and  C_27
REMARK                            x       y       z     vdW  Elec       q    Type
REMARK                         _______ _______ _______ _____ _____    ______ ____
ROOT
ATOM      1  C   UNL     1       2.627   7.052  19.712  0.00  0.00    +0.000 C 
ENDROOT
BRANCH   1   2
ATOM      2  C   UNL     1       1.645   8.119  20.120  0.00  0.00    +0.000 A 
ATOM      3  C   UNL     1       1.460   9.222  19.277  0.00  0.00    +0.000 A 
ATOM      4  C   UNL     1       0.553  10.231  19.611  0.00  0.00    +0.000 A 
ATOM      5  C   UNL     1      -0.135  10.216  20.831  0.00  0.00    +0.000 A 
ATOM      6  C   UNL     1      -0.004   9.059  21.621  0.00  0.00    +0.000 A 
ATOM      7  C   UNL     1       0.841   8.011  21.254  0.00  0.00    +0.000 A 
BRANCH   5   8
ATOM      8  C   UNL     1      -0.965  11.361  21.289  0.00  0.00    +0.000 A 
ATOM      9  C   UNL     1      -0.933  11.706  22.663  0.00  0.00    +0.000 A 
ATOM     10  C   UNL     1      -1.685  12.756  23.189  0.00  0.00    +0.000 A 
ATOM     11  C   UNL     1      -2.525  13.480  22.360  0.00  0.00    +0.000 A 
ATOM     12  C   UNL     1      -2.583  13.175  21.002  0.00  0.00    +0.000 A 
ATOM     13  C   UNL     1      -1.795  12.145  20.442  0.00  0.00    +0.000 A 
BRANCH  13  14
ATOM     14  C   UNL     1      -1.878  11.973  18.991  0.00  0.00    +0.000 A 
ATOM     15  N   UNL     1      -2.696  11.057  18.368  0.00  0.00    +0.000 NA
ATOM     16  N   UNL     1      -2.538  11.220  17.063  0.00  0.00    +0.000 NA
ATOM     17  N   UNL     1      -1.613  12.176  16.954  0.00  0.00    +0.000 N 
ATOM     18  N   UNL     1      -1.149  12.683  18.106  0.00  0.00    +0.000 NA
ATOM     19  H   UNL     1      -1.282  12.495  16.048  0.00  0.00    +0.000 HD
ENDBRANCH  13  14
ENDBRANCH   5   8
ENDBRANCH   1   2
BRANCH   1  20
ATOM     20  N   UNL     1       2.720   6.858  18.257  0.00  0.00    +0.000 N 
ATOM     21  H   UNL     1       3.453   7.411  17.820  0.00  0.00    +0.000 HD
BRANCH  20  26
ATOM     22  C   UNL     1       1.971   3.373  18.023  0.00  0.00    +0.000 A 
ATOM     23  N   UNL     1       2.967   2.813  17.333  0.00  0.00    +0.000 NA
ATOM     24  C   UNL     1       3.935   3.658  16.919  0.00  0.00    +0.000 A 
ATOM     25  C   UNL     1       3.956   5.026  17.173  0.00  0.00    +0.000 A 
ATOM     26  C   UNL     1       2.880   5.508  17.905  0.00  0.00    +0.000 A 
ATOM     27  N   UNL     1       1.893   4.680  18.302  0.00  0.00    +0.000 NA
BRANCH  25  28
ATOM     28  C   UNL     1       5.147   5.747  16.691  0.00  0.00    +0.000 C 
ATOM     29  O   UNL     1       5.550   5.637  15.546  0.00  0.00    +0.000 OA
BRANCH  28  30
ATOM     30  O   UNL     1       5.794   6.412  17.684  0.00  0.00    +0.000 OA
BRANCH  30  31
ATOM     31  C   UNL     1       6.445   5.570  18.651  0.00  0.00    +0.000 C 
ATOM     32  C   UNL     1       7.608   4.896  17.947  0.00  0.00    +0.000 C 
ENDBRANCH  30  31
ENDBRANCH  28  30
ENDBRANCH  25  28
BRANCH  22  33
ATOM     33  C   UNL     1       0.915   2.504  18.638  0.00  0.00    +0.000 C 
BRANCH  33  34
ATOM     34  C   UNL     1       0.615   2.881  20.092  0.00  0.00    +0.000 C 
BRANCH  34  36
ATOM     35  C   UNL     1       2.284   3.754  21.762  0.00  0.00    +0.000 C 
ATOM     36  C   UNL     1       1.744   2.516  21.064  0.00  0.00    +0.000 C 
ENDBRANCH  34  36
ENDBRANCH  33  34
ENDBRANCH  22  33
ENDBRANCH  20  26
ENDBRANCH   1  20
TORSDOF 11
ENDMDL
MODEL 5
REMARK VINA RESULT:      -8.2      2.887      4.790
REMARK  Name = 
REMARK  13 active torsions:
REMARK  status: ('A' for Active; 'I' for Inactive)
REMARK    1  A    between atoms: C_1  and  C_2
REMARK    2  A    between atoms: C_2  and  C_3
REMARK    3  A    between atoms: C_3  and  C_4
REMARK    4  A    between atoms: C_4  and  C_5
REMARK    5  A    between atoms: C_8  and  C_9
REMARK    6  A    between atoms: C_9  and  O_11
REMARK    7  A    between atoms: O_11  and  C_12
REMARK    8  A    between atoms: C_12  and  C_13
REMARK    9  A    between atoms: C_14  and  N_15
REMARK   10  A    between atoms: N_15  and  C_16
REMARK   11  A    between atoms: C_16  and  C_17
REMARK   12  A    between atoms: C_20  and  C_21
REMARK   13  A    between atoms: C_26  and  C_27
REMARK                            x       y       z     vdW  Elec       q    Type
REMARK                         _______ _______ _______ _____ _____    ______ ____
ROOT
ATOM      1  C   UNL     1       2.551   7.063  19.468  0.00  0.00    +0.000 C 
ENDROOT
BRANCH   1   2
ATOM      2  C   UNL     1       1.650   8.250  19.693  0.00  0.00    +0.000 A 
ATOM      3  C   UNL     1       1.036   8.403  20.942  0.00  0.00    +0.000 A 
ATOM      4  C   UNL     1       0.200   9.494  21.198  0.00  0.00    +0.000 A 
ATOM      5  C   UNL     1      -0.117  10.418  20.194  0.00  0.00    +0.000 A 
ATOM      6  C   UNL     1       0.578  10.299  18.977  0.00  0.00    +0.000 A 
ATOM      7  C   UNL     1       1.476   9.255  18.742  0.00  0.00    +0.000 A 
BRANCH   5   8
ATOM      8  C   UNL     1      -1.140  11.480  20.387  0.00  0.00    +0.000 A 
ATOM      9  C   UNL     1      -1.038  12.308  21.533  0.00  0.00    +0.000 A 
ATOM     10  C   UNL     1      -1.956  13.322  21.806  0.00  0.00    +0.000 A 
ATOM     11  C   UNL     1      -3.030  13.522  20.955  0.00  0.00    +0.000 A 
ATOM     12  C   UNL     1      -3.163  12.732  19.816  0.00  0.00    +0.000 A 
ATOM     13  C   UNL     1      -2.220  11.730  19.498  0.00  0.00    +0.000 A 
BRANCH  13  14
ATOM     14  C   UNL     1      -2.419  11.020  18.234  0.00  0.00    +0.000 A 
ATOM     15  N   UNL     1      -2.158  11.562  16.995  0.00  0.00    +0.000 NA
ATOM     16  N   UNL     1      -2.412  10.620  16.098  0.00  0.00    +0.000 NA
ATOM     17  N   UNL     1      -2.854   9.585  16.815  0.00  0.00    +0.000 N 
ATOM     18  N   UNL     1      -2.896   9.762  18.144  0.00  0.00    +0.000 NA
ATOM     19  H   UNL     1      -3.141   8.716  16.375  0.00  0.00    +0.000 HD
ENDBRANCH  13  14
ENDBRANCH   5   8
ENDBRANCH   1   2
BRANCH   1  20
ATOM     20  N   UNL     1       3.021   6.932  18.081  0.00  0.00    +0.000 N 
ATOM     21  H   UNL     1       3.780   7.566  17.847  0.00  0.00    +0.000 HD
BRANCH  20  26
ATOM     22  C   UNL     1       2.948   3.359  18.092  0.00  0.00    +0.000 A 
ATOM     23  N   UNL     1       3.940   2.955  17.297  0.00  0.00    +0.000 NA
ATOM     24  C   UNL     1       4.664   3.938  16.722  0.00  0.00    +0.000 A 
ATOM     25  C   UNL     1       4.448   5.299  16.916  0.00  0.00    +0.000 A 
ATOM     26  C   UNL     1       3.398   5.616  17.766  0.00  0.00    +0.000 A 
ATOM     27  N   UNL     1       2.651   4.644  18.326  0.00  0.00    +0.000 NA
BRANCH  25  28
ATOM     28  C   UNL     1       5.405   6.199  16.248  0.00  0.00    +0.000 C 
ATOM     29  O   UNL     1       5.754   6.030  15.093  0.00  0.00    +0.000 OA
BRANCH  28  30
ATOM     30  O   UNL     1       5.934   7.121  17.095  0.00  0.00    +0.000 OA
BRANCH  30  31
ATOM     31  C   UNL     1       7.312   6.904  17.441  0.00  0.00    +0.000 C 
ATOM     32  C   UNL     1       7.930   8.265  17.699  0.00  0.00    +0.000 C 
ENDBRANCH  30  31
ENDBRANCH  28  30
ENDBRANCH  25  28
BRANCH  22  33
ATOM     33  C   UNL     1       2.168   2.349  18.878  0.00  0.00    +0.000 C 
BRANCH  33  34
ATOM     34  C   UNL     1       0.986   2.971  19.627  0.00  0.00    +0.000 C 
BRANCH  34  36
ATOM     35  C   UNL     1       2.545   2.735  21.589  0.00  0.00    +0.000 C 
ATOM     36  C   UNL     1       1.093   2.845  21.152  0.00  0.00    +0.000 C 
ENDBRANCH  34  36
ENDBRANCH  33  34
ENDBRANCH  22  33
ENDBRANCH  20  26
ENDBRANCH   1  20
TORSDOF 11
ENDMDL
MODEL 6
REMARK VINA RESULT:      -8.2      3.567      9.786
REMARK  Name = 
REMARK  13 active torsions:
REMARK  status: ('A' for Active; 'I' for Inactive)
REMARK    1  A    between atoms: C_1  and  C_2
REMARK    2  A    between atoms: C_2  and  C_3
REMARK    3  A    between atoms: C_3  and  C_4
REMARK    4  A    between atoms: C_4  and  C_5
REMARK    5  A    between atoms: C_8  and  C_9
REMARK    6  A    between atoms: C_9  and  O_11
REMARK    7  A    between atoms: O_11  and  C_12
REMARK    8  A    between atoms: C_12  and  C_13
REMARK    9  A    between atoms: C_14  and  N_15
REMARK   10  A    between atoms: N_15  and  C_16
REMARK   11  A    between atoms: C_16  and  C_17
REMARK   12  A    between atoms: C_20  and  C_21
REMARK   13  A    between atoms: C_26  and  C_27
REMARK                            x       y       z     vdW  Elec       q    Type
REMARK                         _______ _______ _______ _____ _____    ______ ____
ROOT
ATOM      1  C   UNL     1       0.650   9.379  21.005  0.00  0.00    +0.000 C 
ENDROOT
BRANCH   1   2
ATOM      2  C   UNL     1       1.432   8.502  20.061  0.00  0.00    +0.000 A 
ATOM      3  C   UNL     1       1.903   7.267  20.524  0.00  0.00    +0.000 A 
ATOM      4  C   UNL     1       2.624   6.418  19.680  0.00  0.00    +0.000 A 
ATOM      5  C   UNL     1       2.971   6.806  18.380  0.00  0.00    +0.000 A 
ATOM      6  C   UNL     1       2.414   8.008  17.905  0.00  0.00    +0.000 A 
ATOM      7  C   UNL     1       1.626   8.825  18.719  0.00  0.00    +0.000 A 
BRANCH   5   8
ATOM      8  C   UNL     1       3.886   6.002  17.528  0.00  0.00    +0.000 A 
ATOM      9  C   UNL     1       4.974   6.662  16.904  0.00  0.00    +0.000 A 
ATOM     10  C   UNL     1       5.880   5.996  16.079  0.00  0.00    +0.000 A 
ATOM     11  C   UNL     1       5.707   4.646  15.821  0.00  0.00    +0.000 A 
ATOM     12  C   UNL     1       4.652   3.960  16.418  0.00  0.00    +0.000 A 
ATOM     13  C   UNL     1       3.752   4.607  17.293  0.00  0.00    +0.000 A 
BRANCH  13  14
ATOM     14  C   UNL     1       2.734   3.766  17.925  0.00  0.00    +0.000 A 
ATOM     15  N   UNL     1       1.404   3.763  17.568  0.00  0.00    +0.000 NA
ATOM     16  N   UNL     1       0.803   2.852  18.319  0.00  0.00    +0.000 NA
ATOM     17  N   UNL     1       1.767   2.385  19.116  0.00  0.00    +0.000 N 
ATOM     18  N   UNL     1       2.987   2.911  18.937  0.00  0.00    +0.000 NA
ATOM     19  H   UNL     1       1.580   1.673  19.816  0.00  0.00    +0.000 HD
ENDBRANCH  13  14
ENDBRANCH   5   8
ENDBRANCH   1   2
BRANCH   1  20
ATOM     20  N   UNL     1       0.716  10.811  20.675  0.00  0.00    +0.000 N 
ATOM     21  H   UNL     1       1.399  11.031  19.954  0.00  0.00    +0.000 HD
BRANCH  20  26
ATOM     22  C   UNL     1      -2.030  11.694  18.567  0.00  0.00    +0.000 A 
ATOM     23  N   UNL     1      -2.938  12.282  19.348  0.00  0.00    +0.000 NA
ATOM     24  C   UNL     1      -2.608  12.377  20.653  0.00  0.00    +0.000 A 
ATOM     25  C   UNL     1      -1.415  11.923  21.205  0.00  0.00    +0.000 A 
ATOM     26  C   UNL     1      -0.534  11.335  20.309  0.00  0.00    +0.000 A 
ATOM     27  N   UNL     1      -0.862  11.210  19.007  0.00  0.00    +0.000 NA
BRANCH  25  28
ATOM     28  C   UNL     1      -1.230  12.195  22.642  0.00  0.00    +0.000 C 
ATOM     29  O   UNL     1      -0.542  11.483  23.351  0.00  0.00    +0.000 OA
BRANCH  28  30
ATOM     30  O   UNL     1      -2.009  13.217  23.085  0.00  0.00    +0.000 OA
BRANCH  30  31
ATOM     31  C   UNL     1      -1.308  14.243  23.807  0.00  0.00    +0.000 C 
ATOM     32  C   UNL     1      -0.678  15.164  22.780  0.00  0.00    +0.000 C 
ENDBRANCH  30  31
ENDBRANCH  28  30
ENDBRANCH  25  28
BRANCH  22  33
ATOM     33  C   UNL     1      -2.242  11.655  17.083  0.00  0.00    +0.000 C 
BRANCH  33  34
ATOM     34  C   UNL     1      -3.346  10.676  16.671  0.00  0.00    +0.000 C 
BRANCH  34  36
ATOM     35  C   UNL     1      -3.549  10.088  14.232  0.00  0.00    +0.000 C 
ATOM     36  C   UNL     1      -2.921   9.705  15.563  0.00  0.00    +0.000 C 
ENDBRANCH  34  36
ENDBRANCH  33  34
ENDBRANCH  22  33
ENDBRANCH  20  26
ENDBRANCH   1  20
TORSDOF 11
ENDMDL
MODEL 7
REMARK VINA RESULT:      -8.1      2.486      4.576
REMARK  Name = 
REMARK  13 active torsions:
REMARK  status: ('A' for Active; 'I' for Inactive)
REMARK    1  A    between atoms: C_1  and  C_2
REMARK    2  A    between atoms: C_2  and  C_3
REMARK    3  A    between atoms: C_3  and  C_4
REMARK    4  A    between atoms: C_4  and  C_5
REMARK    5  A    between atoms: C_8  and  C_9
REMARK    6  A    between atoms: C_9  and  O_11
REMARK    7  A    between atoms: O_11  and  C_12
REMARK    8  A    between atoms: C_12  and  C_13
REMARK    9  A    between atoms: C_14  and  N_15
REMARK   10  A    between atoms: N_15  and  C_16
REMARK   11  A    between atoms: C_16  and  C_17
REMARK   12  A    between atoms: C_20  and  C_21
REMARK   13  A    between atoms: C_26  and  C_27
REMARK                            x       y       z     vdW  Elec       q    Type
REMARK                         _______ _______ _______ _____ _____    ______ ____
ROOT
ATOM      1  C   UNL     1       3.210   7.435  17.369  0.00  0.00    +0.000 C 
ENDROOT
BRANCH   1   2
ATOM      2  C   UNL     1       2.366   8.331  18.240  0.00  0.00    +0.000 A 
ATOM      3  C   UNL     1       1.967   7.864  19.498  0.00  0.00    +0.000 A 
ATOM      4  C   UNL     1       1.192   8.664  20.343  0.00  0.00    +0.000 A 
ATOM      5  C   UNL     1       0.721   9.916  19.928  0.00  0.00    +0.000 A 
ATOM      6  C   UNL     1       1.206  10.404  18.700  0.00  0.00    +0.000 A 
ATOM      7  C   UNL     1       2.046   9.641  17.887  0.00  0.00    +0.000 A 
BRANCH   5   8
ATOM      8  C   UNL     1      -0.249  10.706  20.732  0.00  0.00    +0.000 A 
ATOM      9  C   UNL     1      -0.050  10.785  22.133  0.00  0.00    +0.000 A 
ATOM     10  C   UNL     1      -0.912  11.492  22.972  0.00  0.00    +0.000 A 
ATOM     11  C   UNL     1      -2.026  12.119  22.439  0.00  0.00    +0.000 A 
ATOM     12  C   UNL     1      -2.255  12.068  21.066  0.00  0.00    +0.000 A 
ATOM     13  C   UNL     1      -1.369  11.396  20.194  0.00  0.00    +0.000 A 
BRANCH  13  14
ATOM     14  C   UNL     1      -1.668  11.481  18.764  0.00  0.00    +0.000 A 
ATOM     15  N   UNL     1      -2.413  10.551  18.075  0.00  0.00    +0.000 NA
ATOM     16  N   UNL     1      -2.510  10.980  16.825  0.00  0.00    +0.000 NA
ATOM     17  N   UNL     1      -1.793  12.105  16.801  0.00  0.00    +0.000 N 
ATOM     18  N   UNL     1      -1.232  12.474  17.962  0.00  0.00    +0.000 NA
ATOM     19  H   UNL     1      -1.680  12.647  15.949  0.00  0.00    +0.000 HD
ENDBRANCH  13  14
ENDBRANCH   5   8
ENDBRANCH   1   2
BRANCH   1  20
ATOM     20  N   UNL     1       4.265   6.720  18.104  0.00  0.00    +0.000 N 
ATOM     21  H   UNL     1       4.356   7.014  19.072  0.00  0.00    +0.000 HD
BRANCH  20  26
ATOM     22  C   UNL     1       2.578   3.571  18.010  0.00  0.00    +0.000 A 
ATOM     23  N   UNL     1       3.524   2.633  17.952  0.00  0.00    +0.000 NA
ATOM     24  C   UNL     1       4.795   3.087  17.934  0.00  0.00    +0.000 A 
ATOM     25  C   UNL     1       5.158   4.429  17.984  0.00  0.00    +0.000 A 
ATOM     26  C   UNL     1       4.101   5.326  18.052  0.00  0.00    +0.000 A 
ATOM     27  N   UNL     1       2.827   4.886  18.043  0.00  0.00    +0.000 NA
BRANCH  25  28
ATOM     28  C   UNL     1       6.606   4.698  18.028  0.00  0.00    +0.000 C 
ATOM     29  O   UNL     1       7.372   4.255  17.190  0.00  0.00    +0.000 OA
BRANCH  28  30
ATOM     30  O   UNL     1       6.982   5.357  19.156  0.00  0.00    +0.000 OA
BRANCH  30  31
ATOM     31  C   UNL     1       8.093   6.253  18.991  0.00  0.00    +0.000 C 
ATOM     32  C   UNL     1       7.685   7.290  17.962  0.00  0.00    +0.000 C 
ENDBRANCH  30  31
ENDBRANCH  28  30
ENDBRANCH  25  28
BRANCH  22  33
ATOM     33  C   UNL     1       1.142   3.169  18.165  0.00  0.00    +0.000 C 
BRANCH  33  34
ATOM     34  C   UNL     1       0.834   2.608  19.556  0.00  0.00    +0.000 C 
BRANCH  34  36
ATOM     35  C   UNL     1       2.189   2.966  21.648  0.00  0.00    +0.000 C 
ATOM     36  C   UNL     1       1.173   3.577  20.695  0.00  0.00    +0.000 C 
ENDBRANCH  34  36
ENDBRANCH  33  34
ENDBRANCH  22  33
ENDBRANCH  20  26
ENDBRANCH   1  20
TORSDOF 11
ENDMDL
MODEL 8
REMARK VINA RESULT:      -8.1      3.521      9.676
REMARK  Name = 
REMARK  13 active torsions:
REMARK  status: ('A' for Active; 'I' for Inactive)
REMARK    1  A    between atoms: C_1  and  C_2
REMARK    2  A    between atoms: C_2  and  C_3
REMARK    3  A    between atoms: C_3  and  C_4
REMARK    4  A    between atoms: C_4  and  C_5
REMARK    5  A    between atoms: C_8  and  C_9
REMARK    6  A    between atoms: C_9  and  O_11
REMARK    7  A    between atoms: O_11  and  C_12
REMARK    8  A    between atoms: C_12  and  C_13
REMARK    9  A    between atoms: C_14  and  N_15
REMARK   10  A    between atoms: N_15  and  C_16
REMARK   11  A    between atoms: C_16  and  C_17
REMARK   12  A    between atoms: C_20  and  C_21
REMARK   13  A    between atoms: C_26  and  C_27
REMARK                            x       y       z     vdW  Elec       q    Type
REMARK                         _______ _______ _______ _____ _____    ______ ____
ROOT
ATOM      1  C   UNL     1       0.601   9.540  20.792  0.00  0.00    +0.000 C 
ENDROOT
BRANCH   1   2
ATOM      2  C   UNL     1       1.402   8.623  19.905  0.00  0.00    +0.000 A 
ATOM      3  C   UNL     1       1.879   7.418  20.437  0.00  0.00    +0.000 A 
ATOM      4  C   UNL     1       2.618   6.533  19.648  0.00  0.00    +0.000 A 
ATOM      5  C   UNL     1       2.976   6.855  18.333  0.00  0.00    +0.000 A 
ATOM      6  C   UNL     1       2.412   8.025  17.789  0.00  0.00    +0.000 A 
ATOM      7  C   UNL     1       1.607   8.875  18.549  0.00  0.00    +0.000 A 
BRANCH   5   8
ATOM      8  C   UNL     1       3.908   6.016  17.535  0.00  0.00    +0.000 A 
ATOM      9  C   UNL     1       5.012   6.649  16.910  0.00  0.00    +0.000 A 
ATOM     10  C   UNL     1       5.934   5.949  16.132  0.00  0.00    +0.000 A 
ATOM     11  C   UNL     1       5.764   4.591  15.925  0.00  0.00    +0.000 A 
ATOM     12  C   UNL     1       4.694   3.930  16.524  0.00  0.00    +0.000 A 
ATOM     13  C   UNL     1       3.775   4.613  17.352  0.00  0.00    +0.000 A 
BRANCH  13  14
ATOM     14  C   UNL     1       2.742   3.799  17.993  0.00  0.00    +0.000 A 
ATOM     15  N   UNL     1       2.959   3.003  19.095  0.00  0.00    +0.000 NA
ATOM     16  N   UNL     1       1.794   2.460  19.417  0.00  0.00    +0.000 NA
ATOM     17  N   UNL     1       0.948   2.904  18.485  0.00  0.00    +0.000 N 
ATOM     18  N   UNL     1       1.465   3.730  17.563  0.00  0.00    +0.000 NA
ATOM     19  H   UNL     1      -0.029   2.628  18.479  0.00  0.00    +0.000 HD
ENDBRANCH  13  14
ENDBRANCH   5   8
ENDBRANCH   1   2
BRANCH   1  20
ATOM     20  N   UNL     1       1.154  10.900  20.890  0.00  0.00    +0.000 N 
ATOM     21  H   UNL     1       2.167  10.933  20.811  0.00  0.00    +0.000 HD
BRANCH  20  26
ATOM     22  C   UNL     1      -1.215  12.169  18.536  0.00  0.00    +0.000 A 
ATOM     23  N   UNL     1      -0.736  13.336  18.103  0.00  0.00    +0.000 NA
ATOM     24  C   UNL     1       0.442  13.718  18.642  0.00  0.00    +0.000 A 
ATOM     25  C   UNL     1       1.162  12.982  19.577  0.00  0.00    +0.000 A 
ATOM     26  C   UNL     1       0.584  11.779  19.955  0.00  0.00    +0.000 A 
ATOM     27  N   UNL     1      -0.605  11.398  19.445  0.00  0.00    +0.000 NA
BRANCH  25  28
ATOM     28  C   UNL     1       2.462  13.551  19.976  0.00  0.00    +0.000 C 
ATOM     29  O   UNL     1       3.355  13.749  19.171  0.00  0.00    +0.000 OA
BRANCH  28  30
ATOM     30  O   UNL     1       2.582  13.688  21.322  0.00  0.00    +0.000 OA
BRANCH  30  31
ATOM     31  C   UNL     1       1.988  14.880  21.865  0.00  0.00    +0.000 C 
ATOM     32  C   UNL     1       3.121  15.765  22.349  0.00  0.00    +0.000 C 
ENDBRANCH  30  31
ENDBRANCH  28  30
ENDBRANCH  25  28
BRANCH  22  33
ATOM     33  C   UNL     1      -2.449  11.595  17.907  0.00  0.00    +0.000 C 
BRANCH  33  34
ATOM     34  C   UNL     1      -2.330  10.091  17.643  0.00  0.00    +0.000 C 
BRANCH  34  36
ATOM     35  C   UNL     1      -3.051  10.872  15.360  0.00  0.00    +0.000 C 
ATOM     36  C   UNL     1      -2.866   9.667  16.269  0.00  0.00    +0.000 C 
ENDBRANCH  34  36
ENDBRANCH  33  34
ENDBRANCH  22  33
ENDBRANCH  20  26
ENDBRANCH   1  20
TORSDOF 11
ENDMDL
MODEL 9
REMARK VINA RESULT:      -8.1      3.419      9.748
REMARK  Name = 
REMARK  13 active torsions:
REMARK  status: ('A' for Active; 'I' for Inactive)
REMARK    1  A    between atoms: C_1  and  C_2
REMARK    2  A    between atoms: C_2  and  C_3
REMARK    3  A    between atoms: C_3  and  C_4
REMARK    4  A    between atoms: C_4  and  C_5
REMARK    5  A    between atoms: C_8  and  C_9
REMARK    6  A    between atoms: C_9  and  O_11
REMARK    7  A    between atoms: O_11  and  C_12
REMARK    8  A    between atoms: C_12  and  C_13
REMARK    9  A    between atoms: C_14  and  N_15
REMARK   10  A    between atoms: N_15  and  C_16
REMARK   11  A    between atoms: C_16  and  C_17
REMARK   12  A    between atoms: C_20  and  C_21
REMARK   13  A    between atoms: C_26  and  C_27
REMARK                            x       y       z     vdW  Elec       q    Type
REMARK                         _______ _______ _______ _____ _____    ______ ____
ROOT
ATOM      1  C   UNL     1       0.141  10.811  19.854  0.00  0.00    +0.000 C 
ENDROOT
BRANCH   1   2
ATOM      2  C   UNL     1       0.974   9.666  19.336  0.00  0.00    +0.000 A 
ATOM      3  C   UNL     1       1.355   8.655  20.227  0.00  0.00    +0.000 A 
ATOM      4  C   UNL     1       2.119   7.570  19.789  0.00  0.00    +0.000 A 
ATOM      5  C   UNL     1       2.597   7.501  18.474  0.00  0.00    +0.000 A 
ATOM      6  C   UNL     1       2.130   8.477  17.574  0.00  0.00    +0.000 A 
ATOM      7  C   UNL     1       1.301   9.521  17.989  0.00  0.00    +0.000 A 
BRANCH   5   8
ATOM      8  C   UNL     1       3.557   6.455  18.032  0.00  0.00    +0.000 A 
ATOM      9  C   UNL     1       4.630   6.842  17.191  0.00  0.00    +0.000 A 
ATOM     10  C   UNL     1       5.574   5.932  16.715  0.00  0.00    +0.000 A 
ATOM     11  C   UNL     1       5.457   4.590  17.040  0.00  0.00    +0.000 A 
ATOM     12  C   UNL     1       4.418   4.170  17.867  0.00  0.00    +0.000 A 
ATOM     13  C   UNL     1       3.479   5.083  18.395  0.00  0.00    +0.000 A 
BRANCH  13  14
ATOM     14  C   UNL     1       2.483   4.537  19.318  0.00  0.00    +0.000 A 
ATOM     15  N   UNL     1       2.708   4.325  20.660  0.00  0.00    +0.000 NA
ATOM     16  N   UNL     1       1.576   3.869  21.176  0.00  0.00    +0.000 NA
ATOM     17  N   UNL     1       0.744   3.782  20.136  0.00  0.00    +0.000 N 
ATOM     18  N   UNL     1       1.239   4.168  18.950  0.00  0.00    +0.000 NA
ATOM     19  H   UNL     1      -0.206   3.440  20.241  0.00  0.00    +0.000 HD
ENDBRANCH  13  14
ENDBRANCH   5   8
ENDBRANCH   1   2
BRANCH   1  20
ATOM     20  N   UNL     1      -0.399  11.676  18.794  0.00  0.00    +0.000 N 
ATOM     21  H   UNL     1      -0.167  11.362  17.855  0.00  0.00    +0.000 HD
BRANCH  20  26
ATOM     22  C   UNL     1      -3.525  12.711  20.181  0.00  0.00    +0.000 A 
ATOM     23  N   UNL     1      -4.471  12.313  19.329  0.00  0.00    +0.000 NA
ATOM     24  C   UNL     1      -4.030  11.672  18.226  0.00  0.00    +0.000 A 
ATOM     25  C   UNL     1      -2.694  11.402  17.947  0.00  0.00    +0.000 A 
ATOM     26  C   UNL     1      -1.789  11.848  18.899  0.00  0.00    +0.000 A 
ATOM     27  N   UNL     1      -2.214  12.514  19.992  0.00  0.00    +0.000 NA
BRANCH  25  28
ATOM     28  C   UNL     1      -2.442  10.623  16.722  0.00  0.00    +0.000 C 
ATOM     29  O   UNL     1      -1.704   9.654  16.712  0.00  0.00    +0.000 OA
BRANCH  28  30
ATOM     30  O   UNL     1      -3.001  11.187  15.619  0.00  0.00    +0.000 OA
BRANCH  30  31
ATOM     31  C   UNL     1      -3.841  10.310  14.851  0.00  0.00    +0.000 C 
ATOM     32  C   UNL     1      -3.040   9.867  13.641  0.00  0.00    +0.000 C 
ENDBRANCH  30  31
ENDBRANCH  28  30
ENDBRANCH  25  28
BRANCH  22  33
ATOM     33  C   UNL     1      -3.917  13.316  21.496  0.00  0.00    +0.000 C 
BRANCH  33  34
ATOM     34  C   UNL     1      -2.811  13.202  22.549  0.00  0.00    +0.000 C 
BRANCH  34  36
ATOM     35  C   UNL     1      -4.448  12.679  24.390  0.00  0.00    +0.000 C 
ATOM     36  C   UNL     1      -3.160  12.252  23.702  0.00  0.00    +0.000 C 
ENDBRANCH  34  36
ENDBRANCH  33  34
ENDBRANCH  22  33
ENDBRANCH  20  26
ENDBRANCH   1  20
TORSDOF 11
ENDMDL
