MODEL 1
REMARK VINA RESULT:      -7.3      0.000      0.000
REMARK  Name = 
REMARK  11 active torsions:
REMARK  status: ('A' for Active; 'I' for Inactive)
REMARK    1  A    between atoms: C_1  and  C_2
REMARK    2  A    between atoms: C_2  and  C_3
REMARK    3  A    between atoms: C_3  and  C_4
REMARK    4  A    between atoms: C_4  and  C_5
REMARK    5  A    between atoms: C_5  and  C_6
REMARK    6  A    between atoms: C_6  and  C_7
REMARK    7  A    between atoms: C_7  and  C_8
REMARK    8  A    between atoms: C_7  and  C_9
REMARK    9  A    between atoms: C_7  and  C_10
REMARK   10  A    between atoms: C_13  and  C_14
REMARK   11  A    between atoms: C_18  and  O_19
REMARK                            x       y       z     vdW  Elec       q    Type
REMARK                         _______ _______ _______ _____ _____    ______ ____
ROOT
ATOM      1  C   UNL     1       2.751   3.513  19.081  0.00  0.00    +0.000 A 
ATOM      2  C   UNL     1       2.742   3.710  17.691  0.00  0.00    +0.000 A 
ATOM      3  C   UNL     1       3.916   3.906  16.976  0.00  0.00    +0.000 A 
ATOM      4  C   UNL     1       5.157   3.955  17.612  0.00  0.00    +0.000 A 
ATOM      5  C   UNL     1       5.181   3.651  18.981  0.00  0.00    +0.000 A 
ATOM      6  C   UNL     1       4.003   3.464  19.704  0.00  0.00    +0.000 A 
ENDROOT
BRANCH   4   7
ATOM      7  C   UNL     1       6.409   4.333  16.828  0.00  0.00    +0.000 C 
ATOM      8  C   UNL     1       6.169   5.480  15.810  0.00  0.00    +0.000 C 
ATOM      9  C   UNL     1       5.885   6.819  16.499  0.00  0.00    +0.000 C 
ATOM     10  C   UNL     1       7.026   7.204  17.431  0.00  0.00    +0.000 C 
ATOM     11  C   UNL     1       7.340   6.092  18.431  0.00  0.00    +0.000 C 
ATOM     12  C   UNL     1       7.597   4.758  17.719  0.00  0.00    +0.000 C 
BRANCH  11  13
ATOM     13  O   UNL     1       8.470   6.447  19.212  0.00  0.00    +0.000 OA
ATOM     14  H   UNL     1       8.899   7.213  18.796  0.00  0.00    +0.000 HD
ENDBRANCH  11  13
ENDBRANCH   4   7
BRANCH   1  15
ATOM     15  C   UNL     1       1.457   3.276  19.870  0.00  0.00    +0.000 C 
ATOM     16  C   UNL     1       1.735   2.483  21.166  0.00  0.00    +0.000 C 
ATOM     17  C   UNL     1       0.458   2.441  19.032  0.00  0.00    +0.000 C 
BRANCH  15  18
ATOM     18  C   UNL     1       0.768   4.632  20.215  0.00  0.00    +0.000 C 
BRANCH  18  19
ATOM     19  C   UNL     1       1.690   5.637  20.909  0.00  0.00    +0.000 C 
BRANCH  19  20
ATOM     20  C   UNL     1       1.768   6.961  20.155  0.00  0.00    +0.000 C 
BRANCH  20  21
ATOM     21  C   UNL     1       2.921   6.903  19.157  0.00  0.00    +0.000 C 
BRANCH  21  23
ATOM     22  C   UNL     1       1.684   8.906  18.328  0.00  0.00    +0.000 C 
ATOM     23  C   UNL     1       2.706   7.838  17.976  0.00  0.00    +0.000 C 
ENDBRANCH  21  23
ENDBRANCH  20  21
ENDBRANCH  19  20
ENDBRANCH  18  19
ENDBRANCH  15  18
ENDBRANCH   1  15
TORSDOF 8
ENDMDL
MODEL 2
REMARK VINA RESULT:      -7.1      2.552      6.466
REMARK  Name = 
REMARK  11 active torsions:
REMARK  status: ('A' for Active; 'I' for Inactive)
REMARK    1  A    between atoms: C_1  and  C_2
REMARK    2  A    between atoms: C_2  and  C_3
REMARK    3  A    between atoms: C_3  and  C_4
REMARK    4  A    between atoms: C_4  and  C_5
REMARK    5  A    between atoms: C_5  and  C_6
REMARK    6  A    between atoms: C_6  and  C_7
REMARK    7  A    between atoms: C_7  and  C_8
REMARK    8  A    between atoms: C_7  and  C_9
REMARK    9  A    between atoms: C_7  and  C_10
REMARK   10  A    between atoms: C_13  and  C_14
REMARK   11  A    between atoms: C_18  and  O_19
REMARK                            x       y       z     vdW  Elec       q    Type
REMARK                         _______ _______ _______ _____ _____    ______ ____
ROOT
ATOM      1  C   UNL     1       5.650   5.913  18.035  0.00  0.00    +0.000 A 
ATOM      2  C   UNL     1       4.539   6.445  17.361  0.00  0.00    +0.000 A 
ATOM      3  C   UNL     1       3.241   6.177  17.775  0.00  0.00    +0.000 A 
ATOM      4  C   UNL     1       2.980   5.334  18.855  0.00  0.00    +0.000 A 
ATOM      5  C   UNL     1       4.085   4.889  19.595  0.00  0.00    +0.000 A 
ATOM      6  C   UNL     1       5.390   5.148  19.177  0.00  0.00    +0.000 A 
ENDROOT
BRANCH   4   7
ATOM      7  C   UNL     1       1.547   4.928  19.185  0.00  0.00    +0.000 C 
ATOM      8  C   UNL     1       1.000   3.811  18.256  0.00  0.00    +0.000 C 
ATOM      9  C   UNL     1       1.705   2.469  18.484  0.00  0.00    +0.000 C 
ATOM     10  C   UNL     1       1.577   2.026  19.934  0.00  0.00    +0.000 C 
ATOM     11  C   UNL     1       2.060   3.105  20.902  0.00  0.00    +0.000 C 
ATOM     12  C   UNL     1       1.357   4.443  20.639  0.00  0.00    +0.000 C 
BRANCH  11  13
ATOM     13  O   UNL     1       1.830   2.695  22.241  0.00  0.00    +0.000 OA
ATOM     14  H   UNL     1       1.113   3.237  22.606  0.00  0.00    +0.000 HD
ENDBRANCH  11  13
ENDBRANCH   4   7
BRANCH   1  15
ATOM     15  C   UNL     1       7.086   6.224  17.592  0.00  0.00    +0.000 C 
ATOM     16  C   UNL     1       8.112   5.612  18.570  0.00  0.00    +0.000 C 
ATOM     17  C   UNL     1       7.328   7.753  17.578  0.00  0.00    +0.000 C 
BRANCH  15  18
ATOM     18  C   UNL     1       7.343   5.690  16.149  0.00  0.00    +0.000 C 
BRANCH  18  19
ATOM     19  C   UNL     1       6.900   4.241  15.935  0.00  0.00    +0.000 C 
BRANCH  19  20
ATOM     20  C   UNL     1       5.876   4.114  14.811  0.00  0.00    +0.000 C 
BRANCH  20  21
ATOM     21  C   UNL     1       6.572   4.339  13.471  0.00  0.00    +0.000 C 
BRANCH  21  23
ATOM     22  C   UNL     1       4.819   3.470  11.921  0.00  0.00    +0.000 C 
ATOM     23  C   UNL     1       6.226   3.260  12.456  0.00  0.00    +0.000 C 
ENDBRANCH  21  23
ENDBRANCH  20  21
ENDBRANCH  19  20
ENDBRANCH  18  19
ENDBRANCH  15  18
ENDBRANCH   1  15
TORSDOF 8
ENDMDL
MODEL 3
REMARK VINA RESULT:      -7.1      0.252      1.048
REMARK  Name = 
REMARK  11 active torsions:
REMARK  status: ('A' for Active; 'I' for Inactive)
REMARK    1  A    between atoms: C_1  and  C_2
REMARK    2  A    between atoms: C_2  and  C_3
REMARK    3  A    between atoms: C_3  and  C_4
REMARK    4  A    between atoms: C_4  and  C_5
REMARK    5  A    between atoms: C_5  and  C_6
REMARK    6  A    between atoms: C_6  and  C_7
REMARK    7  A    between atoms: C_7  and  C_8
REMARK    8  A    between atoms: C_7  and  C_9
REMARK    9  A    between atoms: C_7  and  C_10
REMARK   10  A    between atoms: C_13  and  C_14
REMARK   11  A    between atoms: C_18  and  O_19
REMARK                            x       y       z     vdW  Elec       q    Type
REMARK                         _______ _______ _______ _____ _____    ______ ____
ROOT
ATOM      1  C   UNL     1       2.806   3.504  19.082  0.00  0.00    +0.000 A 
ATOM      2  C   UNL     1       4.033   3.616  19.757  0.00  0.00    +0.000 A 
ATOM      3  C   UNL     1       5.200   3.964  19.090  0.00  0.00    +0.000 A 
ATOM      4  C   UNL     1       5.215   4.179  17.712  0.00  0.00    +0.000 A 
ATOM      5  C   UNL     1       3.976   4.175  17.054  0.00  0.00    +0.000 A 
ATOM      6  C   UNL     1       2.803   3.816  17.719  0.00  0.00    +0.000 A 
ENDROOT
BRANCH   4   7
ATOM      7  C   UNL     1       6.536   4.399  16.981  0.00  0.00    +0.000 C 
ATOM      8  C   UNL     1       6.442   5.465  15.857  0.00  0.00    +0.000 C 
ATOM      9  C   UNL     1       6.219   6.876  16.412  0.00  0.00    +0.000 C 
ATOM     10  C   UNL     1       7.329   7.262  17.380  0.00  0.00    +0.000 C 
ATOM     11  C   UNL     1       7.500   6.224  18.488  0.00  0.00    +0.000 C 
ATOM     12  C   UNL     1       7.698   4.818  17.908  0.00  0.00    +0.000 C 
BRANCH  11  13
ATOM     13  O   UNL     1       8.606   6.568  19.309  0.00  0.00    +0.000 OA
ATOM     14  H   UNL     1       8.688   5.896  20.004  0.00  0.00    +0.000 HD
ENDBRANCH  11  13
ENDBRANCH   4   7
BRANCH   1  15
ATOM     15  C   UNL     1       1.512   3.139  19.821  0.00  0.00    +0.000 C 
ATOM     16  C   UNL     1       1.810   2.280  21.070  0.00  0.00    +0.000 C 
ATOM     17  C   UNL     1       0.584   2.303  18.906  0.00  0.00    +0.000 C 
BRANCH  15  18
ATOM     18  C   UNL     1       0.735   4.426  20.235  0.00  0.00    +0.000 C 
BRANCH  18  19
ATOM     19  C   UNL     1       1.614   5.506  20.868  0.00  0.00    +0.000 C 
BRANCH  19  20
ATOM     20  C   UNL     1       1.571   6.815  20.084  0.00  0.00    +0.000 C 
BRANCH  20  21
ATOM     21  C   UNL     1       2.916   7.032  19.397  0.00  0.00    +0.000 C 
BRANCH  21  23
ATOM     22  C   UNL     1       1.789   8.721  17.945  0.00  0.00    +0.000 C 
ATOM     23  C   UNL     1       2.758   7.550  17.974  0.00  0.00    +0.000 C 
ENDBRANCH  21  23
ENDBRANCH  20  21
ENDBRANCH  19  20
ENDBRANCH  18  19
ENDBRANCH  15  18
ENDBRANCH   1  15
TORSDOF 8
ENDMDL
MODEL 4
REMARK VINA RESULT:      -6.9      2.967      6.537
REMARK  Name = 
REMARK  11 active torsions:
REMARK  status: ('A' for Active; 'I' for Inactive)
REMARK    1  A    between atoms: C_1  and  C_2
REMARK    2  A    between atoms: C_2  and  C_3
REMARK    3  A    between atoms: C_3  and  C_4
REMARK    4  A    between atoms: C_4  and  C_5
REMARK    5  A    between atoms: C_5  and  C_6
REMARK    6  A    between atoms: C_6  and  C_7
REMARK    7  A    between atoms: C_7  and  C_8
REMARK    8  A    between atoms: C_7  and  C_9
REMARK    9  A    between atoms: C_7  and  C_10
REMARK   10  A    between atoms: C_13  and  C_14
REMARK   11  A    between atoms: C_18  and  O_19
REMARK                            x       y       z     vdW  Elec       q    Type
REMARK                         _______ _______ _______ _____ _____    ______ ____
ROOT
ATOM      1  C   UNL     1       5.623   5.870  18.045  0.00  0.00    +0.000 A 
ATOM      2  C   UNL     1       4.525   6.289  17.276  0.00  0.00    +0.000 A 
ATOM      3  C   UNL     1       3.220   6.014  17.662  0.00  0.00    +0.000 A 
ATOM      4  C   UNL     1       2.940   5.273  18.811  0.00  0.00    +0.000 A 
ATOM      5  C   UNL     1       4.026   4.948  19.636  0.00  0.00    +0.000 A 
ATOM      6  C   UNL     1       5.339   5.214  19.247  0.00  0.00    +0.000 A 
ENDROOT
BRANCH   4   7
ATOM      7  C   UNL     1       1.509   4.847  19.123  0.00  0.00    +0.000 C 
ATOM      8  C   UNL     1       0.997   3.709  18.199  0.00  0.00    +0.000 C 
ATOM      9  C   UNL     1       1.720   2.383  18.456  0.00  0.00    +0.000 C 
ATOM     10  C   UNL     1       1.575   1.955  19.909  0.00  0.00    +0.000 C 
ATOM     11  C   UNL     1       2.023   3.055  20.871  0.00  0.00    +0.000 C 
ATOM     12  C   UNL     1       1.303   4.378  20.579  0.00  0.00    +0.000 C 
BRANCH  11  13
ATOM     13  O   UNL     1       1.778   2.658  22.211  0.00  0.00    +0.000 OA
ATOM     14  H   UNL     1       0.949   3.069  22.503  0.00  0.00    +0.000 HD
ENDBRANCH  11  13
ENDBRANCH   4   7
BRANCH   1  15
ATOM     15  C   UNL     1       7.065   6.191  17.631  0.00  0.00    +0.000 C 
ATOM     16  C   UNL     1       7.418   5.515  16.288  0.00  0.00    +0.000 C 
ATOM     17  C   UNL     1       8.063   5.654  18.686  0.00  0.00    +0.000 C 
BRANCH  15  18
ATOM     18  C   UNL     1       7.275   7.732  17.521  0.00  0.00    +0.000 C 
BRANCH  18  19
ATOM     19  C   UNL     1       8.404   8.269  18.403  0.00  0.00    +0.000 C 
BRANCH  19  20
ATOM     20  C   UNL     1       8.598   9.774  18.235  0.00  0.00    +0.000 C 
BRANCH  20  21
ATOM     21  C   UNL     1       9.315  10.327  19.463  0.00  0.00    +0.000 C 
BRANCH  21  23
ATOM     22  C   UNL     1      10.616  11.540  17.713  0.00  0.00    +0.000 C 
ATOM     23  C   UNL     1      10.112  11.584  19.146  0.00  0.00    +0.000 C 
ENDBRANCH  21  23
ENDBRANCH  20  21
ENDBRANCH  19  20
ENDBRANCH  18  19
ENDBRANCH  15  18
ENDBRANCH   1  15
TORSDOF 8
ENDMDL
MODEL 5
REMARK VINA RESULT:      -6.9      2.549      6.542
REMARK  Name = 
REMARK  11 active torsions:
REMARK  status: ('A' for Active; 'I' for Inactive)
REMARK    1  A    between atoms: C_1  and  C_2
REMARK    2  A    between atoms: C_2  and  C_3
REMARK    3  A    between atoms: C_3  and  C_4
REMARK    4  A    between atoms: C_4  and  C_5
REMARK    5  A    between atoms: C_5  and  C_6
REMARK    6  A    between atoms: C_6  and  C_7
REMARK    7  A    between atoms: C_7  and  C_8
REMARK    8  A    between atoms: C_7  and  C_9
REMARK    9  A    between atoms: C_7  and  C_10
REMARK   10  A    between atoms: C_13  and  C_14
REMARK   11  A    between atoms: C_18  and  O_19
REMARK                            x       y       z     vdW  Elec       q    Type
REMARK                         _______ _______ _______ _____ _____    ______ ____
ROOT
ATOM      1  C   UNL     1       5.760   5.584  18.221  0.00  0.00    +0.000 A 
ATOM      2  C   UNL     1       5.392   4.760  19.296  0.00  0.00    +0.000 A 
ATOM      3  C   UNL     1       4.061   4.480  19.575  0.00  0.00    +0.000 A 
ATOM      4  C   UNL     1       3.026   5.037  18.824  0.00  0.00    +0.000 A 
ATOM      5  C   UNL     1       3.391   5.771  17.686  0.00  0.00    +0.000 A 
ATOM      6  C   UNL     1       4.727   6.063  17.408  0.00  0.00    +0.000 A 
ENDROOT
BRANCH   4   7
ATOM      7  C   UNL     1       1.574   4.844  19.251  0.00  0.00    +0.000 C 
ATOM      8  C   UNL     1       0.804   3.835  18.358  0.00  0.00    +0.000 C 
ATOM      9  C   UNL     1       1.313   2.400  18.530  0.00  0.00    +0.000 C 
ATOM     10  C   UNL     1       1.219   1.960  19.984  0.00  0.00    +0.000 C 
ATOM     11  C   UNL     1       1.923   2.941  20.920  0.00  0.00    +0.000 C 
ATOM     12  C   UNL     1       1.413   4.372  20.712  0.00  0.00    +0.000 C 
BRANCH  11  13
ATOM     13  O   UNL     1       1.726   2.549  22.270  0.00  0.00    +0.000 OA
ATOM     14  H   UNL     1       0.885   2.067  22.327  0.00  0.00    +0.000 HD
ENDBRANCH  11  13
ENDBRANCH   4   7
BRANCH   1  15
ATOM     15  C   UNL     1       7.231   5.878  17.899  0.00  0.00    +0.000 C 
ATOM     16  C   UNL     1       8.080   5.933  19.188  0.00  0.00    +0.000 C 
ATOM     17  C   UNL     1       7.368   7.257  17.207  0.00  0.00    +0.000 C 
BRANCH  15  18
ATOM     18  C   UNL     1       7.807   4.802  16.929  0.00  0.00    +0.000 C 
BRANCH  18  19
ATOM     19  C   UNL     1       7.303   4.929  15.490  0.00  0.00    +0.000 C 
BRANCH  19  20
ATOM     20  C   UNL     1       6.388   3.772  15.097  0.00  0.00    +0.000 C 
BRANCH  20  21
ATOM     21  C   UNL     1       5.537   4.191  13.901  0.00  0.00    +0.000 C 
BRANCH  21  23
ATOM     22  C   UNL     1       4.741   3.267  11.723  0.00  0.00    +0.000 C 
ATOM     23  C   UNL     1       5.948   3.473  12.624  0.00  0.00    +0.000 C 
ENDBRANCH  21  23
ENDBRANCH  20  21
ENDBRANCH  19  20
ENDBRANCH  18  19
ENDBRANCH  15  18
ENDBRANCH   1  15
TORSDOF 8
ENDMDL
MODEL 6
REMARK VINA RESULT:      -6.8      0.850      1.269
REMARK  Name = 
REMARK  11 active torsions:
REMARK  status: ('A' for Active; 'I' for Inactive)
REMARK    1  A    between atoms: C_1  and  C_2
REMARK    2  A    between atoms: C_2  and  C_3
REMARK    3  A    between atoms: C_3  and  C_4
REMARK    4  A    between atoms: C_4  and  C_5
REMARK    5  A    between atoms: C_5  and  C_6
REMARK    6  A    between atoms: C_6  and  C_7
REMARK    7  A    between atoms: C_7  and  C_8
REMARK    8  A    between atoms: C_7  and  C_9
REMARK    9  A    between atoms: C_7  and  C_10
REMARK   10  A    between atoms: C_13  and  C_14
REMARK   11  A    between atoms: C_18  and  O_19
REMARK                            x       y       z     vdW  Elec       q    Type
REMARK                         _______ _______ _______ _____ _____    ______ ____
ROOT
ATOM      1  C   UNL     1       2.747   3.552  19.118  0.00  0.00    +0.000 A 
ATOM      2  C   UNL     1       2.727   3.806  17.737  0.00  0.00    +0.000 A 
ATOM      3  C   UNL     1       3.899   3.989  17.015  0.00  0.00    +0.000 A 
ATOM      4  C   UNL     1       5.148   3.969  17.635  0.00  0.00    +0.000 A 
ATOM      5  C   UNL     1       5.178   3.609  18.990  0.00  0.00    +0.000 A 
ATOM      6  C   UNL     1       4.003   3.434  19.721  0.00  0.00    +0.000 A 
ENDROOT
BRANCH   4   7
ATOM      7  C   UNL     1       6.404   4.335  16.850  0.00  0.00    +0.000 C 
ATOM      8  C   UNL     1       6.172   5.481  15.828  0.00  0.00    +0.000 C 
ATOM      9  C   UNL     1       5.900   6.824  16.514  0.00  0.00    +0.000 C 
ATOM     10  C   UNL     1       7.044   7.202  17.444  0.00  0.00    +0.000 C 
ATOM     11  C   UNL     1       7.349   6.091  18.448  0.00  0.00    +0.000 C 
ATOM     12  C   UNL     1       7.595   4.753  17.739  0.00  0.00    +0.000 C 
BRANCH  11  13
ATOM     13  O   UNL     1       8.482   6.439  19.227  0.00  0.00    +0.000 OA
ATOM     14  H   UNL     1       9.221   5.868  18.961  0.00  0.00    +0.000 HD
ENDBRANCH  11  13
ENDBRANCH   4   7
BRANCH   1  15
ATOM     15  C   UNL     1       1.454   3.329  19.914  0.00  0.00    +0.000 C 
ATOM     16  C   UNL     1       1.736   2.558  21.223  0.00  0.00    +0.000 C 
ATOM     17  C   UNL     1       0.453   2.480  19.093  0.00  0.00    +0.000 C 
BRANCH  15  18
ATOM     18  C   UNL     1       0.767   4.691  20.238  0.00  0.00    +0.000 C 
BRANCH  18  19
ATOM     19  C   UNL     1       1.695   5.715  20.894  0.00  0.00    +0.000 C 
BRANCH  19  20
ATOM     20  C   UNL     1       2.217   6.742  19.894  0.00  0.00    +0.000 C 
BRANCH  20  21
ATOM     21  C   UNL     1       1.467   8.057  20.088  0.00  0.00    +0.000 C 
BRANCH  21  23
ATOM     22  C   UNL     1      -0.234   8.825  21.745  0.00  0.00    +0.000 C 
ATOM     23  C   UNL     1       1.198   8.354  21.556  0.00  0.00    +0.000 C 
ENDBRANCH  21  23
ENDBRANCH  20  21
ENDBRANCH  19  20
ENDBRANCH  18  19
ENDBRANCH  15  18
ENDBRANCH   1  15
TORSDOF 8
ENDMDL
MODEL 7
REMARK VINA RESULT:      -6.8      3.348      6.527
REMARK  Name = 
REMARK  11 active torsions:
REMARK  status: ('A' for Active; 'I' for Inactive)
REMARK    1  A    between atoms: C_1  and  C_2
REMARK    2  A    between atoms: C_2  and  C_3
REMARK    3  A    between atoms: C_3  and  C_4
REMARK    4  A    between atoms: C_4  and  C_5
REMARK    5  A    between atoms: C_5  and  C_6
REMARK    6  A    between atoms: C_6  and  C_7
REMARK    7  A    between atoms: C_7  and  C_8
REMARK    8  A    between atoms: C_7  and  C_9
REMARK    9  A    between atoms: C_7  and  C_10
REMARK   10  A    between atoms: C_13  and  C_14
REMARK   11  A    between atoms: C_18  and  O_19
REMARK                            x       y       z     vdW  Elec       q    Type
REMARK                         _______ _______ _______ _____ _____    ______ ____
ROOT
ATOM      1  C   UNL     1       1.237   9.490  19.321  0.00  0.00    +0.000 A 
ATOM      2  C   UNL     1       1.846   8.810  18.254  0.00  0.00    +0.000 A 
ATOM      3  C   UNL     1       2.368   7.533  18.410  0.00  0.00    +0.000 A 
ATOM      4  C   UNL     1       2.349   6.883  19.644  0.00  0.00    +0.000 A 
ATOM      5  C   UNL     1       1.647   7.512  20.682  0.00  0.00    +0.000 A 
ATOM      6  C   UNL     1       1.130   8.799  20.532  0.00  0.00    +0.000 A 
ENDROOT
BRANCH   4   7
ATOM      7  C   UNL     1       3.074   5.553  19.825  0.00  0.00    +0.000 C 
ATOM      8  C   UNL     1       2.413   4.638  20.891  0.00  0.00    +0.000 C 
ATOM      9  C   UNL     1       1.041   4.122  20.444  0.00  0.00    +0.000 C 
ATOM     10  C   UNL     1       1.146   3.366  19.127  0.00  0.00    +0.000 C 
ATOM     11  C   UNL     1       1.831   4.202  18.046  0.00  0.00    +0.000 C 
ATOM     12  C   UNL     1       3.191   4.725  18.526  0.00  0.00    +0.000 C 
BRANCH  11  13
ATOM     13  O   UNL     1       2.000   3.429  16.869  0.00  0.00    +0.000 OA
ATOM     14  H   UNL     1       2.586   3.916  16.267  0.00  0.00    +0.000 HD
ENDBRANCH  11  13
ENDBRANCH   4   7
BRANCH   1  15
ATOM     15  C   UNL     1       0.641  10.893  19.146  0.00  0.00    +0.000 C 
ATOM     16  C   UNL     1       1.699  11.882  18.609  0.00  0.00    +0.000 C 
ATOM     17  C   UNL     1       0.151  11.446  20.507  0.00  0.00    +0.000 C 
BRANCH  15  18
ATOM     18  C   UNL     1      -0.585  10.852  18.182  0.00  0.00    +0.000 C 
BRANCH  18  19
ATOM     19  C   UNL     1      -1.786  10.084  18.737  0.00  0.00    +0.000 C 
BRANCH  19  20
ATOM     20  C   UNL     1      -2.910   9.959  17.713  0.00  0.00    +0.000 C 
BRANCH  20  21
ATOM     21  C   UNL     1      -2.309   9.912  16.311  0.00  0.00    +0.000 C 
BRANCH  21  23
ATOM     22  C   UNL     1      -3.479  10.072  14.112  0.00  0.00    +0.000 C 
ATOM     23  C   UNL     1      -3.033  10.840  15.345  0.00  0.00    +0.000 C 
ENDBRANCH  21  23
ENDBRANCH  20  21
ENDBRANCH  19  20
ENDBRANCH  18  19
ENDBRANCH  15  18
ENDBRANCH   1  15
TORSDOF 8
ENDMDL
MODEL 8
REMARK VINA RESULT:      -6.8      3.010      6.846
REMARK  Name = 
REMARK  11 active torsions:
REMARK  status: ('A' for Active; 'I' for Inactive)
REMARK    1  A    between atoms: C_1  and  C_2
REMARK    2  A    between atoms: C_2  and  C_3
REMARK    3  A    between atoms: C_3  and  C_4
REMARK    4  A    between atoms: C_4  and  C_5
REMARK    5  A    between atoms: C_5  and  C_6
REMARK    6  A    between atoms: C_6  and  C_7
REMARK    7  A    between atoms: C_7  and  C_8
REMARK    8  A    between atoms: C_7  and  C_9
REMARK    9  A    between atoms: C_7  and  C_10
REMARK   10  A    between atoms: C_13  and  C_14
REMARK   11  A    between atoms: C_18  and  O_19
REMARK                            x       y       z     vdW  Elec       q    Type
REMARK                         _______ _______ _______ _____ _____    ______ ____
ROOT
ATOM      1  C   UNL     1       5.580   4.955  17.350  0.00  0.00    +0.000 A 
ATOM      2  C   UNL     1       5.638   5.223  18.727  0.00  0.00    +0.000 A 
ATOM      3  C   UNL     1       4.947   4.448  19.649  0.00  0.00    +0.000 A 
ATOM      4  C   UNL     1       4.131   3.390  19.246  0.00  0.00    +0.000 A 
ATOM      5  C   UNL     1       4.157   3.052  17.885  0.00  0.00    +0.000 A 
ATOM      6  C   UNL     1       4.841   3.835  16.955  0.00  0.00    +0.000 A 
ENDROOT
BRANCH   4   7
ATOM      7  C   UNL     1       3.258   2.661  20.262  0.00  0.00    +0.000 C 
ATOM      8  C   UNL     1       2.553   3.619  21.259  0.00  0.00    +0.000 C 
ATOM      9  C   UNL     1       1.486   4.483  20.578  0.00  0.00    +0.000 C 
ATOM     10  C   UNL     1       0.442   3.616  19.889  0.00  0.00    +0.000 C 
ATOM     11  C   UNL     1       1.081   2.618  18.925  0.00  0.00    +0.000 C 
ATOM     12  C   UNL     1       2.161   1.782  19.623  0.00  0.00    +0.000 C 
BRANCH  11  13
ATOM     13  O   UNL     1       0.087   1.764  18.380  0.00  0.00    +0.000 OA
ATOM     14  H   UNL     1      -0.652   2.314  18.075  0.00  0.00    +0.000 HD
ENDBRANCH  11  13
ENDBRANCH   4   7
BRANCH   1  15
ATOM     15  C   UNL     1       6.359   5.797  16.331  0.00  0.00    +0.000 C 
ATOM     16  C   UNL     1       7.286   6.808  17.043  0.00  0.00    +0.000 C 
ATOM     17  C   UNL     1       5.385   6.617  15.450  0.00  0.00    +0.000 C 
BRANCH  15  18
ATOM     18  C   UNL     1       7.197   4.882  15.387  0.00  0.00    +0.000 C 
BRANCH  18  19
ATOM     19  C   UNL     1       6.815   4.999  13.910  0.00  0.00    +0.000 C 
BRANCH  19  20
ATOM     20  C   UNL     1       6.316   3.675  13.339  0.00  0.00    +0.000 C 
BRANCH  20  21
ATOM     21  C   UNL     1       4.974   3.900  12.649  0.00  0.00    +0.000 C 
BRANCH  21  23
ATOM     22  C   UNL     1       5.844   1.881  11.467  0.00  0.00    +0.000 C 
ATOM     23  C   UNL     1       4.761   2.947  11.481  0.00  0.00    +0.000 C 
ENDBRANCH  21  23
ENDBRANCH  20  21
ENDBRANCH  19  20
ENDBRANCH  18  19
ENDBRANCH  15  18
ENDBRANCH   1  15
TORSDOF 8
ENDMDL
MODEL 9
REMARK VINA RESULT:      -6.7      2.879      6.807
REMARK  Name = 
REMARK  11 active torsions:
REMARK  status: ('A' for Active; 'I' for Inactive)
REMARK    1  A    between atoms: C_1  and  C_2
REMARK    2  A    between atoms: C_2  and  C_3
REMARK    3  A    between atoms: C_3  and  C_4
REMARK    4  A    between atoms: C_4  and  C_5
REMARK    5  A    between atoms: C_5  and  C_6
REMARK    6  A    between atoms: C_6  and  C_7
REMARK    7  A    between atoms: C_7  and  C_8
REMARK    8  A    between atoms: C_7  and  C_9
REMARK    9  A    between atoms: C_7  and  C_10
REMARK   10  A    between atoms: C_13  and  C_14
REMARK   11  A    between atoms: C_18  and  O_19
REMARK                            x       y       z     vdW  Elec       q    Type
REMARK                         _______ _______ _______ _____ _____    ______ ____
ROOT
ATOM      1  C   UNL     1       5.565   5.518  17.638  0.00  0.00    +0.000 A 
ATOM      2  C   UNL     1       4.354   6.054  17.173  0.00  0.00    +0.000 A 
ATOM      3  C   UNL     1       3.182   5.951  17.912  0.00  0.00    +0.000 A 
ATOM      4  C   UNL     1       3.146   5.275  19.131  0.00  0.00    +0.000 A 
ATOM      5  C   UNL     1       4.373   4.834  19.649  0.00  0.00    +0.000 A 
ATOM      6  C   UNL     1       5.550   4.927  18.905  0.00  0.00    +0.000 A 
ENDROOT
BRANCH   4   7
ATOM      7  C   UNL     1       1.817   5.037  19.840  0.00  0.00    +0.000 C 
ATOM      8  C   UNL     1       0.815   4.205  18.995  0.00  0.00    +0.000 C 
ATOM      9  C   UNL     1       1.272   2.754  18.814  0.00  0.00    +0.000 C 
ATOM     10  C   UNL     1       1.478   2.076  20.161  0.00  0.00    +0.000 C 
ATOM     11  C   UNL     1       2.424   2.873  21.058  0.00  0.00    +0.000 C 
ATOM     12  C   UNL     1       1.958   4.328  21.205  0.00  0.00    +0.000 C 
BRANCH  11  13
ATOM     13  O   UNL     1       2.510   2.263  22.336  0.00  0.00    +0.000 OA
ATOM     14  H   UNL     1       3.161   2.753  22.863  0.00  0.00    +0.000 HD
ENDBRANCH  11  13
ENDBRANCH   4   7
BRANCH   1  15
ATOM     15  C   UNL     1       6.865   5.648  16.833  0.00  0.00    +0.000 C 
ATOM     16  C   UNL     1       7.883   4.563  17.246  0.00  0.00    +0.000 C 
ATOM     17  C   UNL     1       7.531   7.020  17.099  0.00  0.00    +0.000 C 
BRANCH  15  18
ATOM     18  C   UNL     1       6.576   5.550  15.304  0.00  0.00    +0.000 C 
BRANCH  18  19
ATOM     19  C   UNL     1       6.531   4.117  14.770  0.00  0.00    +0.000 C 
BRANCH  19  20
ATOM     20  C   UNL     1       5.598   3.979  13.571  0.00  0.00    +0.000 C 
BRANCH  20  21
ATOM     21  C   UNL     1       6.387   3.440  12.381  0.00  0.00    +0.000 C 
BRANCH  21  23
ATOM     22  C   UNL     1       6.607   1.342  11.047  0.00  0.00    +0.000 C 
ATOM     23  C   UNL     1       5.632   2.347  11.639  0.00  0.00    +0.000 C 
ENDBRANCH  21  23
ENDBRANCH  20  21
ENDBRANCH  19  20
ENDBRANCH  18  19
ENDBRANCH  15  18
ENDBRANCH   1  15
TORSDOF 8
ENDMDL
