MODEL 1
REMARK VINA RESULT:      -5.2      0.000      0.000
REMARK  Name = 
REMARK  4 active torsions:
REMARK  status: ('A' for Active; 'I' for Inactive)
REMARK    1  A    between atoms: C_1  and  C_2
REMARK    2  A    between atoms: C_2  and  C_3
REMARK    3  A    between atoms: C_3  and  N_4
REMARK    4  A    between atoms: C_3  and  C_5
REMARK                            x       y       z     vdW  Elec       q    Type
REMARK                         _______ _______ _______ _____ _____    ______ ____
ROOT
ATOM      1  C   UNL     1       1.203   3.173  18.812  0.00  0.00    +0.000 C 
ENDROOT
BRANCH   1   2
ATOM      2  C   UNL     1       2.329   3.975  18.181  0.00  0.00    +0.000 A 
ATOM      3  C   UNL     1       2.381   5.364  18.391  0.00  0.00    +0.000 A 
ATOM      4  C   UNL     1       3.407   6.137  17.844  0.00  0.00    +0.000 A 
ATOM      5  C   UNL     1       4.391   5.537  17.065  0.00  0.00    +0.000 A 
ATOM      6  C   UNL     1       4.340   4.167  16.820  0.00  0.00    +0.000 A 
ATOM      7  C   UNL     1       3.310   3.392  17.364  0.00  0.00    +0.000 A 
ENDBRANCH   1   2
BRANCH   1   8
ATOM      8  N   UNL     1       1.522   1.742  18.774  0.00  0.00    +0.000 NA
ATOM      9  H   UNL     1       2.422   1.621  18.316  0.00  0.00    +0.000 HD
ATOM     10  H   UNL     1       0.841   1.273  18.178  0.00  0.00    +0.000 HD
ENDBRANCH   1   8
BRANCH   1  12
ATOM     11  C   UNL     1       1.666   2.833  21.302  0.00  0.00    +0.000 C 
ATOM     12  C   UNL     1       0.832   3.566  20.256  0.00  0.00    +0.000 C 
ENDBRANCH   1  12
TORSDOF 3
ENDMDL
MODEL 2
REMARK VINA RESULT:      -5.2      0.059      1.524
REMARK  Name = 
REMARK  4 active torsions:
REMARK  status: ('A' for Active; 'I' for Inactive)
REMARK    1  A    between atoms: C_1  and  C_2
REMARK    2  A    between atoms: C_2  and  C_3
REMARK    3  A    between atoms: C_3  and  N_4
REMARK    4  A    between atoms: C_3  and  C_5
REMARK                            x       y       z     vdW  Elec       q    Type
REMARK                         _______ _______ _______ _____ _____    ______ ____
ROOT
ATOM      1  C   UNL     1       1.186   3.182  18.786  0.00  0.00    +0.000 C 
ENDROOT
BRANCH   1   2
ATOM      2  C   UNL     1       2.306   4.011  18.180  0.00  0.00    +0.000 A 
ATOM      3  C   UNL     1       3.288   3.370  17.404  0.00  0.00    +0.000 A 
ATOM      4  C   UNL     1       4.326   4.096  16.815  0.00  0.00    +0.000 A 
ATOM      5  C   UNL     1       4.406   5.472  17.002  0.00  0.00    +0.000 A 
ATOM      6  C   UNL     1       3.460   6.121  17.792  0.00  0.00    +0.000 A 
ATOM      7  C   UNL     1       2.423   5.394  18.386  0.00  0.00    +0.000 A 
ENDBRANCH   1   2
BRANCH   1   8
ATOM      8  N   UNL     1       1.522   1.756  18.714  0.00  0.00    +0.000 NA
ATOM      9  H   UNL     1       0.851   1.293  18.107  0.00  0.00    +0.000 HD
ATOM     10  H   UNL     1       1.392   1.345  19.638  0.00  0.00    +0.000 HD
ENDBRANCH   1   8
BRANCH   1  12
ATOM     11  C   UNL     1       1.685   2.838  21.268  0.00  0.00    +0.000 C 
ATOM     12  C   UNL     1       0.804   3.535  20.238  0.00  0.00    +0.000 C 
ENDBRANCH   1  12
TORSDOF 3
ENDMDL
MODEL 3
REMARK VINA RESULT:      -5.0      3.155      4.958
REMARK  Name = 
REMARK  4 active torsions:
REMARK  status: ('A' for Active; 'I' for Inactive)
REMARK    1  A    between atoms: C_1  and  C_2
REMARK    2  A    between atoms: C_2  and  C_3
REMARK    3  A    between atoms: C_3  and  N_4
REMARK    4  A    between atoms: C_3  and  C_5
REMARK                            x       y       z     vdW  Elec       q    Type
REMARK                         _______ _______ _______ _____ _____    ______ ____
ROOT
ATOM      1  C   UNL     1       7.243   4.859  18.362  0.00  0.00    +0.000 C 
ENDROOT
BRANCH   1   2
ATOM      2  C   UNL     1       5.734   4.749  18.220  0.00  0.00    +0.000 A 
ATOM      3  C   UNL     1       4.913   5.269  19.236  0.00  0.00    +0.000 A 
ATOM      4  C   UNL     1       3.520   5.204  19.139  0.00  0.00    +0.000 A 
ATOM      5  C   UNL     1       2.927   4.607  18.032  0.00  0.00    +0.000 A 
ATOM      6  C   UNL     1       3.724   4.059  17.030  0.00  0.00    +0.000 A 
ATOM      7  C   UNL     1       5.118   4.120  17.128  0.00  0.00    +0.000 A 
ENDBRANCH   1   2
BRANCH   1   8
ATOM      8  N   UNL     1       7.901   4.287  17.182  0.00  0.00    +0.000 NA
ATOM      9  H   UNL     1       7.206   3.792  16.630  0.00  0.00    +0.000 HD
ATOM     10  H   UNL     1       8.566   3.580  17.492  0.00  0.00    +0.000 HD
ENDBRANCH   1   8
BRANCH   1  12
ATOM     11  C   UNL     1       7.477   7.236  17.456  0.00  0.00    +0.000 C 
ATOM     12  C   UNL     1       7.789   6.280  18.602  0.00  0.00    +0.000 C 
ENDBRANCH   1  12
TORSDOF 3
ENDMDL
MODEL 4
REMARK VINA RESULT:      -5.0      3.366      5.602
REMARK  Name = 
REMARK  4 active torsions:
REMARK  status: ('A' for Active; 'I' for Inactive)
REMARK    1  A    between atoms: C_1  and  C_2
REMARK    2  A    between atoms: C_2  and  C_3
REMARK    3  A    between atoms: C_3  and  N_4
REMARK    4  A    between atoms: C_3  and  C_5
REMARK                            x       y       z     vdW  Elec       q    Type
REMARK                         _______ _______ _______ _____ _____    ______ ____
ROOT
ATOM      1  C   UNL     1       6.119   5.105  14.819  0.00  0.00    +0.000 C 
ENDROOT
BRANCH   1   2
ATOM      2  C   UNL     1       5.163   5.344  15.976  0.00  0.00    +0.000 A 
ATOM      3  C   UNL     1       4.516   4.243  16.565  0.00  0.00    +0.000 A 
ATOM      4  C   UNL     1       3.641   4.414  17.641  0.00  0.00    +0.000 A 
ATOM      5  C   UNL     1       3.390   5.690  18.137  0.00  0.00    +0.000 A 
ATOM      6  C   UNL     1       3.998   6.795  17.547  0.00  0.00    +0.000 A 
ATOM      7  C   UNL     1       4.870   6.625  16.467  0.00  0.00    +0.000 A 
ENDBRANCH   1   2
BRANCH   1   8
ATOM      8  N   UNL     1       7.478   5.505  15.200  0.00  0.00    +0.000 NA
ATOM      9  H   UNL     1       7.439   6.429  15.620  0.00  0.00    +0.000 HD
ATOM     10  H   UNL     1       8.036   5.607  14.353  0.00  0.00    +0.000 HD
ENDBRANCH   1   8
BRANCH   1  12
ATOM     11  C   UNL     1       6.053   3.609  12.749  0.00  0.00    +0.000 C 
ATOM     12  C   UNL     1       6.156   3.665  14.269  0.00  0.00    +0.000 C 
ENDBRANCH   1  12
TORSDOF 3
ENDMDL
MODEL 5
REMARK VINA RESULT:      -4.9      1.861      4.226
REMARK  Name = 
REMARK  4 active torsions:
REMARK  status: ('A' for Active; 'I' for Inactive)
REMARK    1  A    between atoms: C_1  and  C_2
REMARK    2  A    between atoms: C_2  and  C_3
REMARK    3  A    between atoms: C_3  and  N_4
REMARK    4  A    between atoms: C_3  and  C_5
REMARK                            x       y       z     vdW  Elec       q    Type
REMARK                         _______ _______ _______ _____ _____    ______ ____
ROOT
ATOM      1  C   UNL     1       4.614   4.852  19.038  0.00  0.00    +0.000 C 
ENDROOT
BRANCH   1   2
ATOM      2  C   UNL     1       3.251   4.234  19.304  0.00  0.00    +0.000 A 
ATOM      3  C   UNL     1       2.701   3.359  18.351  0.00  0.00    +0.000 A 
ATOM      4  C   UNL     1       1.459   2.755  18.561  0.00  0.00    +0.000 A 
ATOM      5  C   UNL     1       0.741   3.027  19.722  0.00  0.00    +0.000 A 
ATOM      6  C   UNL     1       1.256   3.914  20.663  0.00  0.00    +0.000 A 
ATOM      7  C   UNL     1       2.498   4.523  20.451  0.00  0.00    +0.000 A 
ENDBRANCH   1   2
BRANCH   1   8
ATOM      8  N   UNL     1       5.631   3.801  18.934  0.00  0.00    +0.000 NA
ATOM      9  H   UNL     1       6.099   3.888  18.036  0.00  0.00    +0.000 HD
ATOM     10  H   UNL     1       5.162   2.896  18.918  0.00  0.00    +0.000 HD
ENDBRANCH   1   8
BRANCH   1  12
ATOM     11  C   UNL     1       3.652   6.866  17.793  0.00  0.00    +0.000 C 
ATOM     12  C   UNL     1       4.703   5.762  17.796  0.00  0.00    +0.000 C 
ENDBRANCH   1  12
TORSDOF 3
ENDMDL
MODEL 6
REMARK VINA RESULT:      -4.9      3.430      5.552
REMARK  Name = 
REMARK  4 active torsions:
REMARK  status: ('A' for Active; 'I' for Inactive)
REMARK    1  A    between atoms: C_1  and  C_2
REMARK    2  A    between atoms: C_2  and  C_3
REMARK    3  A    between atoms: C_3  and  N_4
REMARK    4  A    between atoms: C_3  and  C_5
REMARK                            x       y       z     vdW  Elec       q    Type
REMARK                         _______ _______ _______ _____ _____    ______ ____
ROOT
ATOM      1  C   UNL     1       6.213   5.084  14.736  0.00  0.00    +0.000 C 
ENDROOT
BRANCH   1   2
ATOM      2  C   UNL     1       5.252   5.330  15.888  0.00  0.00    +0.000 A 
ATOM      3  C   UNL     1       5.042   6.647  16.332  0.00  0.00    +0.000 A 
ATOM      4  C   UNL     1       4.155   6.921  17.376  0.00  0.00    +0.000 A 
ATOM      5  C   UNL     1       3.475   5.882  18.002  0.00  0.00    +0.000 A 
ATOM      6  C   UNL     1       3.692   4.567  17.596  0.00  0.00    +0.000 A 
ATOM      7  C   UNL     1       4.583   4.292  16.553  0.00  0.00    +0.000 A 
ENDBRANCH   1   2
BRANCH   1   8
ATOM      8  N   UNL     1       7.585   5.395  15.152  0.00  0.00    +0.000 NA
ATOM      9  H   UNL     1       7.557   6.159  15.821  0.00  0.00    +0.000 HD
ATOM     10  H   UNL     1       8.096   5.750  14.344  0.00  0.00    +0.000 HD
ENDBRANCH   1   8
BRANCH   1  12
ATOM     11  C   UNL     1       6.272   3.668  12.609  0.00  0.00    +0.000 C 
ATOM     12  C   UNL     1       6.181   3.665  14.131  0.00  0.00    +0.000 C 
ENDBRANCH   1  12
TORSDOF 3
ENDMDL
MODEL 7
REMARK VINA RESULT:      -4.9      2.550      4.537
REMARK  Name = 
REMARK  4 active torsions:
REMARK  status: ('A' for Active; 'I' for Inactive)
REMARK    1  A    between atoms: C_1  and  C_2
REMARK    2  A    between atoms: C_2  and  C_3
REMARK    3  A    between atoms: C_3  and  N_4
REMARK    4  A    between atoms: C_3  and  C_5
REMARK                            x       y       z     vdW  Elec       q    Type
REMARK                         _______ _______ _______ _____ _____    ______ ____
ROOT
ATOM      1  C   UNL     1       5.999   5.422  18.098  0.00  0.00    +0.000 C 
ENDROOT
BRANCH   1   2
ATOM      2  C   UNL     1       4.546   5.007  17.933  0.00  0.00    +0.000 A 
ATOM      3  C   UNL     1       3.533   5.889  18.348  0.00  0.00    +0.000 A 
ATOM      4  C   UNL     1       2.184   5.556  18.200  0.00  0.00    +0.000 A 
ATOM      5  C   UNL     1       1.827   4.329  17.649  0.00  0.00    +0.000 A 
ATOM      6  C   UNL     1       2.817   3.430  17.260  0.00  0.00    +0.000 A 
ATOM      7  C   UNL     1       4.167   3.761  17.412  0.00  0.00    +0.000 A 
ENDBRANCH   1   2
BRANCH   1   8
ATOM      8  N   UNL     1       6.854   4.234  18.184  0.00  0.00    +0.000 NA
ATOM      9  H   UNL     1       7.447   4.198  17.359  0.00  0.00    +0.000 HD
ATOM     10  H   UNL     1       6.263   3.404  18.138  0.00  0.00    +0.000 HD
ENDBRANCH   1   8
BRANCH   1  12
ATOM     11  C   UNL     1       7.544   7.383  17.553  0.00  0.00    +0.000 C 
ATOM     12  C   UNL     1       6.553   6.361  17.007  0.00  0.00    +0.000 C 
ENDBRANCH   1  12
TORSDOF 3
ENDMDL
MODEL 8
REMARK VINA RESULT:      -4.9      1.893      4.176
REMARK  Name = 
REMARK  4 active torsions:
REMARK  status: ('A' for Active; 'I' for Inactive)
REMARK    1  A    between atoms: C_1  and  C_2
REMARK    2  A    between atoms: C_2  and  C_3
REMARK    3  A    between atoms: C_3  and  N_4
REMARK    4  A    between atoms: C_3  and  C_5
REMARK                            x       y       z     vdW  Elec       q    Type
REMARK                         _______ _______ _______ _____ _____    ______ ____
ROOT
ATOM      1  C   UNL     1       4.459   4.298  18.096  0.00  0.00    +0.000 C 
ENDROOT
BRANCH   1   2
ATOM      2  C   UNL     1       3.157   3.935  18.791  0.00  0.00    +0.000 A 
ATOM      3  C   UNL     1       2.872   4.502  20.046  0.00  0.00    +0.000 A 
ATOM      4  C   UNL     1       1.680   4.209  20.713  0.00  0.00    +0.000 A 
ATOM      5  C   UNL     1       0.760   3.333  20.143  0.00  0.00    +0.000 A 
ATOM      6  C   UNL     1       1.039   2.739  18.915  0.00  0.00    +0.000 A 
ATOM      7  C   UNL     1       2.235   3.029  18.249  0.00  0.00    +0.000 A 
ENDBRANCH   1   2
BRANCH   1   8
ATOM      8  N   UNL     1       5.589   3.667  18.785  0.00  0.00    +0.000 NA
ATOM      9  H   UNL     1       5.669   2.705  18.467  0.00  0.00    +0.000 HD
ATOM     10  H   UNL     1       5.375   3.614  19.780  0.00  0.00    +0.000 HD
ENDBRANCH   1   8
BRANCH   1  12
ATOM     11  C   UNL     1       5.930   4.138  16.013  0.00  0.00    +0.000 C 
ATOM     12  C   UNL     1       4.532   3.957  16.595  0.00  0.00    +0.000 C 
ENDBRANCH   1  12
TORSDOF 3
ENDMDL
MODEL 9
REMARK VINA RESULT:      -4.9      3.154      5.158
REMARK  Name = 
REMARK  4 active torsions:
REMARK  status: ('A' for Active; 'I' for Inactive)
REMARK    1  A    between atoms: C_1  and  C_2
REMARK    2  A    between atoms: C_2  and  C_3
REMARK    3  A    between atoms: C_3  and  N_4
REMARK    4  A    between atoms: C_3  and  C_5
REMARK                            x       y       z     vdW  Elec       q    Type
REMARK                         _______ _______ _______ _____ _____    ______ ____
ROOT
ATOM      1  C   UNL     1       7.179   4.906  18.080  0.00  0.00    +0.000 C 
ENDROOT
BRANCH   1   2
ATOM      2  C   UNL     1       5.669   4.765  18.168  0.00  0.00    +0.000 A 
ATOM      3  C   UNL     1       4.982   4.115  17.128  0.00  0.00    +0.000 A 
ATOM      4  C   UNL     1       3.595   3.948  17.176  0.00  0.00    +0.000 A 
ATOM      5  C   UNL     1       2.872   4.441  18.258  0.00  0.00    +0.000 A 
ATOM      6  C   UNL     1       3.532   5.114  19.283  0.00  0.00    +0.000 A 
ATOM      7  C   UNL     1       4.919   5.285  19.234  0.00  0.00    +0.000 A 
ENDBRANCH   1   2
BRANCH   1   8
ATOM      8  N   UNL     1       7.624   4.688  16.699  0.00  0.00    +0.000 NA
ATOM      9  H   UNL     1       6.836   4.840  16.075  0.00  0.00    +0.000 HD
ATOM     10  H   UNL     1       7.880   3.707  16.592  0.00  0.00    +0.000 HD
ENDBRANCH   1   8
BRANCH   1  12
ATOM     11  C   UNL     1       7.585   7.380  17.586  0.00  0.00    +0.000 C 
ATOM     12  C   UNL     1       7.756   6.243  18.587  0.00  0.00    +0.000 C 
ENDBRANCH   1  12
TORSDOF 3
ENDMDL
