MODEL 1
REMARK VINA RESULT:      -7.7      0.000      0.000
REMARK  Name = 
REMARK  8 active torsions:
REMARK  status: ('A' for Active; 'I' for Inactive)
REMARK    1  A    between atoms: C_1  and  C_2
REMARK    2  A    between atoms: C_2  and  C_3
REMARK    3  A    between atoms: C_2  and  C_4
REMARK    4  A    between atoms: C_4  and  N_5
REMARK    5  A    between atoms: C_6  and  C_8
REMARK    6  A    between atoms: N_10  and  C_11
REMARK    7  A    between atoms: C_11  and  C_12
REMARK    8  A    between atoms: C_15  and  C_16
REMARK                            x       y       z     vdW  Elec       q    Type
REMARK                         _______ _______ _______ _____ _____    ______ ____
ROOT
ATOM      1  C   UNL     1       6.899   5.009  16.017  0.00  0.00    +0.000 C 
ATOM      2  O   UNL     1       7.423   5.928  16.645  0.00  0.00    +0.000 OA
ATOM      3  N   UNL     1       6.063   4.052  16.553  0.00  0.00    +0.000 N 
ATOM      4  H   UNL     1       5.749   3.305  15.939  0.00  0.00    +0.000 HD
ENDROOT
BRANCH   1   6
ATOM      5  N   UNL     1       6.318   3.966  13.863  0.00  0.00    +0.000 N 
ATOM      6  C   UNL     1       7.153   4.872  14.496  0.00  0.00    +0.000 C 
ATOM      7  O   UNL     1       8.032   5.532  13.961  0.00  0.00    +0.000 OA
ATOM      8  H   UNL     1       5.653   3.475  14.452  0.00  0.00    +0.000 HD
BRANCH   5   9
ATOM      9  C   UNL     1       6.387   3.692  12.438  0.00  0.00    +0.000 C 
BRANCH   9  11
ATOM     10  C   UNL     1       4.263   3.046  11.216  0.00  0.00    +0.000 C 
ATOM     11  C   UNL     1       5.476   2.532  11.995  0.00  0.00    +0.000 C 
ATOM     12  C   UNL     1       6.242   1.529  11.124  0.00  0.00    +0.000 C 
ENDBRANCH   9  11
ENDBRANCH   5   9
ENDBRANCH   1   6
BRANCH   3  13
ATOM     13  C   UNL     1       5.694   4.037  17.946  0.00  0.00    +0.000 C 
BRANCH  13  14
ATOM     14  C   UNL     1       4.330   4.593  18.125  0.00  0.00    +0.000 A 
ATOM     15  C   UNL     1       3.094   4.000  18.289  0.00  0.00    +0.000 A 
ATOM     16  C   UNL     1       2.176   5.049  18.517  0.00  0.00    +0.000 A 
ATOM     17  C   UNL     1       2.887   6.231  18.453  0.00  0.00    +0.000 A 
ATOM     18  O   UNL     1       4.204   5.954  18.193  0.00  0.00    +0.000 OA
BRANCH  17  19
ATOM     19  C   UNL     1       2.305   7.580  18.650  0.00  0.00    +0.000 A 
ATOM     20  C   UNL     1       2.230   8.638  17.709  0.00  0.00    +0.000 A 
ATOM     21  C   UNL     1       1.595   9.674  18.352  0.00  0.00    +0.000 A 
ATOM     22  O   UNL     1       1.284   9.323  19.628  0.00  0.00    +0.000 OA
ATOM     23  C   UNL     1       1.717   8.043  19.802  0.00  0.00    +0.000 A 
ENDBRANCH  17  19
ENDBRANCH  13  14
ENDBRANCH   3  13
TORSDOF 6
ENDMDL
MODEL 2
REMARK VINA RESULT:      -7.7      1.939      3.038
REMARK  Name = 
REMARK  8 active torsions:
REMARK  status: ('A' for Active; 'I' for Inactive)
REMARK    1  A    between atoms: C_1  and  C_2
REMARK    2  A    between atoms: C_2  and  C_3
REMARK    3  A    between atoms: C_2  and  C_4
REMARK    4  A    between atoms: C_4  and  N_5
REMARK    5  A    between atoms: C_6  and  C_8
REMARK    6  A    between atoms: N_10  and  C_11
REMARK    7  A    between atoms: C_11  and  C_12
REMARK    8  A    between atoms: C_15  and  C_16
REMARK                            x       y       z     vdW  Elec       q    Type
REMARK                         _______ _______ _______ _____ _____    ______ ____
ROOT
ATOM      1  C   UNL     1       6.869   5.032  15.848  0.00  0.00    +0.000 C 
ATOM      2  O   UNL     1       6.869   4.057  16.597  0.00  0.00    +0.000 OA
ATOM      3  N   UNL     1       6.662   6.339  16.239  0.00  0.00    +0.000 N 
ATOM      4  H   UNL     1       6.619   7.047  15.510  0.00  0.00    +0.000 HD
ENDROOT
BRANCH   1   6
ATOM      5  N   UNL     1       6.369   3.835  13.753  0.00  0.00    +0.000 N 
ATOM      6  C   UNL     1       7.126   4.841  14.333  0.00  0.00    +0.000 C 
ATOM      7  O   UNL     1       7.942   5.546  13.758  0.00  0.00    +0.000 OA
ATOM      8  H   UNL     1       5.752   3.320  14.373  0.00  0.00    +0.000 HD
BRANCH   5   9
ATOM      9  C   UNL     1       6.454   3.497  12.344  0.00  0.00    +0.000 C 
BRANCH   9  11
ATOM     10  C   UNL     1       4.251   3.080  11.164  0.00  0.00    +0.000 C 
ATOM     11  C   UNL     1       5.425   2.438  11.907  0.00  0.00    +0.000 C 
ATOM     12  C   UNL     1       6.069   1.379  11.004  0.00  0.00    +0.000 C 
ENDBRANCH   9  11
ENDBRANCH   5   9
ENDBRANCH   1   6
BRANCH   3  13
ATOM     13  C   UNL     1       6.433   6.710  17.612  0.00  0.00    +0.000 C 
BRANCH  13  14
ATOM     14  C   UNL     1       5.022   6.445  17.990  0.00  0.00    +0.000 A 
ATOM     15  C   UNL     1       3.823   6.959  17.539  0.00  0.00    +0.000 A 
ATOM     16  C   UNL     1       2.806   6.241  18.206  0.00  0.00    +0.000 A 
ATOM     17  C   UNL     1       3.430   5.345  19.051  0.00  0.00    +0.000 A 
ATOM     18  O   UNL     1       4.789   5.483  18.934  0.00  0.00    +0.000 OA
BRANCH  17  19
ATOM     19  C   UNL     1       2.727   4.382  19.932  0.00  0.00    +0.000 A 
ATOM     20  C   UNL     1       3.154   3.085  20.315  0.00  0.00    +0.000 A 
ATOM     21  C   UNL     1       2.175   2.592  21.144  0.00  0.00    +0.000 A 
ATOM     22  O   UNL     1       1.171   3.498  21.287  0.00  0.00    +0.000 OA
ATOM     23  C   UNL     1       1.516   4.589  20.547  0.00  0.00    +0.000 A 
ENDBRANCH  17  19
ENDBRANCH  13  14
ENDBRANCH   3  13
TORSDOF 6
ENDMDL
MODEL 3
REMARK VINA RESULT:      -7.5      2.541      3.211
REMARK  Name = 
REMARK  8 active torsions:
REMARK  status: ('A' for Active; 'I' for Inactive)
REMARK    1  A    between atoms: C_1  and  C_2
REMARK    2  A    between atoms: C_2  and  C_3
REMARK    3  A    between atoms: C_2  and  C_4
REMARK    4  A    between atoms: C_4  and  N_5
REMARK    5  A    between atoms: C_6  and  C_8
REMARK    6  A    between atoms: N_10  and  C_11
REMARK    7  A    between atoms: C_11  and  C_12
REMARK    8  A    between atoms: C_15  and  C_16
REMARK                            x       y       z     vdW  Elec       q    Type
REMARK                         _______ _______ _______ _____ _____    ______ ____
ROOT
ATOM      1  C   UNL     1       7.188   5.216  15.550  0.00  0.00    +0.000 C 
ATOM      2  O   UNL     1       7.746   4.444  16.327  0.00  0.00    +0.000 OA
ATOM      3  N   UNL     1       6.477   6.340  15.915  0.00  0.00    +0.000 N 
ATOM      4  H   UNL     1       6.006   6.859  15.178  0.00  0.00    +0.000 HD
ENDROOT
BRANCH   1   6
ATOM      5  N   UNL     1       6.565   3.849  13.598  0.00  0.00    +0.000 N 
ATOM      6  C   UNL     1       7.267   4.965  14.024  0.00  0.00    +0.000 C 
ATOM      7  O   UNL     1       7.911   5.721  13.312  0.00  0.00    +0.000 OA
ATOM      8  H   UNL     1       6.098   3.306  14.318  0.00  0.00    +0.000 HD
BRANCH   5   9
ATOM      9  C   UNL     1       6.504   3.439  12.206  0.00  0.00    +0.000 C 
BRANCH   9  11
ATOM     10  C   UNL     1       4.207   3.127  11.182  0.00  0.00    +0.000 C 
ATOM     11  C   UNL     1       5.366   2.445  11.912  0.00  0.00    +0.000 C 
ATOM     12  C   UNL     1       5.865   1.267  11.065  0.00  0.00    +0.000 C 
ENDBRANCH   9  11
ENDBRANCH   5   9
ENDBRANCH   1   6
BRANCH   3  13
ATOM     13  C   UNL     1       6.320   6.745  17.289  0.00  0.00    +0.000 C 
BRANCH  13  14
ATOM     14  C   UNL     1       5.642   5.679  18.068  0.00  0.00    +0.000 A 
ATOM     15  C   UNL     1       5.985   5.006  19.224  0.00  0.00    +0.000 A 
ATOM     16  C   UNL     1       4.889   4.175  19.541  0.00  0.00    +0.000 A 
ATOM     17  C   UNL     1       3.943   4.357  18.551  0.00  0.00    +0.000 A 
ATOM     18  O   UNL     1       4.412   5.264  17.637  0.00  0.00    +0.000 OA
BRANCH  17  19
ATOM     19  C   UNL     1       2.625   3.679  18.506  0.00  0.00    +0.000 A 
ATOM     20  C   UNL     1       2.232   2.500  19.189  0.00  0.00    +0.000 A 
ATOM     21  C   UNL     1       0.921   2.277  18.840  0.00  0.00    +0.000 A 
ATOM     22  O   UNL     1       0.488   3.237  17.980  0.00  0.00    +0.000 OA
ATOM     23  C   UNL     1       1.532   4.091  17.783  0.00  0.00    +0.000 A 
ENDBRANCH  17  19
ENDBRANCH  13  14
ENDBRANCH   3  13
TORSDOF 6
ENDMDL
MODEL 4
REMARK VINA RESULT:      -7.3      1.986      2.926
REMARK  Name = 
REMARK  8 active torsions:
REMARK  status: ('A' for Active; 'I' for Inactive)
REMARK    1  A    between atoms: C_1  and  C_2
REMARK    2  A    between atoms: C_2  and  C_3
REMARK    3  A    between atoms: C_2  and  C_4
REMARK    4  A    between atoms: C_4  and  N_5
REMARK    5  A    between atoms: C_6  and  C_8
REMARK    6  A    between atoms: N_10  and  C_11
REMARK    7  A    between atoms: C_11  and  C_12
REMARK    8  A    between atoms: C_15  and  C_16
REMARK                            x       y       z     vdW  Elec       q    Type
REMARK                         _______ _______ _______ _____ _____    ______ ____
ROOT
ATOM      1  C   UNL     1       6.746   4.805  15.632  0.00  0.00    +0.000 C 
ATOM      2  O   UNL     1       6.139   3.849  16.110  0.00  0.00    +0.000 OA
ATOM      3  N   UNL     1       7.109   5.944  16.320  0.00  0.00    +0.000 N 
ATOM      4  H   UNL     1       7.550   6.693  15.791  0.00  0.00    +0.000 HD
ENDROOT
BRANCH   1   6
ATOM      5  N   UNL     1       6.605   3.753  13.408  0.00  0.00    +0.000 N 
ATOM      6  C   UNL     1       7.174   4.781  14.143  0.00  0.00    +0.000 C 
ATOM      7  O   UNL     1       7.951   5.622  13.717  0.00  0.00    +0.000 OA
ATOM      8  H   UNL     1       5.997   3.118  13.915  0.00  0.00    +0.000 HD
BRANCH   5   9
ATOM      9  C   UNL     1       6.870   3.555  11.994  0.00  0.00    +0.000 C 
BRANCH   9  11
ATOM     10  C   UNL     1       5.894   1.309  11.346  0.00  0.00    +0.000 C 
ATOM     11  C   UNL     1       5.731   2.827  11.257  0.00  0.00    +0.000 C 
ATOM     12  C   UNL     1       4.363   3.218  11.830  0.00  0.00    +0.000 C 
ENDBRANCH   9  11
ENDBRANCH   5   9
ENDBRANCH   1   6
BRANCH   3  13
ATOM     13  C   UNL     1       6.818   6.130  17.719  0.00  0.00    +0.000 C 
BRANCH  13  14
ATOM     14  C   UNL     1       5.352   6.191  17.938  0.00  0.00    +0.000 A 
ATOM     15  C   UNL     1       4.366   7.014  17.431  0.00  0.00    +0.000 A 
ATOM     16  C   UNL     1       3.140   6.519  17.928  0.00  0.00    +0.000 A 
ATOM     17  C   UNL     1       3.437   5.439  18.736  0.00  0.00    +0.000 A 
ATOM     18  O   UNL     1       4.794   5.249  18.758  0.00  0.00    +0.000 OA
BRANCH  17  19
ATOM     19  C   UNL     1       2.432   4.615  19.450  0.00  0.00    +0.000 A 
ATOM     20  C   UNL     1       1.525   3.679  18.893  0.00  0.00    +0.000 A 
ATOM     21  C   UNL     1       0.812   3.164  19.950  0.00  0.00    +0.000 A 
ATOM     22  O   UNL     1       1.218   3.731  21.118  0.00  0.00    +0.000 OA
ATOM     23  C   UNL     1       2.208   4.612  20.805  0.00  0.00    +0.000 A 
ENDBRANCH  17  19
ENDBRANCH  13  14
ENDBRANCH   3  13
TORSDOF 6
ENDMDL
MODEL 5
REMARK VINA RESULT:      -7.2      2.411      3.420
REMARK  Name = 
REMARK  8 active torsions:
REMARK  status: ('A' for Active; 'I' for Inactive)
REMARK    1  A    between atoms: C_1  and  C_2
REMARK    2  A    between atoms: C_2  and  C_3
REMARK    3  A    between atoms: C_2  and  C_4
REMARK    4  A    between atoms: C_4  and  N_5
REMARK    5  A    between atoms: C_6  and  C_8
REMARK    6  A    between atoms: N_10  and  C_11
REMARK    7  A    between atoms: C_11  and  C_12
REMARK    8  A    between atoms: C_15  and  C_16
REMARK                            x       y       z     vdW  Elec       q    Type
REMARK                         _______ _______ _______ _____ _____    ______ ____
ROOT
ATOM      1  C   UNL     1       6.761   4.266  15.801  0.00  0.00    +0.000 C 
ATOM      2  O   UNL     1       5.904   3.436  16.097  0.00  0.00    +0.000 OA
ATOM      3  N   UNL     1       7.508   4.998  16.700  0.00  0.00    +0.000 N 
ATOM      4  H   UNL     1       8.138   5.702  16.325  0.00  0.00    +0.000 HD
ENDROOT
BRANCH   1   6
ATOM      5  N   UNL     1       6.522   3.632  13.432  0.00  0.00    +0.000 N 
ATOM      6  C   UNL     1       7.080   4.546  14.311  0.00  0.00    +0.000 C 
ATOM      7  O   UNL     1       7.773   5.505  14.005  0.00  0.00    +0.000 OA
ATOM      8  H   UNL     1       5.990   2.873  13.846  0.00  0.00    +0.000 HD
BRANCH   5   9
ATOM      9  C   UNL     1       6.694   3.717  11.992  0.00  0.00    +0.000 C 
BRANCH   9  11
ATOM     10  C   UNL     1       5.931   1.371  11.412  0.00  0.00    +0.000 C 
ATOM     11  C   UNL     1       5.680   2.867  11.206  0.00  0.00    +0.000 C 
ATOM     12  C   UNL     1       4.241   3.194  11.625  0.00  0.00    +0.000 C 
ENDBRANCH   9  11
ENDBRANCH   5   9
ENDBRANCH   1   6
BRANCH   3  13
ATOM     13  C   UNL     1       7.365   4.851  18.126  0.00  0.00    +0.000 C 
BRANCH  13  14
ATOM     14  C   UNL     1       5.959   5.094  18.533  0.00  0.00    +0.000 A 
ATOM     15  C   UNL     1       5.090   6.143  18.309  0.00  0.00    +0.000 A 
ATOM     16  C   UNL     1       3.848   5.755  18.857  0.00  0.00    +0.000 A 
ATOM     17  C   UNL     1       4.023   4.504  19.414  0.00  0.00    +0.000 A 
ATOM     18  O   UNL     1       5.322   4.105  19.233  0.00  0.00    +0.000 OA
BRANCH  17  19
ATOM     19  C   UNL     1       2.959   3.721  20.087  0.00  0.00    +0.000 A 
ATOM     20  C   UNL     1       2.246   4.060  21.265  0.00  0.00    +0.000 A 
ATOM     21  C   UNL     1       1.361   3.031  21.483  0.00  0.00    +0.000 A 
ATOM     22  O   UNL     1       1.490   2.080  20.519  0.00  0.00    +0.000 OA
ATOM     23  C   UNL     1       2.465   2.509  19.670  0.00  0.00    +0.000 A 
ENDBRANCH  17  19
ENDBRANCH  13  14
ENDBRANCH   3  13
TORSDOF 6
ENDMDL
MODEL 6
REMARK VINA RESULT:      -7.2      2.201      3.026
REMARK  Name = 
REMARK  8 active torsions:
REMARK  status: ('A' for Active; 'I' for Inactive)
REMARK    1  A    between atoms: C_1  and  C_2
REMARK    2  A    between atoms: C_2  and  C_3
REMARK    3  A    between atoms: C_2  and  C_4
REMARK    4  A    between atoms: C_4  and  N_5
REMARK    5  A    between atoms: C_6  and  C_8
REMARK    6  A    between atoms: N_10  and  C_11
REMARK    7  A    between atoms: C_11  and  C_12
REMARK    8  A    between atoms: C_15  and  C_16
REMARK                            x       y       z     vdW  Elec       q    Type
REMARK                         _______ _______ _______ _____ _____    ______ ____
ROOT
ATOM      1  C   UNL     1       7.393   5.337  15.606  0.00  0.00    +0.000 C 
ATOM      2  O   UNL     1       7.614   6.470  16.030  0.00  0.00    +0.000 OA
ATOM      3  N   UNL     1       7.084   4.240  16.383  0.00  0.00    +0.000 N 
ATOM      4  H   UNL     1       6.990   3.343  15.914  0.00  0.00    +0.000 HD
ENDROOT
BRANCH   1   6
ATOM      5  N   UNL     1       6.611   4.030  13.669  0.00  0.00    +0.000 N 
ATOM      6  C   UNL     1       7.439   5.062  14.083  0.00  0.00    +0.000 C 
ATOM      7  O   UNL     1       8.166   5.729  13.363  0.00  0.00    +0.000 OA
ATOM      8  H   UNL     1       6.086   3.553  14.396  0.00  0.00    +0.000 HD
BRANCH   5   9
ATOM      9  C   UNL     1       6.501   3.615  12.282  0.00  0.00    +0.000 C 
BRANCH   9  11
ATOM     10  C   UNL     1       4.214   3.235  11.260  0.00  0.00    +0.000 C 
ATOM     11  C   UNL     1       5.369   2.600  12.037  0.00  0.00    +0.000 C 
ATOM     12  C   UNL     1       5.880   1.378  11.264  0.00  0.00    +0.000 C 
ENDBRANCH   9  11
ENDBRANCH   5   9
ENDBRANCH   1   6
BRANCH   3  13
ATOM     13  C   UNL     1       6.972   4.314  17.818  0.00  0.00    +0.000 C 
BRANCH  13  14
ATOM     14  C   UNL     1       5.602   4.731  18.208  0.00  0.00    +0.000 A 
ATOM     15  C   UNL     1       4.983   5.963  18.269  0.00  0.00    +0.000 A 
ATOM     16  C   UNL     1       3.635   5.715  18.611  0.00  0.00    +0.000 A 
ATOM     17  C   UNL     1       3.503   4.350  18.773  0.00  0.00    +0.000 A 
ATOM     18  O   UNL     1       4.712   3.747  18.545  0.00  0.00    +0.000 OA
BRANCH  17  19
ATOM     19  C   UNL     1       2.239   3.659  19.124  0.00  0.00    +0.000 A 
ATOM     20  C   UNL     1       1.542   2.687  18.363  0.00  0.00    +0.000 A 
ATOM     21  C   UNL     1       0.441   2.337  19.109  0.00  0.00    +0.000 A 
ATOM     22  O   UNL     1       0.414   3.038  20.274  0.00  0.00    +0.000 OA
ATOM     23  C   UNL     1       1.516   3.840  20.278  0.00  0.00    +0.000 A 
ENDBRANCH  17  19
ENDBRANCH  13  14
ENDBRANCH   3  13
TORSDOF 6
ENDMDL
MODEL 7
REMARK VINA RESULT:      -7.1      1.291      1.468
REMARK  Name = 
REMARK  8 active torsions:
REMARK  status: ('A' for Active; 'I' for Inactive)
REMARK    1  A    between atoms: C_1  and  C_2
REMARK    2  A    between atoms: C_2  and  C_3
REMARK    3  A    between atoms: C_2  and  C_4
REMARK    4  A    between atoms: C_4  and  N_5
REMARK    5  A    between atoms: C_6  and  C_8
REMARK    6  A    between atoms: N_10  and  C_11
REMARK    7  A    between atoms: C_11  and  C_12
REMARK    8  A    between atoms: C_15  and  C_16
REMARK                            x       y       z     vdW  Elec       q    Type
REMARK                         _______ _______ _______ _____ _____    ______ ____
ROOT
ATOM      1  C   UNL     1       6.638   4.467  17.402  0.00  0.00    +0.000 C 
ATOM      2  O   UNL     1       7.625   4.411  18.134  0.00  0.00    +0.000 OA
ATOM      3  N   UNL     1       5.346   4.170  17.781  0.00  0.00    +0.000 N 
ATOM      4  H   UNL     1       4.628   4.190  17.061  0.00  0.00    +0.000 HD
ENDROOT
BRANCH   1   6
ATOM      5  N   UNL     1       5.881   4.334  15.061  0.00  0.00    +0.000 N 
ATOM      6  C   UNL     1       6.797   4.911  15.927  0.00  0.00    +0.000 C 
ATOM      7  O   UNL     1       7.676   5.702  15.618  0.00  0.00    +0.000 OA
ATOM      8  H   UNL     1       5.227   3.674  15.469  0.00  0.00    +0.000 HD
BRANCH   5   9
ATOM      9  C   UNL     1       5.853   4.620  13.638  0.00  0.00    +0.000 C 
BRANCH   9  11
ATOM     10  C   UNL     1       4.629   3.302  11.854  0.00  0.00    +0.000 C 
ATOM     11  C   UNL     1       5.860   3.354  12.762  0.00  0.00    +0.000 C 
ATOM     12  C   UNL     1       7.123   3.288  11.894  0.00  0.00    +0.000 C 
ENDBRANCH   9  11
ENDBRANCH   5   9
ENDBRANCH   1   6
BRANCH   3  13
ATOM     13  C   UNL     1       5.005   3.764  19.121  0.00  0.00    +0.000 C 
BRANCH  13  14
ATOM     14  C   UNL     1       3.789   4.478  19.584  0.00  0.00    +0.000 A 
ATOM     15  C   UNL     1       2.753   4.112  20.420  0.00  0.00    +0.000 A 
ATOM     16  C   UNL     1       1.937   5.255  20.567  0.00  0.00    +0.000 A 
ATOM     17  C   UNL     1       2.495   6.254  19.793  0.00  0.00    +0.000 A 
ATOM     18  O   UNL     1       3.620   5.773  19.174  0.00  0.00    +0.000 OA
BRANCH  17  19
ATOM     19  C   UNL     1       1.957   7.630  19.671  0.00  0.00    +0.000 A 
ATOM     20  C   UNL     1       1.883   8.432  18.504  0.00  0.00    +0.000 A 
ATOM     21  C   UNL     1       1.298   9.614  18.892  0.00  0.00    +0.000 A 
ATOM     22  O   UNL     1       1.017   9.592  20.222  0.00  0.00    +0.000 OA
ATOM     23  C   UNL     1       1.419   8.377  20.690  0.00  0.00    +0.000 A 
ENDBRANCH  17  19
ENDBRANCH  13  14
ENDBRANCH   3  13
TORSDOF 6
ENDMDL
MODEL 8
REMARK VINA RESULT:      -7.0      4.341      6.805
REMARK  Name = 
REMARK  8 active torsions:
REMARK  status: ('A' for Active; 'I' for Inactive)
REMARK    1  A    between atoms: C_1  and  C_2
REMARK    2  A    between atoms: C_2  and  C_3
REMARK    3  A    between atoms: C_2  and  C_4
REMARK    4  A    between atoms: C_4  and  N_5
REMARK    5  A    between atoms: C_6  and  C_8
REMARK    6  A    between atoms: N_10  and  C_11
REMARK    7  A    between atoms: C_11  and  C_12
REMARK    8  A    between atoms: C_15  and  C_16
REMARK                            x       y       z     vdW  Elec       q    Type
REMARK                         _______ _______ _______ _____ _____    ______ ____
ROOT
ATOM      1  C   UNL     1       7.875   6.785  18.269  0.00  0.00    +0.000 C 
ATOM      2  O   UNL     1       8.118   6.317  19.379  0.00  0.00    +0.000 OA
ATOM      3  N   UNL     1       7.466   6.059  17.169  0.00  0.00    +0.000 N 
ATOM      4  H   UNL     1       7.363   6.556  16.289  0.00  0.00    +0.000 HD
ENDROOT
BRANCH   1   6
ATOM      5  N   UNL     1       8.833   8.954  18.936  0.00  0.00    +0.000 N 
ATOM      6  C   UNL     1       8.011   8.308  18.027  0.00  0.00    +0.000 C 
ATOM      7  O   UNL     1       7.416   8.835  17.098  0.00  0.00    +0.000 OA
ATOM      8  H   UNL     1       9.236   8.379  19.669  0.00  0.00    +0.000 HD
BRANCH   5   9
ATOM      9  C   UNL     1       9.099  10.381  18.884  0.00  0.00    +0.000 C 
BRANCH   9  11
ATOM     10  C   UNL     1      11.313  11.599  19.068  0.00  0.00    +0.000 C 
ATOM     11  C   UNL     1      10.233  10.824  19.826  0.00  0.00    +0.000 C 
ATOM     12  C   UNL     1       9.696  11.701  20.965  0.00  0.00    +0.000 C 
ENDBRANCH   9  11
ENDBRANCH   5   9
ENDBRANCH   1   6
BRANCH   3  13
ATOM     13  C   UNL     1       7.260   4.633  17.215  0.00  0.00    +0.000 C 
BRANCH  13  14
ATOM     14  C   UNL     1       5.812   4.322  17.298  0.00  0.00    +0.000 A 
ATOM     15  C   UNL     1       4.850   4.089  16.335  0.00  0.00    +0.000 A 
ATOM     16  C   UNL     1       3.670   3.741  17.027  0.00  0.00    +0.000 A 
ATOM     17  C   UNL     1       3.957   3.806  18.377  0.00  0.00    +0.000 A 
ATOM     18  O   UNL     1       5.264   4.181  18.544  0.00  0.00    +0.000 OA
BRANCH  17  19
ATOM     19  C   UNL     1       2.994   3.501  19.462  0.00  0.00    +0.000 A 
ATOM     20  C   UNL     1       2.636   4.323  20.560  0.00  0.00    +0.000 A 
ATOM     21  C   UNL     1       1.703   3.614  21.278  0.00  0.00    +0.000 A 
ATOM     22  O   UNL     1       1.472   2.407  20.696  0.00  0.00    +0.000 OA
ATOM     23  C   UNL     1       2.261   2.346  19.587  0.00  0.00    +0.000 A 
ENDBRANCH  17  19
ENDBRANCH  13  14
ENDBRANCH   3  13
TORSDOF 6
ENDMDL
MODEL 9
REMARK VINA RESULT:      -7.0      4.416      6.931
REMARK  Name = 
REMARK  8 active torsions:
REMARK  status: ('A' for Active; 'I' for Inactive)
REMARK    1  A    between atoms: C_1  and  C_2
REMARK    2  A    between atoms: C_2  and  C_3
REMARK    3  A    between atoms: C_2  and  C_4
REMARK    4  A    between atoms: C_4  and  N_5
REMARK    5  A    between atoms: C_6  and  C_8
REMARK    6  A    between atoms: N_10  and  C_11
REMARK    7  A    between atoms: C_11  and  C_12
REMARK    8  A    between atoms: C_15  and  C_16
REMARK                            x       y       z     vdW  Elec       q    Type
REMARK                         _______ _______ _______ _____ _____    ______ ____
ROOT
ATOM      1  C   UNL     1       5.764   4.438  17.823  0.00  0.00    +0.000 C 
ATOM      2  O   UNL     1       6.269   4.199  16.727  0.00  0.00    +0.000 OA
ATOM      3  N   UNL     1       6.408   5.042  18.883  0.00  0.00    +0.000 N 
ATOM      4  H   UNL     1       5.898   5.122  19.759  0.00  0.00    +0.000 HD
ENDROOT
BRANCH   1   6
ATOM      5  N   UNL     1       4.104   3.216  19.172  0.00  0.00    +0.000 N 
ATOM      6  C   UNL     1       4.286   4.062  18.090  0.00  0.00    +0.000 C 
ATOM      7  O   UNL     1       3.403   4.504  17.369  0.00  0.00    +0.000 OA
ATOM      8  H   UNL     1       4.944   2.915  19.657  0.00  0.00    +0.000 HD
BRANCH   5   9
ATOM      9  C   UNL     1       2.797   2.747  19.596  0.00  0.00    +0.000 C 
BRANCH   9  11
ATOM     10  C   UNL     1       1.375   4.672  20.429  0.00  0.00    +0.000 C 
ATOM     11  C   UNL     1       2.255   3.487  20.833  0.00  0.00    +0.000 C 
ATOM     12  C   UNL     1       1.443   2.545  21.730  0.00  0.00    +0.000 C 
ENDBRANCH   9  11
ENDBRANCH   5   9
ENDBRANCH   1   6
BRANCH   3  13
ATOM     13  C   UNL     1       7.777   5.484  18.808  0.00  0.00    +0.000 C 
BRANCH  13  14
ATOM     14  C   UNL     1       7.842   6.891  18.343  0.00  0.00    +0.000 A 
ATOM     15  C   UNL     1       7.147   7.587  17.373  0.00  0.00    +0.000 A 
ATOM     16  C   UNL     1       7.576   8.930  17.462  0.00  0.00    +0.000 A 
ATOM     17  C   UNL     1       8.531   8.985  18.459  0.00  0.00    +0.000 A 
ATOM     18  O   UNL     1       8.709   7.732  18.986  0.00  0.00    +0.000 OA
BRANCH  17  19
ATOM     19  C   UNL     1       9.234  10.217  18.888  0.00  0.00    +0.000 A 
ATOM     20  C   UNL     1       9.874  11.181  18.068  0.00  0.00    +0.000 A 
ATOM     21  C   UNL     1      10.365  12.140  18.922  0.00  0.00    +0.000 A 
ATOM     22  O   UNL     1      10.075  11.823  20.212  0.00  0.00    +0.000 OA
ATOM     23  C   UNL     1       9.382  10.650  20.184  0.00  0.00    +0.000 A 
ENDBRANCH  17  19
ENDBRANCH  13  14
ENDBRANCH   3  13
TORSDOF 6
ENDMDL
