MODEL 1
REMARK VINA RESULT:      -7.7      0.000      0.000
REMARK  Name = 
REMARK  4 active torsions:
REMARK  status: ('A' for Active; 'I' for Inactive)
REMARK    1  A    between atoms: C_1  and  N_2
REMARK    2  A    between atoms: C_11  and  C_13
REMARK    3  A    between atoms: C_13  and  N_14
REMARK    4  A    between atoms: C_15  and  C_16
REMARK                            x       y       z     vdW  Elec       q    Type
REMARK                         _______ _______ _______ _____ _____    ______ ____
ROOT
ATOM      1  C   UNL     1       2.278  12.866  20.556  0.00  0.00    +0.000 C 
ATOM      2  N   UNL     1       1.067  12.135  20.243  0.00  0.00    +0.000 N 
ATOM      3  C   UNL     1       0.369  12.383  19.070  0.00  0.00    +0.000 C 
ATOM      4  O   UNL     1       0.597  13.321  18.315  0.00  0.00    +0.000 OA
ATOM      5  C   UNL     1      -0.653  11.312  18.739  0.00  0.00    +0.000 C 
ATOM      6  C   UNL     1      -1.554  10.926  19.917  0.00  0.00    +0.000 C 
ATOM      7  C   UNL     1      -0.836  11.006  21.256  0.00  0.00    +0.000 C 
ATOM      8  C   UNL     1       0.681  10.990  21.064  0.00  0.00    +0.000 C 
ATOM      9  C   UNL     1       1.161   9.644  20.484  0.00  0.00    +0.000 C 
ATOM     10  N   UNL     1       1.115   9.447  19.026  0.00  0.00    +0.000 N 
ATOM     11  C   UNL     1       1.842   8.432  18.381  0.00  0.00    +0.000 C 
ATOM     12  O   UNL     1       1.821   8.310  17.153  0.00  0.00    +0.000 OA
ATOM     13  C   UNL     1       0.112  10.113  18.180  0.00  0.00    +0.000 C 
ENDROOT
BRANCH  11  14
ATOM     14  C   UNL     1       2.592   7.424  19.224  0.00  0.00    +0.000 C 
BRANCH  14  15
ATOM     15  N   UNL     1       2.922   6.170  18.567  0.00  0.00    +0.000 N 
ATOM     16  C   UNL     1       2.437   4.943  18.972  0.00  0.00    +0.000 A 
ATOM     17  N   UNL     1       2.976   3.967  18.272  0.00  0.00    +0.000 NA
ATOM     18  C   UNL     1       3.851   4.571  17.407  0.00  0.00    +0.000 A 
ATOM     19  C   UNL     1       4.691   3.986  16.444  0.00  0.00    +0.000 A 
ATOM     20  C   UNL     1       5.520   4.810  15.674  0.00  0.00    +0.000 A 
ATOM     21  C   UNL     1       5.518   6.190  15.863  0.00  0.00    +0.000 A 
ATOM     22  C   UNL     1       4.693   6.790  16.823  0.00  0.00    +0.000 A 
ATOM     23  C   UNL     1       3.857   5.955  17.579  0.00  0.00    +0.000 A 
BRANCH  16  24
ATOM     24  C   UNL     1       1.441   4.697  20.109  0.00  0.00    +0.000 C 
ATOM     25  C   UNL     1       1.165   3.276  20.553  0.00  0.00    +0.000 C 
ATOM     26  C   UNL     1       1.991   4.164  21.418  0.00  0.00    +0.000 C 
ENDBRANCH  16  24
ENDBRANCH  14  15
ENDBRANCH  11  14
TORSDOF 3
ENDMDL
MODEL 2
REMARK VINA RESULT:      -7.3      2.338      7.038
REMARK  Name = 
REMARK  4 active torsions:
REMARK  status: ('A' for Active; 'I' for Inactive)
REMARK    1  A    between atoms: C_1  and  N_2
REMARK    2  A    between atoms: C_11  and  C_13
REMARK    3  A    between atoms: C_13  and  N_14
REMARK    4  A    between atoms: C_15  and  C_16
REMARK                            x       y       z     vdW  Elec       q    Type
REMARK                         _______ _______ _______ _____ _____    ______ ____
ROOT
ATOM      1  C   UNL     1       6.027   3.492  15.393  0.00  0.00    +0.000 C 
ATOM      2  N   UNL     1       6.458   4.415  16.423  0.00  0.00    +0.000 N 
ATOM      3  C   UNL     1       7.214   5.533  16.105  0.00  0.00    +0.000 C 
ATOM      4  O   UNL     1       7.717   5.739  15.006  0.00  0.00    +0.000 OA
ATOM      5  C   UNL     1       7.280   6.555  17.224  0.00  0.00    +0.000 C 
ATOM      6  C   UNL     1       7.619   5.957  18.594  0.00  0.00    +0.000 C 
ATOM      7  C   UNL     1       7.057   4.555  18.777  0.00  0.00    +0.000 C 
ATOM      8  C   UNL     1       5.931   4.282  17.779  0.00  0.00    +0.000 C 
ATOM      9  C   UNL     1       4.713   5.191  18.042  0.00  0.00    +0.000 C 
ATOM     10  N   UNL     1       4.706   6.547  17.468  0.00  0.00    +0.000 N 
ATOM     11  C   UNL     1       3.529   7.304  17.343  0.00  0.00    +0.000 C 
ATOM     12  O   UNL     1       3.539   8.423  16.822  0.00  0.00    +0.000 OA
ATOM     13  C   UNL     1       5.947   7.301  17.235  0.00  0.00    +0.000 C 
ENDROOT
BRANCH  11  14
ATOM     14  C   UNL     1       2.248   6.764  17.942  0.00  0.00    +0.000 C 
BRANCH  14  15
ATOM     15  N   UNL     1       1.966   7.173  19.308  0.00  0.00    +0.000 N 
ATOM     16  C   UNL     1       1.968   6.305  20.381  0.00  0.00    +0.000 A 
ATOM     17  N   UNL     1       1.577   6.913  21.482  0.00  0.00    +0.000 NA
ATOM     18  C   UNL     1       1.292   8.202  21.112  0.00  0.00    +0.000 A 
ATOM     19  C   UNL     1       0.827   9.269  21.900  0.00  0.00    +0.000 A 
ATOM     20  C   UNL     1       0.590  10.508  21.295  0.00  0.00    +0.000 A 
ATOM     21  C   UNL     1       0.804  10.681  19.929  0.00  0.00    +0.000 A 
ATOM     22  C   UNL     1       1.258   9.628  19.126  0.00  0.00    +0.000 A 
ATOM     23  C   UNL     1       1.506   8.395  19.747  0.00  0.00    +0.000 A 
BRANCH  16  24
ATOM     24  C   UNL     1       2.321   4.815  20.338  0.00  0.00    +0.000 C 
ATOM     25  C   UNL     1       1.886   3.921  21.478  0.00  0.00    +0.000 C 
ATOM     26  C   UNL     1       1.182   3.830  20.168  0.00  0.00    +0.000 C 
ENDBRANCH  16  24
ENDBRANCH  14  15
ENDBRANCH  11  14
TORSDOF 3
ENDMDL
MODEL 3
REMARK VINA RESULT:      -7.3      4.621      6.964
REMARK  Name = 
REMARK  4 active torsions:
REMARK  status: ('A' for Active; 'I' for Inactive)
REMARK    1  A    between atoms: C_1  and  N_2
REMARK    2  A    between atoms: C_11  and  C_13
REMARK    3  A    between atoms: C_13  and  N_14
REMARK    4  A    between atoms: C_15  and  C_16
REMARK                            x       y       z     vdW  Elec       q    Type
REMARK                         _______ _______ _______ _____ _____    ______ ____
ROOT
ATOM      1  C   UNL     1       4.152   1.080  18.882  0.00  0.00    +0.000 C 
ATOM      2  N   UNL     1       3.094   1.990  19.271  0.00  0.00    +0.000 N 
ATOM      3  C   UNL     1       3.018   2.480  20.566  0.00  0.00    +0.000 C 
ATOM      4  O   UNL     1       3.695   2.069  21.502  0.00  0.00    +0.000 OA
ATOM      5  C   UNL     1       2.081   3.664  20.709  0.00  0.00    +0.000 C 
ATOM      6  C   UNL     1       0.713   3.458  20.052  0.00  0.00    +0.000 C 
ATOM      7  C   UNL     1       0.787   2.602  18.796  0.00  0.00    +0.000 C 
ATOM      8  C   UNL     1       2.215   2.556  18.251  0.00  0.00    +0.000 C 
ATOM      9  C   UNL     1       2.677   3.944  17.762  0.00  0.00    +0.000 C 
ATOM     10  N   UNL     1       3.231   4.890  18.744  0.00  0.00    +0.000 N 
ATOM     11  C   UNL     1       3.992   6.008  18.364  0.00  0.00    +0.000 C 
ATOM     12  O   UNL     1       4.482   6.767  19.206  0.00  0.00    +0.000 OA
ATOM     13  C   UNL     1       2.810   4.887  20.153  0.00  0.00    +0.000 C 
ENDROOT
BRANCH  11  14
ATOM     14  C   UNL     1       4.135   6.326  16.891  0.00  0.00    +0.000 C 
BRANCH  14  15
ATOM     15  N   UNL     1       5.391   5.927  16.277  0.00  0.00    +0.000 N 
ATOM     16  C   UNL     1       6.622   6.417  16.665  0.00  0.00    +0.000 A 
ATOM     17  N   UNL     1       7.578   5.974  15.877  0.00  0.00    +0.000 NA
ATOM     18  C   UNL     1       6.952   5.195  14.938  0.00  0.00    +0.000 A 
ATOM     19  C   UNL     1       7.509   4.490  13.857  0.00  0.00    +0.000 A 
ATOM     20  C   UNL     1       6.663   3.764  13.011  0.00  0.00    +0.000 A 
ATOM     21  C   UNL     1       5.288   3.745  13.232  0.00  0.00    +0.000 A 
ATOM     22  C   UNL     1       4.714   4.448  14.299  0.00  0.00    +0.000 A 
ATOM     23  C   UNL     1       5.574   5.160  15.148  0.00  0.00    +0.000 A 
BRANCH  16  24
ATOM     24  C   UNL     1       6.884   7.388  17.821  0.00  0.00    +0.000 C 
ATOM     25  C   UNL     1       8.235   7.375  18.503  0.00  0.00    +0.000 C 
ATOM     26  C   UNL     1       7.888   8.499  17.589  0.00  0.00    +0.000 C 
ENDBRANCH  16  24
ENDBRANCH  14  15
ENDBRANCH  11  14
TORSDOF 3
ENDMDL
MODEL 4
REMARK VINA RESULT:      -7.3      3.475      7.016
REMARK  Name = 
REMARK  4 active torsions:
REMARK  status: ('A' for Active; 'I' for Inactive)
REMARK    1  A    between atoms: C_1  and  N_2
REMARK    2  A    between atoms: C_11  and  C_13
REMARK    3  A    between atoms: C_13  and  N_14
REMARK    4  A    between atoms: C_15  and  C_16
REMARK                            x       y       z     vdW  Elec       q    Type
REMARK                         _______ _______ _______ _____ _____    ______ ____
ROOT
ATOM      1  C   UNL     1       7.290   6.448  18.667  0.00  0.00    +0.000 C 
ATOM      2  N   UNL     1       7.024   5.813  17.391  0.00  0.00    +0.000 N 
ATOM      3  C   UNL     1       7.578   4.581  17.081  0.00  0.00    +0.000 C 
ATOM      4  O   UNL     1       8.445   4.024  17.746  0.00  0.00    +0.000 OA
ATOM      5  C   UNL     1       6.933   3.914  15.882  0.00  0.00    +0.000 C 
ATOM      6  C   UNL     1       6.774   4.836  14.668  0.00  0.00    +0.000 C 
ATOM      7  C   UNL     1       6.510   6.282  15.060  0.00  0.00    +0.000 C 
ATOM      8  C   UNL     1       6.010   6.374  16.502  0.00  0.00    +0.000 C 
ATOM      9  C   UNL     1       4.630   5.704  16.665  0.00  0.00    +0.000 C 
ATOM     10  N   UNL     1       4.573   4.250  16.885  0.00  0.00    +0.000 N 
ATOM     11  C   UNL     1       3.430   3.610  17.392  0.00  0.00    +0.000 C 
ATOM     12  O   UNL     1       3.417   2.395  17.608  0.00  0.00    +0.000 OA
ATOM     13  C   UNL     1       5.596   3.339  16.348  0.00  0.00    +0.000 C 
ENDROOT
BRANCH  11  14
ATOM     14  C   UNL     1       2.168   4.423  17.592  0.00  0.00    +0.000 C 
BRANCH  14  15
ATOM     15  N   UNL     1       2.147   5.278  18.767  0.00  0.00    +0.000 N 
ATOM     16  C   UNL     1       2.165   4.800  20.062  0.00  0.00    +0.000 A 
ATOM     17  N   UNL     1       2.030   5.780  20.931  0.00  0.00    +0.000 NA
ATOM     18  C   UNL     1       1.898   6.922  20.183  0.00  0.00    +0.000 A 
ATOM     19  C   UNL     1       1.717   8.247  20.614  0.00  0.00    +0.000 A 
ATOM     20  C   UNL     1       1.591   9.261  19.658  0.00  0.00    +0.000 A 
ATOM     21  C   UNL     1       1.636   8.962  18.298  0.00  0.00    +0.000 A 
ATOM     22  C   UNL     1       1.806   7.646  17.850  0.00  0.00    +0.000 A 
ATOM     23  C   UNL     1       1.946   6.640  18.818  0.00  0.00    +0.000 A 
BRANCH  16  24
ATOM     24  C   UNL     1       2.276   3.330  20.480  0.00  0.00    +0.000 C 
ATOM     25  C   UNL     1       1.507   2.848  21.691  0.00  0.00    +0.000 C 
ATOM     26  C   UNL     1       1.040   2.465  20.329  0.00  0.00    +0.000 C 
ENDBRANCH  16  24
ENDBRANCH  14  15
ENDBRANCH  11  14
TORSDOF 3
ENDMDL
MODEL 5
REMARK VINA RESULT:      -7.2      1.672      3.942
REMARK  Name = 
REMARK  4 active torsions:
REMARK  status: ('A' for Active; 'I' for Inactive)
REMARK    1  A    between atoms: C_1  and  N_2
REMARK    2  A    between atoms: C_11  and  C_13
REMARK    3  A    between atoms: C_13  and  N_14
REMARK    4  A    between atoms: C_15  and  C_16
REMARK                            x       y       z     vdW  Elec       q    Type
REMARK                         _______ _______ _______ _____ _____    ______ ____
ROOT
ATOM      1  C   UNL     1      -2.182  10.974  18.633  0.00  0.00    +0.000 C 
ATOM      2  N   UNL     1      -0.926  11.375  19.236  0.00  0.00    +0.000 N 
ATOM      3  C   UNL     1      -0.826  11.577  20.604  0.00  0.00    +0.000 C 
ATOM      4  O   UNL     1      -1.783  11.612  21.370  0.00  0.00    +0.000 OA
ATOM      5  C   UNL     1       0.605  11.648  21.100  0.00  0.00    +0.000 C 
ATOM      6  C   UNL     1       1.504  12.577  20.277  0.00  0.00    +0.000 C 
ATOM      7  C   UNL     1       1.131  12.599  18.802  0.00  0.00    +0.000 C 
ATOM      8  C   UNL     1       0.294  11.374  18.432  0.00  0.00    +0.000 C 
ATOM      9  C   UNL     1       1.107  10.071  18.574  0.00  0.00    +0.000 C 
ATOM     10  N   UNL     1       1.198   9.436  19.899  0.00  0.00    +0.000 N 
ATOM     11  C   UNL     1       1.594   8.099  20.066  0.00  0.00    +0.000 C 
ATOM     12  O   UNL     1       1.624   7.573  21.182  0.00  0.00    +0.000 OA
ATOM     13  C   UNL     1       1.140  10.217  21.144  0.00  0.00    +0.000 C 
ENDROOT
BRANCH  11  14
ATOM     14  C   UNL     1       2.075   7.325  18.857  0.00  0.00    +0.000 C 
BRANCH  14  15
ATOM     15  N   UNL     1       2.848   6.126  19.140  0.00  0.00    +0.000 N 
ATOM     16  C   UNL     1       4.112   5.895  18.635  0.00  0.00    +0.000 A 
ATOM     17  N   UNL     1       4.538   4.692  18.959  0.00  0.00    +0.000 NA
ATOM     18  C   UNL     1       3.517   4.117  19.672  0.00  0.00    +0.000 A 
ATOM     19  C   UNL     1       3.448   2.836  20.246  0.00  0.00    +0.000 A 
ATOM     20  C   UNL     1       2.285   2.458  20.925  0.00  0.00    +0.000 A 
ATOM     21  C   UNL     1       1.207   3.334  21.025  0.00  0.00    +0.000 A 
ATOM     22  C   UNL     1       1.254   4.611  20.453  0.00  0.00    +0.000 A 
ATOM     23  C   UNL     1       2.431   4.984  19.787  0.00  0.00    +0.000 A 
BRANCH  16  24
ATOM     24  C   UNL     1       4.929   6.858  17.769  0.00  0.00    +0.000 C 
ATOM     25  C   UNL     1       6.178   6.352  17.080  0.00  0.00    +0.000 C 
ATOM     26  C   UNL     1       4.951   6.608  16.274  0.00  0.00    +0.000 C 
ENDBRANCH  16  24
ENDBRANCH  14  15
ENDBRANCH  11  14
TORSDOF 3
ENDMDL
MODEL 6
REMARK VINA RESULT:      -7.1      0.829      3.152
REMARK  Name = 
REMARK  4 active torsions:
REMARK  status: ('A' for Active; 'I' for Inactive)
REMARK    1  A    between atoms: C_1  and  N_2
REMARK    2  A    between atoms: C_11  and  C_13
REMARK    3  A    between atoms: C_13  and  N_14
REMARK    4  A    between atoms: C_15  and  C_16
REMARK                            x       y       z     vdW  Elec       q    Type
REMARK                         _______ _______ _______ _____ _____    ______ ____
ROOT
ATOM      1  C   UNL     1       2.224  12.766  20.522  0.00  0.00    +0.000 C 
ATOM      2  N   UNL     1       1.066  11.976  20.158  0.00  0.00    +0.000 N 
ATOM      3  C   UNL     1       0.434  12.159  18.937  0.00  0.00    +0.000 C 
ATOM      4  O   UNL     1       0.671  13.084  18.168  0.00  0.00    +0.000 OA
ATOM      5  C   UNL     1      -0.521  11.037  18.578  0.00  0.00    +0.000 C 
ATOM      6  C   UNL     1      -1.478  10.648  19.709  0.00  0.00    +0.000 C 
ATOM      7  C   UNL     1      -0.850  10.798  21.087  0.00  0.00    +0.000 C 
ATOM      8  C   UNL     1       0.676  10.840  20.990  0.00  0.00    +0.000 C 
ATOM      9  C   UNL     1       1.245   9.499  20.484  0.00  0.00    +0.000 C 
ATOM     10  N   UNL     1       1.299   9.258  19.033  0.00  0.00    +0.000 N 
ATOM     11  C   UNL     1       2.105   8.256  18.467  0.00  0.00    +0.000 C 
ATOM     12  O   UNL     1       2.167   8.097  17.244  0.00  0.00    +0.000 OA
ATOM     13  C   UNL     1       0.326   9.856  18.106  0.00  0.00    +0.000 C 
ENDROOT
BRANCH  11  14
ATOM     14  C   UNL     1       2.841   7.306  19.387  0.00  0.00    +0.000 C 
BRANCH  14  15
ATOM     15  N   UNL     1       3.050   5.963  18.872  0.00  0.00    +0.000 N 
ATOM     16  C   UNL     1       4.010   5.645  17.932  0.00  0.00    +0.000 A 
ATOM     17  N   UNL     1       3.914   4.385  17.563  0.00  0.00    +0.000 NA
ATOM     18  C   UNL     1       2.850   3.875  18.263  0.00  0.00    +0.000 A 
ATOM     19  C   UNL     1       2.312   2.577  18.236  0.00  0.00    +0.000 A 
ATOM     20  C   UNL     1       1.201   2.286  19.036  0.00  0.00    +0.000 A 
ATOM     21  C   UNL     1       0.631   3.269  19.841  0.00  0.00    +0.000 A 
ATOM     22  C   UNL     1       1.149   4.570  19.875  0.00  0.00    +0.000 A 
ATOM     23  C   UNL     1       2.271   4.846  19.080  0.00  0.00    +0.000 A 
BRANCH  16  24
ATOM     24  C   UNL     1       5.040   6.608  17.332  0.00  0.00    +0.000 C 
ATOM     25  C   UNL     1       6.210   6.045  16.554  0.00  0.00    +0.000 C 
ATOM     26  C   UNL     1       5.100   6.716  15.821  0.00  0.00    +0.000 C 
ENDBRANCH  16  24
ENDBRANCH  14  15
ENDBRANCH  11  14
TORSDOF 3
ENDMDL
MODEL 7
REMARK VINA RESULT:      -7.0      1.957      3.808
REMARK  Name = 
REMARK  4 active torsions:
REMARK  status: ('A' for Active; 'I' for Inactive)
REMARK    1  A    between atoms: C_1  and  N_2
REMARK    2  A    between atoms: C_11  and  C_13
REMARK    3  A    between atoms: C_13  and  N_14
REMARK    4  A    between atoms: C_15  and  C_16
REMARK                            x       y       z     vdW  Elec       q    Type
REMARK                         _______ _______ _______ _____ _____    ______ ____
ROOT
ATOM      1  C   UNL     1      -1.546  10.087  17.519  0.00  0.00    +0.000 C 
ATOM      2  N   UNL     1      -0.495  10.523  18.417  0.00  0.00    +0.000 N 
ATOM      3  C   UNL     1      -0.693  10.540  19.789  0.00  0.00    +0.000 C 
ATOM      4  O   UNL     1      -1.779  10.371  20.333  0.00  0.00    +0.000 OA
ATOM      5  C   UNL     1       0.591  10.684  20.582  0.00  0.00    +0.000 C 
ATOM      6  C   UNL     1       1.509  11.805  20.083  0.00  0.00    +0.000 C 
ATOM      7  C   UNL     1       1.435  11.997  18.575  0.00  0.00    +0.000 C 
ATOM      8  C   UNL     1       0.849  10.758  17.895  0.00  0.00    +0.000 C 
ATOM      9  C   UNL     1       1.778   9.537  18.053  0.00  0.00    +0.000 C 
ATOM     10  N   UNL     1       1.685   8.734  19.284  0.00  0.00    +0.000 N 
ATOM     11  C   UNL     1       2.209   7.433  19.374  0.00  0.00    +0.000 C 
ATOM     12  O   UNL     1       2.085   6.761  20.402  0.00  0.00    +0.000 OA
ATOM     13  C   UNL     1       1.285   9.322  20.571  0.00  0.00    +0.000 C 
ENDROOT
BRANCH  11  14
ATOM     14  C   UNL     1       3.013   6.889  18.212  0.00  0.00    +0.000 C 
BRANCH  14  15
ATOM     15  N   UNL     1       3.553   5.551  18.389  0.00  0.00    +0.000 N 
ATOM     16  C   UNL     1       4.902   5.261  18.355  0.00  0.00    +0.000 A 
ATOM     17  N   UNL     1       5.110   3.963  18.436  0.00  0.00    +0.000 NA
ATOM     18  C   UNL     1       3.864   3.393  18.500  0.00  0.00    +0.000 A 
ATOM     19  C   UNL     1       3.515   2.035  18.588  0.00  0.00    +0.000 A 
ATOM     20  C   UNL     1       2.162   1.682  18.628  0.00  0.00    +0.000 A 
ATOM     21  C   UNL     1       1.173   2.662  18.574  0.00  0.00    +0.000 A 
ATOM     22  C   UNL     1       1.502   4.020  18.478  0.00  0.00    +0.000 A 
ATOM     23  C   UNL     1       2.862   4.361  18.453  0.00  0.00    +0.000 A 
BRANCH  16  24
ATOM     24  C   UNL     1       6.040   6.274  18.197  0.00  0.00    +0.000 C 
ATOM     25  C   UNL     1       7.459   5.843  18.503  0.00  0.00    +0.000 C 
ATOM     26  C   UNL     1       7.042   6.034  17.085  0.00  0.00    +0.000 C 
ENDBRANCH  16  24
ENDBRANCH  14  15
ENDBRANCH  11  14
TORSDOF 3
ENDMDL
MODEL 8
REMARK VINA RESULT:      -7.0      1.752      2.524
REMARK  Name = 
REMARK  4 active torsions:
REMARK  status: ('A' for Active; 'I' for Inactive)
REMARK    1  A    between atoms: C_1  and  N_2
REMARK    2  A    between atoms: C_11  and  C_13
REMARK    3  A    between atoms: C_13  and  N_14
REMARK    4  A    between atoms: C_15  and  C_16
REMARK                            x       y       z     vdW  Elec       q    Type
REMARK                         _______ _______ _______ _____ _____    ______ ____
ROOT
ATOM      1  C   UNL     1      -2.052  10.529  18.681  0.00  0.00    +0.000 C 
ATOM      2  N   UNL     1      -0.760  10.916  19.210  0.00  0.00    +0.000 N 
ATOM      3  C   UNL     1      -0.514  10.897  20.575  0.00  0.00    +0.000 C 
ATOM      4  O   UNL     1      -1.377  10.736  21.430  0.00  0.00    +0.000 OA
ATOM      5  C   UNL     1       0.959  10.990  20.923  0.00  0.00    +0.000 C 
ATOM      6  C   UNL     1       1.705  12.104  20.184  0.00  0.00    +0.000 C 
ATOM      7  C   UNL     1       1.165  12.341  18.781  0.00  0.00    +0.000 C 
ATOM      8  C   UNL     1       0.358  11.136  18.295  0.00  0.00    +0.000 C 
ATOM      9  C   UNL     1       1.252   9.891  18.126  0.00  0.00    +0.000 C 
ATOM     10  N   UNL     1       1.528   9.055  19.306  0.00  0.00    +0.000 N 
ATOM     11  C   UNL     1       2.014   7.741  19.199  0.00  0.00    +0.000 C 
ATOM     12  O   UNL     1       2.201   7.042  20.199  0.00  0.00    +0.000 OA
ATOM     13  C   UNL     1       1.572   9.614  20.666  0.00  0.00    +0.000 C 
ENDROOT
BRANCH  11  14
ATOM     14  C   UNL     1       2.394   7.213  17.832  0.00  0.00    +0.000 C 
BRANCH  14  15
ATOM     15  N   UNL     1       3.328   6.099  17.821  0.00  0.00    +0.000 N 
ATOM     16  C   UNL     1       2.955   4.787  18.035  0.00  0.00    +0.000 A 
ATOM     17  N   UNL     1       4.007   3.997  18.078  0.00  0.00    +0.000 NA
ATOM     18  C   UNL     1       5.093   4.818  17.912  0.00  0.00    +0.000 A 
ATOM     19  C   UNL     1       6.459   4.487  17.887  0.00  0.00    +0.000 A 
ATOM     20  C   UNL     1       7.402   5.506  17.716  0.00  0.00    +0.000 A 
ATOM     21  C   UNL     1       6.995   6.831  17.579  0.00  0.00    +0.000 A 
ATOM     22  C   UNL     1       5.640   7.181  17.610  0.00  0.00    +0.000 A 
ATOM     23  C   UNL     1       4.703   6.149  17.768  0.00  0.00    +0.000 A 
BRANCH  16  24
ATOM     24  C   UNL     1       1.526   4.277  18.248  0.00  0.00    +0.000 C 
ATOM     25  C   UNL     1       1.304   2.811  18.550  0.00  0.00    +0.000 C 
ATOM     26  C   UNL     1       1.148   3.814  19.641  0.00  0.00    +0.000 C 
ENDBRANCH  16  24
ENDBRANCH  14  15
ENDBRANCH  11  14
TORSDOF 3
ENDMDL
MODEL 9
REMARK VINA RESULT:      -6.8      4.968      6.779
REMARK  Name = 
REMARK  4 active torsions:
REMARK  status: ('A' for Active; 'I' for Inactive)
REMARK    1  A    between atoms: C_1  and  N_2
REMARK    2  A    between atoms: C_11  and  C_13
REMARK    3  A    between atoms: C_13  and  N_14
REMARK    4  A    between atoms: C_15  and  C_16
REMARK                            x       y       z     vdW  Elec       q    Type
REMARK                         _______ _______ _______ _____ _____    ______ ____
ROOT
ATOM      1  C   UNL     1       2.967   4.032  21.757  0.00  0.00    +0.000 C 
ATOM      2  N   UNL     1       2.251   3.543  20.596  0.00  0.00    +0.000 N 
ATOM      3  C   UNL     1       1.229   4.286  20.025  0.00  0.00    +0.000 C 
ATOM      4  O   UNL     1       0.738   5.290  20.530  0.00  0.00    +0.000 OA
ATOM      5  C   UNL     1       0.833   3.804  18.643  0.00  0.00    +0.000 C 
ATOM      6  C   UNL     1       0.613   2.291  18.551  0.00  0.00    +0.000 C 
ATOM      7  C   UNL     1       1.534   1.507  19.474  0.00  0.00    +0.000 C 
ATOM      8  C   UNL     1       2.734   2.355  19.897  0.00  0.00    +0.000 C 
ATOM      9  C   UNL     1       3.639   2.690  18.694  0.00  0.00    +0.000 C 
ATOM     10  N   UNL     1       3.294   3.848  17.852  0.00  0.00    +0.000 N 
ATOM     11  C   UNL     1       4.218   4.443  16.977  0.00  0.00    +0.000 C 
ATOM     12  O   UNL     1       3.921   5.438  16.310  0.00  0.00    +0.000 OA
ATOM     13  C   UNL     1       1.904   4.292  17.669  0.00  0.00    +0.000 C 
ENDROOT
BRANCH  11  14
ATOM     14  C   UNL     1       5.572   3.790  16.792  0.00  0.00    +0.000 C 
BRANCH  14  15
ATOM     15  N   UNL     1       6.448   4.419  15.818  0.00  0.00    +0.000 N 
ATOM     16  C   UNL     1       7.261   5.497  16.104  0.00  0.00    +0.000 A 
ATOM     17  N   UNL     1       7.867   5.934  15.020  0.00  0.00    +0.000 NA
ATOM     18  C   UNL     1       7.421   5.135  13.999  0.00  0.00    +0.000 A 
ATOM     19  C   UNL     1       7.747   5.178  12.633  0.00  0.00    +0.000 A 
ATOM     20  C   UNL     1       7.150   4.259  11.763  0.00  0.00    +0.000 A 
ATOM     21  C   UNL     1       6.240   3.320  12.241  0.00  0.00    +0.000 A 
ATOM     22  C   UNL     1       5.896   3.267  13.598  0.00  0.00    +0.000 A 
ATOM     23  C   UNL     1       6.512   4.184  14.462  0.00  0.00    +0.000 A 
BRANCH  16  24
ATOM     24  C   UNL     1       7.429   6.163  17.474  0.00  0.00    +0.000 C 
ATOM     25  C   UNL     1       7.835   7.620  17.541  0.00  0.00    +0.000 C 
ATOM     26  C   UNL     1       6.431   7.236  17.858  0.00  0.00    +0.000 C 
ENDBRANCH  16  24
ENDBRANCH  14  15
ENDBRANCH  11  14
TORSDOF 3
ENDMDL
