MODEL 1
REMARK VINA RESULT:      -7.5      0.000      0.000
REMARK  Name = 
REMARK  5 active torsions:
REMARK  status: ('A' for Active; 'I' for Inactive)
REMARK    1  A    between atoms: C_1  and  C_2
REMARK    2  A    between atoms: C_2  and  C_3
REMARK    3  A    between atoms: N_11  and  C_12
REMARK    4  A    between atoms: C_12  and  C_13
REMARK    5  A    between atoms: C_13  and  C_14
REMARK                            x       y       z     vdW  Elec       q    Type
REMARK                         _______ _______ _______ _____ _____    ______ ____
ROOT
ATOM      1  C   UNL     1       0.480  13.025  18.621  0.00  0.00    +0.000 C 
ATOM      2  C   UNL     1      -0.379  11.805  18.952  0.00  0.00    +0.000 C 
ATOM      3  C   UNL     1      -1.609  11.734  18.047  0.00  0.00    +0.000 C 
ATOM      4  O   UNL     1      -0.839  11.948  20.310  0.00  0.00    +0.000 OA
ATOM      5  C   UNL     1      -0.370  10.916  21.081  0.00  0.00    +0.000 C 
ATOM      6  O   UNL     1      -0.594  10.796  22.269  0.00  0.00    +0.000 OA
ATOM      7  C   UNL     1       0.415  10.031  20.231  0.00  0.00    +0.000 A 
ATOM      8  C   UNL     1       0.400  10.541  19.000  0.00  0.00    +0.000 A 
ATOM      9  C   UNL     1       1.077   9.872  17.927  0.00  0.00    +0.000 A 
ATOM     10  C   UNL     1       1.753   8.742  18.184  0.00  0.00    +0.000 A 
ATOM     11  N   UNL     1       1.835   8.211  19.472  0.00  0.00    +0.000 N 
ATOM     12  C   UNL     1       1.129   8.786  20.555  0.00  0.00    +0.000 A 
ATOM     13  O   UNL     1       1.101   8.307  21.683  0.00  0.00    +0.000 OA
ENDROOT
BRANCH  11  14
ATOM     14  C   UNL     1       2.533   6.937  19.731  0.00  0.00    +0.000 C 
BRANCH  14  15
ATOM     15  C   UNL     1       2.894   6.092  18.498  0.00  0.00    +0.000 C 
BRANCH  15  16
ATOM     16  C   UNL     1       2.395   4.664  18.599  0.00  0.00    +0.000 A 
ATOM     17  C   UNL     1       1.401   4.366  19.550  0.00  0.00    +0.000 A 
ATOM     18  C   UNL     1       0.901   3.070  19.688  0.00  0.00    +0.000 A 
ATOM     19  C   UNL     1       1.382   2.045  18.877  0.00  0.00    +0.000 A 
ATOM     20  C   UNL     1       2.363   2.321  17.926  0.00  0.00    +0.000 A 
ATOM     21  C   UNL     1       2.864   3.621  17.784  0.00  0.00    +0.000 A 
ATOM     22 CL   UNL     1       4.076   3.880  16.579  0.00  0.00    +0.000 Cl
ENDBRANCH  15  16
ENDBRANCH  14  15
ENDBRANCH  11  14
TORSDOF 3
ENDMDL
MODEL 2
REMARK VINA RESULT:      -7.5      4.281      7.001
REMARK  Name = 
REMARK  5 active torsions:
REMARK  status: ('A' for Active; 'I' for Inactive)
REMARK    1  A    between atoms: C_1  and  C_2
REMARK    2  A    between atoms: C_2  and  C_3
REMARK    3  A    between atoms: N_11  and  C_12
REMARK    4  A    between atoms: C_12  and  C_13
REMARK    5  A    between atoms: C_13  and  C_14
REMARK                            x       y       z     vdW  Elec       q    Type
REMARK                         _______ _______ _______ _____ _____    ______ ____
ROOT
ATOM      1  C   UNL     1       0.993   2.823  19.589  0.00  0.00    +0.000 C 
ATOM      2  C   UNL     1       2.220   3.610  20.049  0.00  0.00    +0.000 C 
ATOM      3  C   UNL     1       2.985   2.855  21.135  0.00  0.00    +0.000 C 
ATOM      4  O   UNL     1       1.756   4.850  20.617  0.00  0.00    +0.000 OA
ATOM      5  C   UNL     1       2.248   5.912  19.904  0.00  0.00    +0.000 C 
ATOM      6  O   UNL     1       2.004   7.075  20.157  0.00  0.00    +0.000 OA
ATOM      7  C   UNL     1       3.085   5.393  18.830  0.00  0.00    +0.000 A 
ATOM      8  C   UNL     1       3.075   4.064  18.923  0.00  0.00    +0.000 A 
ATOM      9  C   UNL     1       3.834   3.266  18.003  0.00  0.00    +0.000 A 
ATOM     10  C   UNL     1       4.528   3.873  17.029  0.00  0.00    +0.000 A 
ATOM     11  N   UNL     1       4.516   5.259  16.871  0.00  0.00    +0.000 N 
ATOM     12  C   UNL     1       3.846   6.101  17.790  0.00  0.00    +0.000 A 
ATOM     13  O   UNL     1       3.878   7.326  17.742  0.00  0.00    +0.000 OA
ENDROOT
BRANCH  11  14
ATOM     14  C   UNL     1       5.331   5.918  15.832  0.00  0.00    +0.000 C 
BRANCH  14  15
ATOM     15  C   UNL     1       6.628   5.201  15.424  0.00  0.00    +0.000 C 
BRANCH  15  16
ATOM     16  C   UNL     1       6.553   4.597  14.036  0.00  0.00    +0.000 A 
ATOM     17  C   UNL     1       5.489   3.726  13.740  0.00  0.00    +0.000 A 
ATOM     18  C   UNL     1       5.366   3.141  12.478  0.00  0.00    +0.000 A 
ATOM     19  C   UNL     1       6.304   3.415  11.486  0.00  0.00    +0.000 A 
ATOM     20  C   UNL     1       7.363   4.279  11.758  0.00  0.00    +0.000 A 
ATOM     21  C   UNL     1       7.487   4.870  13.022  0.00  0.00    +0.000 A 
ATOM     22 CL   UNL     1       8.826   5.933  13.278  0.00  0.00    +0.000 Cl
ENDBRANCH  15  16
ENDBRANCH  14  15
ENDBRANCH  11  14
TORSDOF 3
ENDMDL
MODEL 3
REMARK VINA RESULT:      -7.2      5.673      8.513
REMARK  Name = 
REMARK  5 active torsions:
REMARK  status: ('A' for Active; 'I' for Inactive)
REMARK    1  A    between atoms: C_1  and  C_2
REMARK    2  A    between atoms: C_2  and  C_3
REMARK    3  A    between atoms: N_11  and  C_12
REMARK    4  A    between atoms: C_12  and  C_13
REMARK    5  A    between atoms: C_13  and  C_14
REMARK                            x       y       z     vdW  Elec       q    Type
REMARK                         _______ _______ _______ _____ _____    ______ ____
ROOT
ATOM      1  C   UNL     1       6.470   2.134  12.183  0.00  0.00    +0.000 C 
ATOM      2  C   UNL     1       6.069   3.591  12.412  0.00  0.00    +0.000 C 
ATOM      3  C   UNL     1       4.894   3.987  11.519  0.00  0.00    +0.000 C 
ATOM      4  O   UNL     1       7.194   4.417  12.053  0.00  0.00    +0.000 OA
ATOM      5  C   UNL     1       7.628   5.127  13.142  0.00  0.00    +0.000 C 
ATOM      6  O   UNL     1       8.571   5.892  13.125  0.00  0.00    +0.000 OA
ATOM      7  C   UNL     1       6.770   4.799  14.273  0.00  0.00    +0.000 A 
ATOM      8  C   UNL     1       5.865   3.919  13.846  0.00  0.00    +0.000 A 
ATOM      9  C   UNL     1       4.860   3.420  14.740  0.00  0.00    +0.000 A 
ATOM     10  C   UNL     1       4.862   3.825  16.018  0.00  0.00    +0.000 A 
ATOM     11  N   UNL     1       5.828   4.702  16.511  0.00  0.00    +0.000 N 
ATOM     12  C   UNL     1       6.799   5.284  15.661  0.00  0.00    +0.000 A 
ATOM     13  O   UNL     1       7.613   6.123  16.029  0.00  0.00    +0.000 OA
ENDROOT
BRANCH  11  14
ATOM     14  C   UNL     1       5.784   5.185  17.904  0.00  0.00    +0.000 C 
BRANCH  14  15
ATOM     15  C   UNL     1       5.426   4.145  18.977  0.00  0.00    +0.000 C 
BRANCH  15  16
ATOM     16  C   UNL     1       3.963   4.188  19.371  0.00  0.00    +0.000 A 
ATOM     17  C   UNL     1       3.436   5.397  19.862  0.00  0.00    +0.000 A 
ATOM     18  C   UNL     1       2.095   5.498  20.239  0.00  0.00    +0.000 A 
ATOM     19  C   UNL     1       1.254   4.394  20.132  0.00  0.00    +0.000 A 
ATOM     20  C   UNL     1       1.755   3.189  19.644  0.00  0.00    +0.000 A 
ATOM     21  C   UNL     1       3.099   3.085  19.262  0.00  0.00    +0.000 A 
ATOM     22 CL   UNL     1       3.642   1.558  18.663  0.00  0.00    +0.000 Cl
ENDBRANCH  15  16
ENDBRANCH  14  15
ENDBRANCH  11  14
TORSDOF 3
ENDMDL
MODEL 4
REMARK VINA RESULT:      -7.2      3.163      7.407
REMARK  Name = 
REMARK  5 active torsions:
REMARK  status: ('A' for Active; 'I' for Inactive)
REMARK    1  A    between atoms: C_1  and  C_2
REMARK    2  A    between atoms: C_2  and  C_3
REMARK    3  A    between atoms: N_11  and  C_12
REMARK    4  A    between atoms: C_12  and  C_13
REMARK    5  A    between atoms: C_13  and  C_14
REMARK                            x       y       z     vdW  Elec       q    Type
REMARK                         _______ _______ _______ _____ _____    ______ ____
ROOT
ATOM      1  C   UNL     1       4.735   3.730  16.571  0.00  0.00    +0.000 C 
ATOM      2  C   UNL     1       5.010   4.409  17.913  0.00  0.00    +0.000 C 
ATOM      3  C   UNL     1       6.505   4.658  18.109  0.00  0.00    +0.000 C 
ATOM      4  O   UNL     1       4.571   3.516  18.954  0.00  0.00    +0.000 OA
ATOM      5  C   UNL     1       3.574   4.100  19.691  0.00  0.00    +0.000 C 
ATOM      6  O   UNL     1       3.012   3.563  20.624  0.00  0.00    +0.000 OA
ATOM      7  C   UNL     1       3.333   5.434  19.157  0.00  0.00    +0.000 A 
ATOM      8  C   UNL     1       4.171   5.614  18.136  0.00  0.00    +0.000 A 
ATOM      9  C   UNL     1       4.183   6.854  17.416  0.00  0.00    +0.000 A 
ATOM     10  C   UNL     1       3.318   7.820  17.762  0.00  0.00    +0.000 A 
ATOM     11  N   UNL     1       2.391   7.644  18.789  0.00  0.00    +0.000 N 
ATOM     12  C   UNL     1       2.380   6.471  19.582  0.00  0.00    +0.000 A 
ATOM     13  O   UNL     1       1.644   6.307  20.547  0.00  0.00    +0.000 OA
ENDROOT
BRANCH  11  14
ATOM     14  C   UNL     1       1.485   8.735  19.198  0.00  0.00    +0.000 C 
BRANCH  14  15
ATOM     15  C   UNL     1       1.148   9.782  18.124  0.00  0.00    +0.000 C 
BRANCH  15  16
ATOM     16  C   UNL     1      -0.232  10.381  18.302  0.00  0.00    +0.000 A 
ATOM     17  C   UNL     1      -1.283   9.894  17.504  0.00  0.00    +0.000 A 
ATOM     18  C   UNL     1      -2.577  10.406  17.624  0.00  0.00    +0.000 A 
ATOM     19  C   UNL     1      -2.847  11.414  18.545  0.00  0.00    +0.000 A 
ATOM     20  C   UNL     1      -1.820  11.908  19.348  0.00  0.00    +0.000 A 
ATOM     21  C   UNL     1      -0.522  11.394  19.232  0.00  0.00    +0.000 A 
ATOM     22 CL   UNL     1       0.693  12.056  20.267  0.00  0.00    +0.000 Cl
ENDBRANCH  15  16
ENDBRANCH  14  15
ENDBRANCH  11  14
TORSDOF 3
ENDMDL
MODEL 5
REMARK VINA RESULT:      -7.2      5.800      8.660
REMARK  Name = 
REMARK  5 active torsions:
REMARK  status: ('A' for Active; 'I' for Inactive)
REMARK    1  A    between atoms: C_1  and  C_2
REMARK    2  A    between atoms: C_2  and  C_3
REMARK    3  A    between atoms: N_11  and  C_12
REMARK    4  A    between atoms: C_12  and  C_13
REMARK    5  A    between atoms: C_13  and  C_14
REMARK                            x       y       z     vdW  Elec       q    Type
REMARK                         _______ _______ _______ _____ _____    ______ ____
ROOT
ATOM      1  C   UNL     1       6.479   2.080  12.049  0.00  0.00    +0.000 C 
ATOM      2  C   UNL     1       5.996   3.498  12.355  0.00  0.00    +0.000 C 
ATOM      3  C   UNL     1       4.707   3.817  11.599  0.00  0.00    +0.000 C 
ATOM      4  O   UNL     1       7.012   4.413  11.902  0.00  0.00    +0.000 OA
ATOM      5  C   UNL     1       7.503   5.136  12.957  0.00  0.00    +0.000 C 
ATOM      6  O   UNL     1       8.380   5.972  12.861  0.00  0.00    +0.000 OA
ATOM      7  C   UNL     1       6.797   4.724  14.163  0.00  0.00    +0.000 A 
ATOM      8  C   UNL     1       5.921   3.784  13.810  0.00  0.00    +0.000 A 
ATOM      9  C   UNL     1       5.056   3.193  14.791  0.00  0.00    +0.000 A 
ATOM     10  C   UNL     1       5.162   3.575  16.072  0.00  0.00    +0.000 A 
ATOM     11  N   UNL     1       6.107   4.516  16.483  0.00  0.00    +0.000 N 
ATOM     12  C   UNL     1       6.936   5.185  15.552  0.00  0.00    +0.000 A 
ATOM     13  O   UNL     1       7.719   6.079  15.855  0.00  0.00    +0.000 OA
ENDROOT
BRANCH  11  14
ATOM     14  C   UNL     1       6.174   4.970  17.885  0.00  0.00    +0.000 C 
BRANCH  14  15
ATOM     15  C   UNL     1       5.057   5.918  18.351  0.00  0.00    +0.000 C 
BRANCH  15  16
ATOM     16  C   UNL     1       3.993   5.213  19.169  0.00  0.00    +0.000 A 
ATOM     17  C   UNL     1       4.213   3.875  19.546  0.00  0.00    +0.000 A 
ATOM     18  C   UNL     1       3.270   3.175  20.302  0.00  0.00    +0.000 A 
ATOM     19  C   UNL     1       2.089   3.798  20.697  0.00  0.00    +0.000 A 
ATOM     20  C   UNL     1       1.854   5.123  20.337  0.00  0.00    +0.000 A 
ATOM     21  C   UNL     1       2.800   5.829  19.582  0.00  0.00    +0.000 A 
ATOM     22 CL   UNL     1       2.435   7.471  19.182  0.00  0.00    +0.000 Cl
ENDBRANCH  15  16
ENDBRANCH  14  15
ENDBRANCH  11  14
TORSDOF 3
ENDMDL
MODEL 6
REMARK VINA RESULT:      -7.2      1.026      1.159
REMARK  Name = 
REMARK  5 active torsions:
REMARK  status: ('A' for Active; 'I' for Inactive)
REMARK    1  A    between atoms: C_1  and  C_2
REMARK    2  A    between atoms: C_2  and  C_3
REMARK    3  A    between atoms: N_11  and  C_12
REMARK    4  A    between atoms: C_12  and  C_13
REMARK    5  A    between atoms: C_13  and  C_14
REMARK                            x       y       z     vdW  Elec       q    Type
REMARK                         _______ _______ _______ _____ _____    ______ ____
ROOT
ATOM      1  C   UNL     1       0.988  12.707  20.398  0.00  0.00    +0.000 C 
ATOM      2  C   UNL     1       0.090  11.484  20.210  0.00  0.00    +0.000 C 
ATOM      3  C   UNL     1      -1.176  11.844  19.434  0.00  0.00    +0.000 C 
ATOM      4  O   UNL     1      -0.308  11.028  21.517  0.00  0.00    +0.000 OA
ATOM      5  C   UNL     1       0.146   9.753  21.732  0.00  0.00    +0.000 C 
ATOM      6  O   UNL     1      -0.036   9.130  22.759  0.00  0.00    +0.000 OA
ATOM      7  C   UNL     1       0.857   9.313  20.540  0.00  0.00    +0.000 A 
ATOM      8  C   UNL     1       0.815  10.311  19.658  0.00  0.00    +0.000 A 
ATOM      9  C   UNL     1       1.419  10.165  18.365  0.00  0.00    +0.000 A 
ATOM     10  C   UNL     1       2.055   9.022  18.066  0.00  0.00    +0.000 A 
ATOM     11  N   UNL     1       2.165   7.979  18.986  0.00  0.00    +0.000 N 
ATOM     12  C   UNL     1       1.528   8.037  20.248  0.00  0.00    +0.000 A 
ATOM     13  O   UNL     1       1.524   7.113  21.054  0.00  0.00    +0.000 OA
ENDROOT
BRANCH  11  14
ATOM     14  C   UNL     1       2.816   6.705  18.624  0.00  0.00    +0.000 C 
BRANCH  14  15
ATOM     15  C   UNL     1       1.975   5.718  17.799  0.00  0.00    +0.000 C 
BRANCH  15  16
ATOM     16  C   UNL     1       2.249   4.271  18.160  0.00  0.00    +0.000 A 
ATOM     17  C   UNL     1       1.376   3.626  19.055  0.00  0.00    +0.000 A 
ATOM     18  C   UNL     1       1.575   2.293  19.422  0.00  0.00    +0.000 A 
ATOM     19  C   UNL     1       2.650   1.578  18.901  0.00  0.00    +0.000 A 
ATOM     20  C   UNL     1       3.524   2.198  18.010  0.00  0.00    +0.000 A 
ATOM     21  C   UNL     1       3.324   3.533  17.637  0.00  0.00    +0.000 A 
ATOM     22 CL   UNL     1       4.450   4.226  16.523  0.00  0.00    +0.000 Cl
ENDBRANCH  15  16
ENDBRANCH  14  15
ENDBRANCH  11  14
TORSDOF 3
ENDMDL
MODEL 7
REMARK VINA RESULT:      -7.2      3.007      7.111
REMARK  Name = 
REMARK  5 active torsions:
REMARK  status: ('A' for Active; 'I' for Inactive)
REMARK    1  A    between atoms: C_1  and  C_2
REMARK    2  A    between atoms: C_2  and  C_3
REMARK    3  A    between atoms: N_11  and  C_12
REMARK    4  A    between atoms: C_12  and  C_13
REMARK    5  A    between atoms: C_13  and  C_14
REMARK                            x       y       z     vdW  Elec       q    Type
REMARK                         _______ _______ _______ _____ _____    ______ ____
ROOT
ATOM      1  C   UNL     1       2.922   3.793  17.284  0.00  0.00    +0.000 C 
ATOM      2  C   UNL     1       3.589   4.574  18.417  0.00  0.00    +0.000 C 
ATOM      3  C   UNL     1       5.110   4.568  18.271  0.00  0.00    +0.000 C 
ATOM      4  O   UNL     1       3.262   3.914  19.655  0.00  0.00    +0.000 OA
ATOM      5  C   UNL     1       2.555   4.758  20.471  0.00  0.00    +0.000 C 
ATOM      6  O   UNL     1       2.140   4.453  21.571  0.00  0.00    +0.000 OA
ATOM      7  C   UNL     1       2.406   6.036  19.788  0.00  0.00    +0.000 A 
ATOM      8  C   UNL     1       3.013   5.930  18.606  0.00  0.00    +0.000 A 
ATOM      9  C   UNL     1       3.052   7.047  17.707  0.00  0.00    +0.000 A 
ATOM     10  C   UNL     1       2.443   8.190  18.057  0.00  0.00    +0.000 A 
ATOM     11  N   UNL     1       1.753   8.316  19.262  0.00  0.00    +0.000 N 
ATOM     12  C   UNL     1       1.741   7.274  20.220  0.00  0.00    +0.000 A 
ATOM     13  O   UNL     1       1.222   7.370  21.326  0.00  0.00    +0.000 OA
ENDROOT
BRANCH  11  14
ATOM     14  C   UNL     1       1.137   9.597  19.661  0.00  0.00    +0.000 C 
BRANCH  14  15
ATOM     15  C   UNL     1       0.766  10.561  18.522  0.00  0.00    +0.000 C 
BRANCH  15  16
ATOM     16  C   UNL     1      -0.731  10.731  18.361  0.00  0.00    +0.000 A 
ATOM     17  C   UNL     1      -1.404   9.909  17.439  0.00  0.00    +0.000 A 
ATOM     18  C   UNL     1      -2.784  10.018  17.248  0.00  0.00    +0.000 A 
ATOM     19  C   UNL     1      -3.518  10.949  17.977  0.00  0.00    +0.000 A 
ATOM     20  C   UNL     1      -2.871  11.770  18.899  0.00  0.00    +0.000 A 
ATOM     21  C   UNL     1      -1.488  11.660  19.095  0.00  0.00    +0.000 A 
ATOM     22 CL   UNL     1      -0.762  12.710  20.260  0.00  0.00    +0.000 Cl
ENDBRANCH  15  16
ENDBRANCH  14  15
ENDBRANCH  11  14
TORSDOF 3
ENDMDL
MODEL 8
REMARK VINA RESULT:      -7.1      3.704      7.418
REMARK  Name = 
REMARK  5 active torsions:
REMARK  status: ('A' for Active; 'I' for Inactive)
REMARK    1  A    between atoms: C_1  and  C_2
REMARK    2  A    between atoms: C_2  and  C_3
REMARK    3  A    between atoms: N_11  and  C_12
REMARK    4  A    between atoms: C_12  and  C_13
REMARK    5  A    between atoms: C_13  and  C_14
REMARK                            x       y       z     vdW  Elec       q    Type
REMARK                         _______ _______ _______ _____ _____    ______ ____
ROOT
ATOM      1  C   UNL     1       5.040   4.939  15.600  0.00  0.00    +0.000 C 
ATOM      2  C   UNL     1       5.496   5.362  16.996  0.00  0.00    +0.000 C 
ATOM      3  C   UNL     1       6.752   6.229  16.927  0.00  0.00    +0.000 C 
ATOM      4  O   UNL     1       5.824   4.168  17.730  0.00  0.00    +0.000 OA
ATOM      5  C   UNL     1       5.012   4.047  18.828  0.00  0.00    +0.000 C 
ATOM      6  O   UNL     1       5.063   3.124  19.615  0.00  0.00    +0.000 OA
ATOM      7  C   UNL     1       4.116   5.196  18.862  0.00  0.00    +0.000 A 
ATOM      8  C   UNL     1       4.404   5.959  17.808  0.00  0.00    +0.000 A 
ATOM      9  C   UNL     1       3.694   7.184  17.582  0.00  0.00    +0.000 A 
ATOM     10  C   UNL     1       2.714   7.537  18.428  0.00  0.00    +0.000 A 
ATOM     11  N   UNL     1       2.350   6.734  19.509  0.00  0.00    +0.000 N 
ATOM     12  C   UNL     1       3.062   5.552  19.823  0.00  0.00    +0.000 A 
ATOM     13  O   UNL     1       2.835   4.861  20.810  0.00  0.00    +0.000 OA
ENDROOT
BRANCH  11  14
ATOM     14  C   UNL     1       1.310   7.162  20.464  0.00  0.00    +0.000 C 
BRANCH  14  15
ATOM     15  C   UNL     1       1.565   8.484  21.205  0.00  0.00    +0.000 C 
BRANCH  15  16
ATOM     16  C   UNL     1       0.572   9.567  20.832  0.00  0.00    +0.000 A 
ATOM     17  C   UNL     1       0.526  10.003  19.495  0.00  0.00    +0.000 A 
ATOM     18  C   UNL     1      -0.369  10.997  19.091  0.00  0.00    +0.000 A 
ATOM     19  C   UNL     1      -1.237  11.572  20.015  0.00  0.00    +0.000 A 
ATOM     20  C   UNL     1      -1.210  11.151  21.343  0.00  0.00    +0.000 A 
ATOM     21  C   UNL     1      -0.316  10.153  21.750  0.00  0.00    +0.000 A 
ATOM     22 CL   UNL     1      -0.348   9.684  23.413  0.00  0.00    +0.000 Cl
ENDBRANCH  15  16
ENDBRANCH  14  15
ENDBRANCH  11  14
TORSDOF 3
ENDMDL
MODEL 9
REMARK VINA RESULT:      -7.1      3.482      7.655
REMARK  Name = 
REMARK  5 active torsions:
REMARK  status: ('A' for Active; 'I' for Inactive)
REMARK    1  A    between atoms: C_1  and  C_2
REMARK    2  A    between atoms: C_2  and  C_3
REMARK    3  A    between atoms: N_11  and  C_12
REMARK    4  A    between atoms: C_12  and  C_13
REMARK    5  A    between atoms: C_13  and  C_14
REMARK                            x       y       z     vdW  Elec       q    Type
REMARK                         _______ _______ _______ _____ _____    ______ ____
ROOT
ATOM      1  C   UNL     1       4.013   2.526  20.235  0.00  0.00    +0.000 C 
ATOM      2  C   UNL     1       3.260   2.950  18.975  0.00  0.00    +0.000 C 
ATOM      3  C   UNL     1       2.017   2.088  18.759  0.00  0.00    +0.000 C 
ATOM      4  O   UNL     1       4.138   2.748  17.851  0.00  0.00    +0.000 OA
ATOM      5  C   UNL     1       4.385   3.941  17.223  0.00  0.00    +0.000 C 
ATOM      6  O   UNL     1       5.106   4.063  16.252  0.00  0.00    +0.000 OA
ATOM      7  C   UNL     1       3.646   4.986  17.917  0.00  0.00    +0.000 A 
ATOM      8  C   UNL     1       2.989   4.410  18.923  0.00  0.00    +0.000 A 
ATOM      9  C   UNL     1       2.148   5.191  19.784  0.00  0.00    +0.000 A 
ATOM     10  C   UNL     1       2.056   6.514  19.584  0.00  0.00    +0.000 A 
ATOM     11  N   UNL     1       2.773   7.156  18.575  0.00  0.00    +0.000 N 
ATOM     12  C   UNL     1       3.561   6.430  17.650  0.00  0.00    +0.000 A 
ATOM     13  O   UNL     1       4.139   6.940  16.697  0.00  0.00    +0.000 OA
ENDROOT
BRANCH  11  14
ATOM     14  C   UNL     1       2.619   8.603  18.328  0.00  0.00    +0.000 C 
BRANCH  14  15
ATOM     15  C   UNL     1       1.277   9.055  17.730  0.00  0.00    +0.000 C 
BRANCH  15  16
ATOM     16  C   UNL     1       0.473   9.922  18.679  0.00  0.00    +0.000 A 
ATOM     17  C   UNL     1       1.082  10.354  19.872  0.00  0.00    +0.000 A 
ATOM     18  C   UNL     1       0.393  11.156  20.784  0.00  0.00    +0.000 A 
ATOM     19  C   UNL     1      -0.918  11.544  20.521  0.00  0.00    +0.000 A 
ATOM     20  C   UNL     1      -1.538  11.130  19.344  0.00  0.00    +0.000 A 
ATOM     21  C   UNL     1      -0.848  10.328  18.425  0.00  0.00    +0.000 A 
ATOM     22 CL   UNL     1      -1.685   9.861  16.988  0.00  0.00    +0.000 Cl
ENDBRANCH  15  16
ENDBRANCH  14  15
ENDBRANCH  11  14
TORSDOF 3
ENDMDL
