MODEL 1
REMARK VINA RESULT:      -8.1      0.000      0.000
REMARK  Name = 
REMARK  8 active torsions:
REMARK  status: ('A' for Active; 'I' for Inactive)
REMARK    1  A    between atoms: C_1  and  N_2
REMARK    2  A    between atoms: C_3  and  N_4
REMARK    3  A    between atoms: C_5  and  C_6
REMARK    4  A    between atoms: C_6  and  C_8
REMARK    5  A    between atoms: C_8  and  O_9
REMARK    6  A    between atoms: O_9  and  C_10
REMARK    7  A    between atoms: C_10  and  C_12
REMARK    8  A    between atoms: N_24  and  C_25
REMARK                            x       y       z     vdW  Elec       q    Type
REMARK                         _______ _______ _______ _____ _____    ______ ____
ROOT
ATOM      1  C   UNL     1       4.530   3.456  19.540  0.00  0.00    +0.000 C 
ATOM      2  O   UNL     1       4.885   2.327  19.901  0.00  0.00    +0.000 OA
ENDROOT
BRANCH   1   6
ATOM      3  C   UNL     1       5.755   4.507  14.796  0.00  0.00    +0.000 C 
ATOM      4  N   UNL     1       5.906   4.691  16.237  0.00  0.00    +0.000 N 
ATOM      5  C   UNL     1       5.114   4.014  17.165  0.00  0.00    +0.000 A 
ATOM      6  C   UNL     1       5.324   4.219  18.491  0.00  0.00    +0.000 A 
ATOM      7  C   UNL     1       6.385   5.176  18.907  0.00  0.00    +0.000 A 
ATOM      8  O   UNL     1       6.675   5.310  20.095  0.00  0.00    +0.000 OA
ATOM      9  N   UNL     1       7.031   5.880  17.926  0.00  0.00    +0.000 N 
ATOM     10  C   UNL     1       8.032   6.862  18.302  0.00  0.00    +0.000 C 
ATOM     11  C   UNL     1       6.870   5.634  16.582  0.00  0.00    +0.000 A 
ATOM     12  O   UNL     1       7.552   6.217  15.735  0.00  0.00    +0.000 OA
BRANCH   5  13
ATOM     13  N   UNL     1       4.125   3.151  16.701  0.00  0.00    +0.000 N 
ATOM     14  H   UNL     1       4.157   2.981  15.702  0.00  0.00    +0.000 HD
ATOM     15  H   UNL     1       4.098   2.259  17.214  0.00  0.00    +0.000 HD
ENDBRANCH   5  13
ENDBRANCH   1   6
BRANCH   1  16
ATOM     16  C   UNL     1       3.319   4.136  20.192  0.00  0.00    +0.000 C 
BRANCH  16  17
ATOM     17  O   UNL     1       3.223   5.535  19.913  0.00  0.00    +0.000 OA
BRANCH  17  18
ATOM     18  C   UNL     1       2.024   6.083  20.230  0.00  0.00    +0.000 C 
ATOM     19  O   UNL     1       1.164   5.565  20.919  0.00  0.00    +0.000 OA
BRANCH  18  20
ATOM     20  C   UNL     1       1.917   7.417  19.589  0.00  0.00    +0.000 A 
ATOM     21  C   UNL     1       2.384   7.560  18.276  0.00  0.00    +0.000 A 
ATOM     22  C   UNL     1       2.256   8.791  17.678  0.00  0.00    +0.000 A 
ATOM     23  N   UNL     1       1.704   9.857  18.287  0.00  0.00    +0.000 NA
ATOM     24  C   UNL     1       1.252   9.722  19.545  0.00  0.00    +0.000 A 
ATOM     25  C   UNL     1       0.688  10.834  20.157  0.00  0.00    +0.000 A 
ATOM     26  C   UNL     1       0.193  10.791  21.463  0.00  0.00    +0.000 A 
ATOM     27  C   UNL     1       0.265   9.610  22.183  0.00  0.00    +0.000 A 
ATOM     28  C   UNL     1       0.829   8.478  21.593  0.00  0.00    +0.000 A 
ATOM     29  C   UNL     1       1.326   8.511  20.265  0.00  0.00    +0.000 A 
ENDBRANCH  18  20
ENDBRANCH  17  18
ENDBRANCH  16  17
ENDBRANCH   1  16
TORSDOF 6
ENDMDL
MODEL 2
REMARK VINA RESULT:      -7.8      3.376      8.250
REMARK  Name = 
REMARK  8 active torsions:
REMARK  status: ('A' for Active; 'I' for Inactive)
REMARK    1  A    between atoms: C_1  and  N_2
REMARK    2  A    between atoms: C_3  and  N_4
REMARK    3  A    between atoms: C_5  and  C_6
REMARK    4  A    between atoms: C_6  and  C_8
REMARK    5  A    between atoms: C_8  and  O_9
REMARK    6  A    between atoms: O_9  and  C_10
REMARK    7  A    between atoms: C_10  and  C_12
REMARK    8  A    between atoms: N_24  and  C_25
REMARK                            x       y       z     vdW  Elec       q    Type
REMARK                         _______ _______ _______ _____ _____    ______ ____
ROOT
ATOM      1  C   UNL     1       0.236  10.079  18.370  0.00  0.00    +0.000 C 
ATOM      2  O   UNL     1      -0.681   9.791  17.591  0.00  0.00    +0.000 OA
ENDROOT
BRANCH   1   6
ATOM      3  C   UNL     1      -0.913  10.509  23.228  0.00  0.00    +0.000 C 
ATOM      4  N   UNL     1      -0.603  11.083  21.922  0.00  0.00    +0.000 N 
ATOM      5  C   UNL     1      -0.297  10.295  20.812  0.00  0.00    +0.000 A 
ATOM      6  C   UNL     1      -0.039  10.897  19.622  0.00  0.00    +0.000 A 
ATOM      7  C   UNL     1      -0.076  12.383  19.550  0.00  0.00    +0.000 A 
ATOM      8  O   UNL     1       0.050  12.960  18.471  0.00  0.00    +0.000 OA
ATOM      9  N   UNL     1      -0.270  13.075  20.716  0.00  0.00    +0.000 N 
ATOM     10  C   UNL     1      -0.255  14.527  20.688  0.00  0.00    +0.000 C 
ATOM     11  C   UNL     1      -0.594  12.475  21.911  0.00  0.00    +0.000 A 
ATOM     12  O   UNL     1      -0.868  13.142  22.912  0.00  0.00    +0.000 OA
BRANCH   5  13
ATOM     13  N   UNL     1      -0.259   8.912  20.960  0.00  0.00    +0.000 N 
ATOM     14  H   UNL     1      -0.750   8.568  21.778  0.00  0.00    +0.000 HD
ATOM     15  H   UNL     1      -0.573   8.409  20.119  0.00  0.00    +0.000 HD
ENDBRANCH   5  13
ENDBRANCH   1   6
BRANCH   1  16
ATOM     16  C   UNL     1       1.681   9.672  18.053  0.00  0.00    +0.000 C 
BRANCH  16  17
ATOM     17  O   UNL     1       1.823   8.301  17.670  0.00  0.00    +0.000 OA
BRANCH  17  18
ATOM     18  C   UNL     1       2.395   7.516  18.615  0.00  0.00    +0.000 C 
ATOM     19  O   UNL     1       2.252   7.633  19.819  0.00  0.00    +0.000 OA
BRANCH  18  20
ATOM     20  C   UNL     1       3.242   6.496  17.950  0.00  0.00    +0.000 A 
ATOM     21  C   UNL     1       4.435   6.916  17.348  0.00  0.00    +0.000 A 
ATOM     22  C   UNL     1       5.228   5.961  16.757  0.00  0.00    +0.000 A 
ATOM     23  N   UNL     1       4.919   4.651  16.733  0.00  0.00    +0.000 NA
ATOM     24  C   UNL     1       3.777   4.245  17.313  0.00  0.00    +0.000 A 
ATOM     25  C   UNL     1       3.474   2.890  17.275  0.00  0.00    +0.000 A 
ATOM     26  C   UNL     1       2.307   2.375  17.848  0.00  0.00    +0.000 A 
ATOM     27  C   UNL     1       1.416   3.230  18.472  0.00  0.00    +0.000 A 
ATOM     28  C   UNL     1       1.695   4.597  18.522  0.00  0.00    +0.000 A 
ATOM     29  C   UNL     1       2.880   5.128  17.951  0.00  0.00    +0.000 A 
ENDBRANCH  18  20
ENDBRANCH  17  18
ENDBRANCH  16  17
ENDBRANCH   1  16
TORSDOF 6
ENDMDL
MODEL 3
REMARK VINA RESULT:      -7.6      2.885      8.235
REMARK  Name = 
REMARK  8 active torsions:
REMARK  status: ('A' for Active; 'I' for Inactive)
REMARK    1  A    between atoms: C_1  and  N_2
REMARK    2  A    between atoms: C_3  and  N_4
REMARK    3  A    between atoms: C_5  and  C_6
REMARK    4  A    between atoms: C_6  and  C_8
REMARK    5  A    between atoms: C_8  and  O_9
REMARK    6  A    between atoms: O_9  and  C_10
REMARK    7  A    between atoms: C_10  and  C_12
REMARK    8  A    between atoms: N_24  and  C_25
REMARK                            x       y       z     vdW  Elec       q    Type
REMARK                         _______ _______ _______ _____ _____    ______ ____
ROOT
ATOM      1  C   UNL     1       0.441   9.871  18.276  0.00  0.00    +0.000 C 
ATOM      2  O   UNL     1      -0.461   9.629  17.464  0.00  0.00    +0.000 OA
ENDROOT
BRANCH   1   6
ATOM      3  C   UNL     1       0.256  14.343  20.528  0.00  0.00    +0.000 C 
ATOM      4  N   UNL     1       0.117  12.889  20.537  0.00  0.00    +0.000 N 
ATOM      5  C   UNL     1       0.307  12.113  19.393  0.00  0.00    +0.000 A 
ATOM      6  C   UNL     1       0.182  10.763  19.479  0.00  0.00    +0.000 A 
ATOM      7  C   UNL     1      -0.170  10.160  20.794  0.00  0.00    +0.000 A 
ATOM      8  O   UNL     1      -0.190   8.939  20.936  0.00  0.00    +0.000 OA
ATOM      9  N   UNL     1      -0.451  11.009  21.832  0.00  0.00    +0.000 N 
ATOM     10  C   UNL     1      -0.853  10.454  23.111  0.00  0.00    +0.000 C 
ATOM     11  C   UNL     1      -0.266  12.371  21.771  0.00  0.00    +0.000 A 
ATOM     12  O   UNL     1      -0.427  13.087  22.762  0.00  0.00    +0.000 OA
BRANCH   5  13
ATOM     13  N   UNL     1       0.613  12.748  18.193  0.00  0.00    +0.000 N 
ATOM     14  H   UNL     1       0.095  12.398  17.394  0.00  0.00    +0.000 HD
ATOM     15  H   UNL     1       0.533  13.772  18.249  0.00  0.00    +0.000 HD
ENDBRANCH   5  13
ENDBRANCH   1   6
BRANCH   1  16
ATOM     16  C   UNL     1       1.857   9.327  18.047  0.00  0.00    +0.000 C 
BRANCH  16  17
ATOM     17  O   UNL     1       1.893   7.940  17.699  0.00  0.00    +0.000 OA
BRANCH  17  18
ATOM     18  C   UNL     1       2.361   7.133  18.683  0.00  0.00    +0.000 C 
ATOM     19  O   UNL     1       2.446   7.424  19.863  0.00  0.00    +0.000 OA
BRANCH  18  20
ATOM     20  C   UNL     1       2.772   5.836  18.090  0.00  0.00    +0.000 A 
ATOM     21  C   UNL     1       1.860   4.773  18.126  0.00  0.00    +0.000 A 
ATOM     22  C   UNL     1       2.238   3.583  17.550  0.00  0.00    +0.000 A 
ATOM     23  N   UNL     1       3.430   3.393  16.955  0.00  0.00    +0.000 NA
ATOM     24  C   UNL     1       4.305   4.411  16.916  0.00  0.00    +0.000 A 
ATOM     25  C   UNL     1       5.530   4.194  16.300  0.00  0.00    +0.000 A 
ATOM     26  C   UNL     1       6.505   5.193  16.214  0.00  0.00    +0.000 A 
ATOM     27  C   UNL     1       6.256   6.441  16.759  0.00  0.00    +0.000 A 
ATOM     28  C   UNL     1       5.033   6.685  17.386  0.00  0.00    +0.000 A 
ATOM     29  C   UNL     1       4.035   5.681  17.470  0.00  0.00    +0.000 A 
ENDBRANCH  18  20
ENDBRANCH  17  18
ENDBRANCH  16  17
ENDBRANCH   1  16
TORSDOF 6
ENDMDL
MODEL 4
REMARK VINA RESULT:      -7.6      3.175      8.196
REMARK  Name = 
REMARK  8 active torsions:
REMARK  status: ('A' for Active; 'I' for Inactive)
REMARK    1  A    between atoms: C_1  and  N_2
REMARK    2  A    between atoms: C_3  and  N_4
REMARK    3  A    between atoms: C_5  and  C_6
REMARK    4  A    between atoms: C_6  and  C_8
REMARK    5  A    between atoms: C_8  and  O_9
REMARK    6  A    between atoms: O_9  and  C_10
REMARK    7  A    between atoms: C_10  and  C_12
REMARK    8  A    between atoms: N_24  and  C_25
REMARK                            x       y       z     vdW  Elec       q    Type
REMARK                         _______ _______ _______ _____ _____    ______ ____
ROOT
ATOM      1  C   UNL     1       0.468   9.921  18.394  0.00  0.00    +0.000 C 
ATOM      2  O   UNL     1      -0.454   9.705  17.597  0.00  0.00    +0.000 OA
ENDROOT
BRANCH   1   6
ATOM      3  C   UNL     1      -0.842  10.293  23.215  0.00  0.00    +0.000 C 
ATOM      4  N   UNL     1      -0.419  10.879  21.947  0.00  0.00    +0.000 N 
ATOM      5  C   UNL     1      -0.147  10.104  20.819  0.00  0.00    +0.000 A 
ATOM      6  C   UNL     1       0.223  10.718  19.665  0.00  0.00    +0.000 A 
ATOM      7  C   UNL     1       0.340  12.201  19.651  0.00  0.00    +0.000 A 
ATOM      8  O   UNL     1       0.570  12.800  18.602  0.00  0.00    +0.000 OA
ATOM      9  N   UNL     1       0.166  12.868  20.835  0.00  0.00    +0.000 N 
ATOM     10  C   UNL     1       0.330  14.310  20.866  0.00  0.00    +0.000 C 
ATOM     11  C   UNL     1      -0.269  12.262  21.992  0.00  0.00    +0.000 A 
ATOM     12  O   UNL     1      -0.517  12.917  23.006  0.00  0.00    +0.000 OA
BRANCH   5  13
ATOM     13  N   UNL     1      -0.256   8.720  20.913  0.00  0.00    +0.000 N 
ATOM     14  H   UNL     1      -0.038   8.347  21.830  0.00  0.00    +0.000 HD
ATOM     15  H   UNL     1      -1.167   8.366  20.592  0.00  0.00    +0.000 HD
ENDBRANCH   5  13
ENDBRANCH   1   6
BRANCH   1  16
ATOM     16  C   UNL     1       1.892   9.445  18.080  0.00  0.00    +0.000 C 
BRANCH  16  17
ATOM     17  O   UNL     1       1.968   8.071  17.692  0.00  0.00    +0.000 OA
BRANCH  17  18
ATOM     18  C   UNL     1       2.359   7.234  18.685  0.00  0.00    +0.000 C 
ATOM     19  O   UNL     1       2.364   7.495  19.875  0.00  0.00    +0.000 OA
BRANCH  18  20
ATOM     20  C   UNL     1       2.798   5.948  18.089  0.00  0.00    +0.000 A 
ATOM     21  C   UNL     1       1.891   4.880  18.077  0.00  0.00    +0.000 A 
ATOM     22  C   UNL     1       2.296   3.700  17.499  0.00  0.00    +0.000 A 
ATOM     23  N   UNL     1       3.510   3.524  16.944  0.00  0.00    +0.000 NA
ATOM     24  C   UNL     1       4.380   4.548  16.951  0.00  0.00    +0.000 A 
ATOM     25  C   UNL     1       5.628   4.345  16.377  0.00  0.00    +0.000 A 
ATOM     26  C   UNL     1       6.599   5.350  16.340  0.00  0.00    +0.000 A 
ATOM     27  C   UNL     1       6.324   6.589  16.893  0.00  0.00    +0.000 A 
ATOM     28  C   UNL     1       5.078   6.818  17.479  0.00  0.00    +0.000 A 
ATOM     29  C   UNL     1       4.083   5.808  17.514  0.00  0.00    +0.000 A 
ENDBRANCH  18  20
ENDBRANCH  17  18
ENDBRANCH  16  17
ENDBRANCH   1  16
TORSDOF 6
ENDMDL
MODEL 5
REMARK VINA RESULT:      -7.5      0.839      2.082
REMARK  Name = 
REMARK  8 active torsions:
REMARK  status: ('A' for Active; 'I' for Inactive)
REMARK    1  A    between atoms: C_1  and  N_2
REMARK    2  A    between atoms: C_3  and  N_4
REMARK    3  A    between atoms: C_5  and  C_6
REMARK    4  A    between atoms: C_6  and  C_8
REMARK    5  A    between atoms: C_8  and  O_9
REMARK    6  A    between atoms: O_9  and  C_10
REMARK    7  A    between atoms: C_10  and  C_12
REMARK    8  A    between atoms: N_24  and  C_25
REMARK                            x       y       z     vdW  Elec       q    Type
REMARK                         _______ _______ _______ _____ _____    ______ ____
ROOT
ATOM      1  C   UNL     1       4.623   3.386  19.388  0.00  0.00    +0.000 C 
ATOM      2  O   UNL     1       5.107   2.414  19.980  0.00  0.00    +0.000 OA
ENDROOT
BRANCH   1   6
ATOM      3  C   UNL     1       7.919   6.770  17.718  0.00  0.00    +0.000 C 
ATOM      4  N   UNL     1       6.946   5.702  17.501  0.00  0.00    +0.000 N 
ATOM      5  C   UNL     1       6.304   5.051  18.554  0.00  0.00    +0.000 A 
ATOM      6  C   UNL     1       5.394   4.080  18.278  0.00  0.00    +0.000 A 
ATOM      7  C   UNL     1       5.129   3.734  16.855  0.00  0.00    +0.000 A 
ATOM      8  O   UNL     1       4.240   2.937  16.561  0.00  0.00    +0.000 OA
ATOM      9  N   UNL     1       5.891   4.346  15.895  0.00  0.00    +0.000 N 
ATOM     10  C   UNL     1       5.695   3.988  14.501  0.00  0.00    +0.000 C 
ATOM     11  C   UNL     1       6.768   5.373  16.161  0.00  0.00    +0.000 A 
ATOM     12  O   UNL     1       7.353   5.969  15.253  0.00  0.00    +0.000 OA
BRANCH   5  13
ATOM     13  N   UNL     1       6.620   5.412  19.860  0.00  0.00    +0.000 N 
ATOM     14  H   UNL     1       7.343   4.843  20.285  0.00  0.00    +0.000 HD
ATOM     15  H   UNL     1       6.849   6.410  19.957  0.00  0.00    +0.000 HD
ENDBRANCH   5  13
ENDBRANCH   1   6
BRANCH   1  16
ATOM     16  C   UNL     1       3.260   3.952  19.810  0.00  0.00    +0.000 C 
BRANCH  16  17
ATOM     17  O   UNL     1       3.260   5.368  20.008  0.00  0.00    +0.000 OA
BRANCH  17  18
ATOM     18  C   UNL     1       2.032   5.898  20.230  0.00  0.00    +0.000 C 
ATOM     19  O   UNL     1       1.127   5.364  20.846  0.00  0.00    +0.000 OA
BRANCH  18  20
ATOM     20  C   UNL     1       1.956   7.231  19.584  0.00  0.00    +0.000 A 
ATOM     21  C   UNL     1       2.432   7.361  18.273  0.00  0.00    +0.000 A 
ATOM     22  C   UNL     1       2.334   8.593  17.672  0.00  0.00    +0.000 A 
ATOM     23  N   UNL     1       1.802   9.672  18.275  0.00  0.00    +0.000 NA
ATOM     24  C   UNL     1       1.341   9.551  19.532  0.00  0.00    +0.000 A 
ATOM     25  C   UNL     1       0.799  10.676  20.138  0.00  0.00    +0.000 A 
ATOM     26  C   UNL     1       0.298  10.647  21.443  0.00  0.00    +0.000 A 
ATOM     27  C   UNL     1       0.340   9.467  22.166  0.00  0.00    +0.000 A 
ATOM     28  C   UNL     1       0.882   8.322  21.581  0.00  0.00    +0.000 A 
ATOM     29  C   UNL     1       1.386   8.340  20.255  0.00  0.00    +0.000 A 
ENDBRANCH  18  20
ENDBRANCH  17  18
ENDBRANCH  16  17
ENDBRANCH   1  16
TORSDOF 6
ENDMDL
MODEL 6
REMARK VINA RESULT:      -7.5      2.127      7.328
REMARK  Name = 
REMARK  8 active torsions:
REMARK  status: ('A' for Active; 'I' for Inactive)
REMARK    1  A    between atoms: C_1  and  N_2
REMARK    2  A    between atoms: C_3  and  N_4
REMARK    3  A    between atoms: C_5  and  C_6
REMARK    4  A    between atoms: C_6  and  C_8
REMARK    5  A    between atoms: C_8  and  O_9
REMARK    6  A    between atoms: O_9  and  C_10
REMARK    7  A    between atoms: C_10  and  C_12
REMARK    8  A    between atoms: N_24  and  C_25
REMARK                            x       y       z     vdW  Elec       q    Type
REMARK                         _______ _______ _______ _____ _____    ______ ____
ROOT
ATOM      1  C   UNL     1       2.830   7.256  18.310  0.00  0.00    +0.000 C 
ATOM      2  O   UNL     1       3.900   7.580  17.779  0.00  0.00    +0.000 OA
ENDROOT
BRANCH   1   6
ATOM      3  C   UNL     1       0.272   8.750  22.351  0.00  0.00    +0.000 C 
ATOM      4  N   UNL     1       0.784   8.960  20.999  0.00  0.00    +0.000 N 
ATOM      5  C   UNL     1       1.585   8.022  20.348  0.00  0.00    +0.000 A 
ATOM      6  C   UNL     1       2.008   8.275  19.083  0.00  0.00    +0.000 A 
ATOM      7  C   UNL     1       1.613   9.558  18.440  0.00  0.00    +0.000 A 
ATOM      8  O   UNL     1       1.889   9.777  17.262  0.00  0.00    +0.000 OA
ATOM      9  N   UNL     1       0.923  10.467  19.198  0.00  0.00    +0.000 N 
ATOM     10  C   UNL     1       0.572  11.751  18.618  0.00  0.00    +0.000 C 
ATOM     11  C   UNL     1       0.437  10.194  20.456  0.00  0.00    +0.000 A 
ATOM     12  O   UNL     1      -0.272  11.002  21.060  0.00  0.00    +0.000 OA
BRANCH   5  13
ATOM     13  N   UNL     1       1.933   6.854  21.020  0.00  0.00    +0.000 N 
ATOM     14  H   UNL     1       1.170   6.427  21.534  0.00  0.00    +0.000 HD
ATOM     15  H   UNL     1       2.385   6.160  20.411  0.00  0.00    +0.000 HD
ENDBRANCH   5  13
ENDBRANCH   1   6
BRANCH   1  16
ATOM     16  C   UNL     1       2.345   5.801  18.253  0.00  0.00    +0.000 C 
BRANCH  16  17
ATOM     17  O   UNL     1       3.068   4.919  19.116  0.00  0.00    +0.000 OA
BRANCH  17  18
ATOM     18  C   UNL     1       3.804   3.985  18.465  0.00  0.00    +0.000 C 
ATOM     19  O   UNL     1       3.440   2.854  18.193  0.00  0.00    +0.000 OA
BRANCH  18  20
ATOM     20  C   UNL     1       5.137   4.553  18.149  0.00  0.00    +0.000 A 
ATOM     21  C   UNL     1       5.915   5.045  19.205  0.00  0.00    +0.000 A 
ATOM     22  C   UNL     1       7.161   5.544  18.908  0.00  0.00    +0.000 A 
ATOM     23  N   UNL     1       7.668   5.579  17.662  0.00  0.00    +0.000 NA
ATOM     24  C   UNL     1       6.926   5.104  16.647  0.00  0.00    +0.000 A 
ATOM     25  C   UNL     1       7.466   5.151  15.368  0.00  0.00    +0.000 A 
ATOM     26  C   UNL     1       6.768   4.683  14.251  0.00  0.00    +0.000 A 
ATOM     27  C   UNL     1       5.497   4.158  14.409  0.00  0.00    +0.000 A 
ATOM     28  C   UNL     1       4.929   4.101  15.683  0.00  0.00    +0.000 A 
ATOM     29  C   UNL     1       5.634   4.566  16.823  0.00  0.00    +0.000 A 
ENDBRANCH  18  20
ENDBRANCH  17  18
ENDBRANCH  16  17
ENDBRANCH   1  16
TORSDOF 6
ENDMDL
MODEL 7
REMARK VINA RESULT:      -7.5      3.078      8.183
REMARK  Name = 
REMARK  8 active torsions:
REMARK  status: ('A' for Active; 'I' for Inactive)
REMARK    1  A    between atoms: C_1  and  N_2
REMARK    2  A    between atoms: C_3  and  N_4
REMARK    3  A    between atoms: C_5  and  C_6
REMARK    4  A    between atoms: C_6  and  C_8
REMARK    5  A    between atoms: C_8  and  O_9
REMARK    6  A    between atoms: O_9  and  C_10
REMARK    7  A    between atoms: C_10  and  C_12
REMARK    8  A    between atoms: N_24  and  C_25
REMARK                            x       y       z     vdW  Elec       q    Type
REMARK                         _______ _______ _______ _____ _____    ______ ____
ROOT
ATOM      1  C   UNL     1       1.343  10.529  18.551  0.00  0.00    +0.000 C 
ATOM      2  O   UNL     1       2.239  11.316  18.219  0.00  0.00    +0.000 OA
ENDROOT
BRANCH   1   6
ATOM      3  C   UNL     1      -2.609  13.197  20.090  0.00  0.00    +0.000 C 
ATOM      4  N   UNL     1      -1.553  12.213  20.313  0.00  0.00    +0.000 N 
ATOM      5  C   UNL     1      -0.661  11.833  19.309  0.00  0.00    +0.000 A 
ATOM      6  C   UNL     1       0.310  10.927  19.593  0.00  0.00    +0.000 A 
ATOM      7  C   UNL     1       0.378  10.358  20.966  0.00  0.00    +0.000 A 
ATOM      8  O   UNL     1       1.303   9.616  21.291  0.00  0.00    +0.000 OA
ATOM      9  N   UNL     1      -0.610  10.704  21.851  0.00  0.00    +0.000 N 
ATOM     10  C   UNL     1      -0.604  10.122  23.181  0.00  0.00    +0.000 C 
ATOM     11  C   UNL     1      -1.559  11.666  21.592  0.00  0.00    +0.000 A 
ATOM     12  O   UNL     1      -2.363  12.024  22.457  0.00  0.00    +0.000 OA
BRANCH   5  13
ATOM     13  N   UNL     1      -0.799  12.391  18.041  0.00  0.00    +0.000 N 
ATOM     14  H   UNL     1      -1.754  12.618  17.789  0.00  0.00    +0.000 HD
ATOM     15  H   UNL     1      -0.187  13.204  17.892  0.00  0.00    +0.000 HD
ENDBRANCH   5  13
ENDBRANCH   1   6
BRANCH   1  16
ATOM     16  C   UNL     1       1.298   9.113  17.964  0.00  0.00    +0.000 C 
BRANCH  16  17
ATOM     17  O   UNL     1       2.565   8.448  17.964  0.00  0.00    +0.000 OA
BRANCH  17  18
ATOM     18  C   UNL     1       2.610   7.337  18.740  0.00  0.00    +0.000 C 
ATOM     19  O   UNL     1       2.198   7.250  19.883  0.00  0.00    +0.000 OA
BRANCH  18  20
ATOM     20  C   UNL     1       3.259   6.242  17.979  0.00  0.00    +0.000 A 
ATOM     21  C   UNL     1       4.370   6.554  17.186  0.00  0.00    +0.000 A 
ATOM     22  C   UNL     1       4.983   5.528  16.506  0.00  0.00    +0.000 A 
ATOM     23  N   UNL     1       4.574   4.248  16.569  0.00  0.00    +0.000 NA
ATOM     24  C   UNL     1       3.511   3.944  17.332  0.00  0.00    +0.000 A 
ATOM     25  C   UNL     1       3.102   2.618  17.381  0.00  0.00    +0.000 A 
ATOM     26  C   UNL     1       2.006   2.208  18.145  0.00  0.00    +0.000 A 
ATOM     27  C   UNL     1       1.293   3.142  18.877  0.00  0.00    +0.000 A 
ATOM     28  C   UNL     1       1.681   4.483  18.843  0.00  0.00    +0.000 A 
ATOM     29  C   UNL     1       2.797   4.907  18.077  0.00  0.00    +0.000 A 
ENDBRANCH  18  20
ENDBRANCH  17  18
ENDBRANCH  16  17
ENDBRANCH   1  16
TORSDOF 6
ENDMDL
MODEL 8
REMARK VINA RESULT:      -7.3      3.583      8.383
REMARK  Name = 
REMARK  8 active torsions:
REMARK  status: ('A' for Active; 'I' for Inactive)
REMARK    1  A    between atoms: C_1  and  N_2
REMARK    2  A    between atoms: C_3  and  N_4
REMARK    3  A    between atoms: C_5  and  C_6
REMARK    4  A    between atoms: C_6  and  C_8
REMARK    5  A    between atoms: C_8  and  O_9
REMARK    6  A    between atoms: O_9  and  C_10
REMARK    7  A    between atoms: C_10  and  C_12
REMARK    8  A    between atoms: N_24  and  C_25
REMARK                            x       y       z     vdW  Elec       q    Type
REMARK                         _______ _______ _______ _____ _____    ______ ____
ROOT
ATOM      1  C   UNL     1       0.830  10.324  19.029  0.00  0.00    +0.000 C 
ATOM      2  O   UNL     1       1.640  10.806  18.227  0.00  0.00    +0.000 OA
ENDROOT
BRANCH   1   6
ATOM      3  C   UNL     1      -3.807  11.487  17.527  0.00  0.00    +0.000 C 
ATOM      4  N   UNL     1      -2.720  11.527  18.501  0.00  0.00    +0.000 N 
ATOM      5  C   UNL     1      -1.506  10.870  18.296  0.00  0.00    +0.000 A 
ATOM      6  C   UNL     1      -0.531  10.968  19.237  0.00  0.00    +0.000 A 
ATOM      7  C   UNL     1      -0.802  11.762  20.466  0.00  0.00    +0.000 A 
ATOM      8  O   UNL     1       0.089  11.960  21.290  0.00  0.00    +0.000 OA
ATOM      9  N   UNL     1      -2.062  12.274  20.633  0.00  0.00    +0.000 N 
ATOM     10  C   UNL     1      -2.374  13.005  21.847  0.00  0.00    +0.000 C 
ATOM     11  C   UNL     1      -3.033  12.233  19.659  0.00  0.00    +0.000 A 
ATOM     12  O   UNL     1      -4.118  12.801  19.810  0.00  0.00    +0.000 OA
BRANCH   5  13
ATOM     13  N   UNL     1      -1.333  10.128  17.132  0.00  0.00    +0.000 N 
ATOM     14  H   UNL     1      -1.127   9.148  17.291  0.00  0.00    +0.000 HD
ATOM     15  H   UNL     1      -2.117  10.224  16.473  0.00  0.00    +0.000 HD
ENDBRANCH   5  13
ENDBRANCH   1   6
BRANCH   1  16
ATOM     16  C   UNL     1       1.210   9.104  19.877  0.00  0.00    +0.000 C 
BRANCH  16  17
ATOM     17  O   UNL     1       2.062   8.174  19.201  0.00  0.00    +0.000 OA
BRANCH  17  18
ATOM     18  C   UNL     1       2.158   6.966  19.808  0.00  0.00    +0.000 C 
ATOM     19  O   UNL     1       1.852   6.722  20.961  0.00  0.00    +0.000 OA
BRANCH  18  20
ATOM     20  C   UNL     1       2.715   5.984  18.845  0.00  0.00    +0.000 A 
ATOM     21  C   UNL     1       3.732   6.408  17.980  0.00  0.00    +0.000 A 
ATOM     22  C   UNL     1       4.262   5.485  17.110  0.00  0.00    +0.000 A 
ATOM     23  N   UNL     1       3.858   4.203  17.052  0.00  0.00    +0.000 NA
ATOM     24  C   UNL     1       2.885   3.792  17.884  0.00  0.00    +0.000 A 
ATOM     25  C   UNL     1       2.480   2.466  17.807  0.00  0.00    +0.000 A 
ATOM     26  C   UNL     1       1.475   1.949  18.629  0.00  0.00    +0.000 A 
ATOM     27  C   UNL     1       0.851   2.774  19.549  0.00  0.00    +0.000 A 
ATOM     28  C   UNL     1       1.237   4.112  19.645  0.00  0.00    +0.000 A 
ATOM     29  C   UNL     1       2.263   4.643  18.821  0.00  0.00    +0.000 A 
ENDBRANCH  18  20
ENDBRANCH  17  18
ENDBRANCH  16  17
ENDBRANCH   1  16
TORSDOF 6
ENDMDL
MODEL 9
REMARK VINA RESULT:      -7.3      3.243      8.277
REMARK  Name = 
REMARK  8 active torsions:
REMARK  status: ('A' for Active; 'I' for Inactive)
REMARK    1  A    between atoms: C_1  and  N_2
REMARK    2  A    between atoms: C_3  and  N_4
REMARK    3  A    between atoms: C_5  and  C_6
REMARK    4  A    between atoms: C_6  and  C_8
REMARK    5  A    between atoms: C_8  and  O_9
REMARK    6  A    between atoms: O_9  and  C_10
REMARK    7  A    between atoms: C_10  and  C_12
REMARK    8  A    between atoms: N_24  and  C_25
REMARK                            x       y       z     vdW  Elec       q    Type
REMARK                         _______ _______ _______ _____ _____    ______ ____
ROOT
ATOM      1  C   UNL     1       1.127   9.258  21.628  0.00  0.00    +0.000 C 
ATOM      2  O   UNL     1       1.950   9.296  22.551  0.00  0.00    +0.000 OA
ENDROOT
BRANCH   1   6
ATOM      3  C   UNL     1      -2.721  12.256  22.772  0.00  0.00    +0.000 C 
ATOM      4  N   UNL     1      -1.624  11.843  21.901  0.00  0.00    +0.000 N 
ATOM      5  C   UNL     1      -0.772  10.785  22.221  0.00  0.00    +0.000 A 
ATOM      6  C   UNL     1       0.215  10.442  21.353  0.00  0.00    +0.000 A 
ATOM      7  C   UNL     1       0.363  11.223  20.095  0.00  0.00    +0.000 A 
ATOM      8  O   UNL     1       1.175  10.879  19.238  0.00  0.00    +0.000 OA
ATOM      9  N   UNL     1      -0.445  12.316  19.922  0.00  0.00    +0.000 N 
ATOM     10  C   UNL     1      -0.287  13.131  18.730  0.00  0.00    +0.000 C 
ATOM     11  C   UNL     1      -1.486  12.632  20.763  0.00  0.00    +0.000 A 
ATOM     12  O   UNL     1      -2.257  13.562  20.511  0.00  0.00    +0.000 OA
BRANCH   5  13
ATOM     13  N   UNL     1      -0.957  10.115  23.427  0.00  0.00    +0.000 N 
ATOM     14  H   UNL     1      -0.205  10.247  24.095  0.00  0.00    +0.000 HD
ATOM     15  H   UNL     1      -1.864  10.322  23.866  0.00  0.00    +0.000 HD
ENDBRANCH   5  13
ENDBRANCH   1   6
BRANCH   1  16
ATOM     16  C   UNL     1       0.966   7.987  20.784  0.00  0.00    +0.000 C 
BRANCH  16  17
ATOM     17  O   UNL     1       2.183   7.256  20.605  0.00  0.00    +0.000 OA
BRANCH  17  18
ATOM     18  C   UNL     1       2.502   7.017  19.309  0.00  0.00    +0.000 C 
ATOM     19  O   UNL     1       2.141   7.679  18.353  0.00  0.00    +0.000 OA
BRANCH  18  20
ATOM     20  C   UNL     1       3.353   5.804  19.236  0.00  0.00    +0.000 A 
ATOM     21  C   UNL     1       4.744   5.970  19.223  0.00  0.00    +0.000 A 
ATOM     22  C   UNL     1       5.526   4.840  19.182  0.00  0.00    +0.000 A 
ATOM     23  N   UNL     1       5.024   3.591  19.161  0.00  0.00    +0.000 NA
ATOM     24  C   UNL     1       3.691   3.428  19.178  0.00  0.00    +0.000 A 
ATOM     25  C   UNL     1       3.193   2.133  19.153  0.00  0.00    +0.000 A 
ATOM     26  C   UNL     1       1.821   1.865  19.165  0.00  0.00    +0.000 A 
ATOM     27  C   UNL     1       0.919   2.914  19.199  0.00  0.00    +0.000 A 
ATOM     28  C   UNL     1       1.392   4.227  19.223  0.00  0.00    +0.000 A 
ATOM     29  C   UNL     1       2.783   4.508  19.219  0.00  0.00    +0.000 A 
ENDBRANCH  18  20
ENDBRANCH  17  18
ENDBRANCH  16  17
ENDBRANCH   1  16
TORSDOF 6
ENDMDL
