MODEL 1
REMARK VINA RESULT:      -8.6      0.000      0.000
REMARK  Name = 
REMARK  7 active torsions:
REMARK  status: ('A' for Active; 'I' for Inactive)
REMARK    1  A    between atoms: C_1  and  C_2
REMARK    2  A    between atoms: C_4  and  O_5
REMARK    3  A    between atoms: O_5  and  C_6
REMARK    4  A    between atoms: C_6  and  C_7
REMARK    5  A    between atoms: C_10  and  C_11
REMARK    6  A    between atoms: N_17  and  C_18
REMARK    7  A    between atoms: C_18  and  C_19
REMARK                            x       y       z     vdW  Elec       q    Type
REMARK                         _______ _______ _______ _____ _____    ______ ____
ROOT
ATOM      1  C   UNL     1       7.677   7.019  18.084  0.00  0.00    +0.000 C 
ATOM      2  O   UNL     1       8.247   6.772  19.143  0.00  0.00    +0.000 OA
ATOM      3  N   UNL     1       7.633   8.245  17.464  0.00  0.00    +0.000 N 
ATOM      4  C   UNL     1       8.265   9.370  17.912  0.00  0.00    +0.000 A 
ATOM      5  N   UNL     1       9.203   9.381  18.902  0.00  0.00    +0.000 NA
ATOM      6  C   UNL     1       9.522  10.647  19.022  0.00  0.00    +0.000 A 
ATOM      7  N   UNL     1       8.787  11.379  18.144  0.00  0.00    +0.000 N 
ATOM      8  N   UNL     1       7.999  10.577  17.395  0.00  0.00    +0.000 NA
ATOM      9  H   UNL     1       7.043   8.371  16.657  0.00  0.00    +0.000 HD
ENDROOT
BRANCH   1  13
ATOM     10  C   UNL     1       5.416   4.391  17.133  0.00  0.00    +0.000 A 
ATOM     11  C   UNL     1       6.013   4.563  15.900  0.00  0.00    +0.000 A 
ATOM     12  C   UNL     1       6.976   5.585  16.061  0.00  0.00    +0.000 A 
ATOM     13  C   UNL     1       6.921   5.989  17.384  0.00  0.00    +0.000 A 
ATOM     14  O   UNL     1       5.976   5.243  18.046  0.00  0.00    +0.000 OA
BRANCH  10  15
ATOM     15  C   UNL     1       4.332   3.490  17.614  0.00  0.00    +0.000 C 
BRANCH  15  16
ATOM     16  O   UNL     1       3.101   4.144  17.314  0.00  0.00    +0.000 OA
BRANCH  16  20
ATOM     17  C   UNL     1       2.150   8.966  18.177  0.00  0.00    +0.000 C 
ATOM     18  C   UNL     1       2.245   7.533  18.627  0.00  0.00    +0.000 A 
ATOM     19  C   UNL     1       2.639   6.538  17.709  0.00  0.00    +0.000 A 
ATOM     20  C   UNL     1       2.734   5.200  18.102  0.00  0.00    +0.000 A 
ATOM     21  C   UNL     1       2.434   4.853  19.422  0.00  0.00    +0.000 A 
ATOM     22  C   UNL     1       2.044   5.826  20.342  0.00  0.00    +0.000 A 
ATOM     23  C   UNL     1       1.950   7.160  19.947  0.00  0.00    +0.000 A 
ATOM     24 CL   UNL     1       1.461   8.320  21.130  0.00  0.00    +0.000 Cl
ENDBRANCH  16  20
ENDBRANCH  15  16
ENDBRANCH  10  15
ENDBRANCH   1  13
BRANCH   7  25
ATOM     25  C   UNL     1       8.636  12.826  18.134  0.00  0.00    +0.000 C 
BRANCH  25  26
ATOM     26  C   UNL     1       9.780  13.546  18.790  0.00  0.00    +0.000 A 
ATOM     27  C   UNL     1       9.629  14.012  20.104  0.00  0.00    +0.000 A 
ATOM     28  F   UNL     1       8.481  13.778  20.758  0.00  0.00    +0.000 F 
ATOM     29  C   UNL     1      10.627  14.737  20.751  0.00  0.00    +0.000 A 
ATOM     30  C   UNL     1      11.821  15.003  20.092  0.00  0.00    +0.000 A 
ATOM     31  C   UNL     1      12.006  14.535  18.790  0.00  0.00    +0.000 A 
ATOM     32  C   UNL     1      10.996  13.812  18.146  0.00  0.00    +0.000 A 
ATOM     33 CL   UNL     1      11.299  13.306  16.523  0.00  0.00    +0.000 Cl
ENDBRANCH  25  26
ENDBRANCH   7  25
TORSDOF 6
ENDMDL
MODEL 2
REMARK VINA RESULT:      -8.3      6.445      9.037
REMARK  Name = 
REMARK  7 active torsions:
REMARK  status: ('A' for Active; 'I' for Inactive)
REMARK    1  A    between atoms: C_1  and  C_2
REMARK    2  A    between atoms: C_4  and  O_5
REMARK    3  A    between atoms: O_5  and  C_6
REMARK    4  A    between atoms: C_6  and  C_7
REMARK    5  A    between atoms: C_10  and  C_11
REMARK    6  A    between atoms: N_17  and  C_18
REMARK    7  A    between atoms: C_18  and  C_19
REMARK                            x       y       z     vdW  Elec       q    Type
REMARK                         _______ _______ _______ _____ _____    ______ ____
ROOT
ATOM      1  C   UNL     1       2.166   5.791  20.333  0.00  0.00    +0.000 C 
ATOM      2  O   UNL     1       1.207   5.341  20.953  0.00  0.00    +0.000 OA
ATOM      3  N   UNL     1       2.325   7.100  19.942  0.00  0.00    +0.000 N 
ATOM      4  C   UNL     1       1.455   8.113  20.229  0.00  0.00    +0.000 A 
ATOM      5  N   UNL     1       0.434   8.015  21.129  0.00  0.00    +0.000 NA
ATOM      6  C   UNL     1      -0.148   9.189  21.075  0.00  0.00    +0.000 A 
ATOM      7  N   UNL     1       0.492   9.965  20.160  0.00  0.00    +0.000 N 
ATOM      8  N   UNL     1       1.547   9.307  19.630  0.00  0.00    +0.000 NA
ATOM      9  H   UNL     1       3.093   7.346  19.338  0.00  0.00    +0.000 HD
ENDROOT
BRANCH   1  13
ATOM     10  C   UNL     1       5.224   4.404  19.050  0.00  0.00    +0.000 A 
ATOM     11  C   UNL     1       4.638   3.214  19.429  0.00  0.00    +0.000 A 
ATOM     12  C   UNL     1       3.375   3.545  19.972  0.00  0.00    +0.000 A 
ATOM     13  C   UNL     1       3.251   4.922  19.900  0.00  0.00    +0.000 A 
ATOM     14  O   UNL     1       4.378   5.448  19.316  0.00  0.00    +0.000 OA
BRANCH  10  15
ATOM     15  C   UNL     1       6.540   4.732  18.435  0.00  0.00    +0.000 C 
BRANCH  15  16
ATOM     16  O   UNL     1       6.272   5.635  17.364  0.00  0.00    +0.000 OA
BRANCH  16  20
ATOM     17  C   UNL     1       8.123   5.371  12.738  0.00  0.00    +0.000 C 
ATOM     18  C   UNL     1       7.154   4.937  13.804  0.00  0.00    +0.000 A 
ATOM     19  C   UNL     1       7.210   5.529  15.082  0.00  0.00    +0.000 A 
ATOM     20  C   UNL     1       6.321   5.142  16.090  0.00  0.00    +0.000 A 
ATOM     21  C   UNL     1       5.369   4.156  15.818  0.00  0.00    +0.000 A 
ATOM     22  C   UNL     1       5.300   3.561  14.558  0.00  0.00    +0.000 A 
ATOM     23  C   UNL     1       6.188   3.949  13.555  0.00  0.00    +0.000 A 
ATOM     24 CL   UNL     1       6.055   3.176  12.016  0.00  0.00    +0.000 Cl
ENDBRANCH  16  20
ENDBRANCH  15  16
ENDBRANCH  10  15
ENDBRANCH   1  13
BRANCH   7  25
ATOM     25  C   UNL     1       0.016  11.222  19.604  0.00  0.00    +0.000 C 
BRANCH  25  26
ATOM     26  C   UNL     1      -1.320  11.103  18.926  0.00  0.00    +0.000 A 
ATOM     27  C   UNL     1      -1.444  10.265  17.809  0.00  0.00    +0.000 A 
ATOM     28  F   UNL     1      -0.380   9.563  17.389  0.00  0.00    +0.000 F 
ATOM     29  C   UNL     1      -2.637  10.151  17.098  0.00  0.00    +0.000 A 
ATOM     30  C   UNL     1      -3.752  10.875  17.505  0.00  0.00    +0.000 A 
ATOM     31  C   UNL     1      -3.660  11.704  18.625  0.00  0.00    +0.000 A 
ATOM     32  C   UNL     1      -2.457  11.814  19.330  0.00  0.00    +0.000 A 
ATOM     33 CL   UNL     1      -2.428  12.891  20.680  0.00  0.00    +0.000 Cl
ENDBRANCH  25  26
ENDBRANCH   7  25
TORSDOF 6
ENDMDL
MODEL 3
REMARK VINA RESULT:      -8.3      6.864     10.555
REMARK  Name = 
REMARK  7 active torsions:
REMARK  status: ('A' for Active; 'I' for Inactive)
REMARK    1  A    between atoms: C_1  and  C_2
REMARK    2  A    between atoms: C_4  and  O_5
REMARK    3  A    between atoms: O_5  and  C_6
REMARK    4  A    between atoms: C_6  and  C_7
REMARK    5  A    between atoms: C_10  and  C_11
REMARK    6  A    between atoms: N_17  and  C_18
REMARK    7  A    between atoms: C_18  and  C_19
REMARK                            x       y       z     vdW  Elec       q    Type
REMARK                         _______ _______ _______ _____ _____    ______ ____
ROOT
ATOM      1  C   UNL     1       0.798   9.833  20.039  0.00  0.00    +0.000 C 
ATOM      2  O   UNL     1       0.784  10.566  19.055  0.00  0.00    +0.000 OA
ATOM      3  N   UNL     1       1.414   8.606  20.116  0.00  0.00    +0.000 N 
ATOM      4  C   UNL     1       2.150   8.037  19.116  0.00  0.00    +0.000 A 
ATOM      5  N   UNL     1       2.564   8.699  17.997  0.00  0.00    +0.000 NA
ATOM      6  C   UNL     1       3.210   7.786  17.311  0.00  0.00    +0.000 A 
ATOM      7  N   UNL     1       3.172   6.608  17.988  0.00  0.00    +0.000 N 
ATOM      8  N   UNL     1       2.528   6.754  19.167  0.00  0.00    +0.000 NA
ATOM      9  H   UNL     1       1.271   8.030  20.930  0.00  0.00    +0.000 HD
ENDROOT
BRANCH   1  13
ATOM     10  C   UNL     1      -0.954  11.537  22.675  0.00  0.00    +0.000 A 
ATOM     11  C   UNL     1      -0.994  10.272  23.227  0.00  0.00    +0.000 A 
ATOM     12  C   UNL     1      -0.328   9.418  22.319  0.00  0.00    +0.000 A 
ATOM     13  C   UNL     1       0.087  10.201  21.256  0.00  0.00    +0.000 A 
ATOM     14  O   UNL     1      -0.281  11.505  21.483  0.00  0.00    +0.000 OA
BRANCH  10  15
ATOM     15  C   UNL     1      -1.483  12.853  23.126  0.00  0.00    +0.000 C 
BRANCH  15  16
ATOM     16  O   UNL     1      -1.973  13.512  21.961  0.00  0.00    +0.000 OA
BRANCH  16  20
ATOM     17  C   UNL     1      -5.086  11.943  18.390  0.00  0.00    +0.000 C 
ATOM     18  C   UNL     1      -4.799  12.362  19.806  0.00  0.00    +0.000 A 
ATOM     19  C   UNL     1      -3.489  12.736  20.171  0.00  0.00    +0.000 A 
ATOM     20  C   UNL     1      -3.195  13.128  21.481  0.00  0.00    +0.000 A 
ATOM     21  C   UNL     1      -4.217  13.147  22.433  0.00  0.00    +0.000 A 
ATOM     22  C   UNL     1      -5.518  12.780  22.087  0.00  0.00    +0.000 A 
ATOM     23  C   UNL     1      -5.809  12.390  20.781  0.00  0.00    +0.000 A 
ATOM     24 CL   UNL     1      -7.437  11.946  20.413  0.00  0.00    +0.000 Cl
ENDBRANCH  16  20
ENDBRANCH  15  16
ENDBRANCH  10  15
ENDBRANCH   1  13
BRANCH   7  25
ATOM     25  C   UNL     1       3.527   5.297  17.467  0.00  0.00    +0.000 C 
BRANCH  25  26
ATOM     26  C   UNL     1       2.903   4.165  18.233  0.00  0.00    +0.000 A 
ATOM     27  C   UNL     1       1.544   3.876  18.036  0.00  0.00    +0.000 A 
ATOM     28  F   UNL     1       0.841   4.592  17.146  0.00  0.00    +0.000 F 
ATOM     29  C   UNL     1       0.888   2.880  18.755  0.00  0.00    +0.000 A 
ATOM     30  C   UNL     1       1.591   2.131  19.692  0.00  0.00    +0.000 A 
ATOM     31  C   UNL     1       2.948   2.386  19.896  0.00  0.00    +0.000 A 
ATOM     32  C   UNL     1       3.598   3.391  19.172  0.00  0.00    +0.000 A 
ATOM     33 CL   UNL     1       5.268   3.660  19.517  0.00  0.00    +0.000 Cl
ENDBRANCH  25  26
ENDBRANCH   7  25
TORSDOF 6
ENDMDL
MODEL 4
REMARK VINA RESULT:      -8.2      6.405      9.544
REMARK  Name = 
REMARK  7 active torsions:
REMARK  status: ('A' for Active; 'I' for Inactive)
REMARK    1  A    between atoms: C_1  and  C_2
REMARK    2  A    between atoms: C_4  and  O_5
REMARK    3  A    between atoms: O_5  and  C_6
REMARK    4  A    between atoms: C_6  and  C_7
REMARK    5  A    between atoms: C_10  and  C_11
REMARK    6  A    between atoms: N_17  and  C_18
REMARK    7  A    between atoms: C_18  and  C_19
REMARK                            x       y       z     vdW  Elec       q    Type
REMARK                         _______ _______ _______ _____ _____    ______ ____
ROOT
ATOM      1  C   UNL     1       0.957   8.370  20.698  0.00  0.00    +0.000 C 
ATOM      2  O   UNL     1       0.454   7.733  21.619  0.00  0.00    +0.000 OA
ATOM      3  N   UNL     1       1.934   7.912  19.847  0.00  0.00    +0.000 N 
ATOM      4  C   UNL     1       2.461   6.652  19.867  0.00  0.00    +0.000 A 
ATOM      5  N   UNL     1       1.936   5.613  20.579  0.00  0.00    +0.000 NA
ATOM      6  C   UNL     1       2.753   4.617  20.332  0.00  0.00    +0.000 A 
ATOM      7  N   UNL     1       3.748   5.046  19.511  0.00  0.00    +0.000 N 
ATOM      8  N   UNL     1       3.561   6.340  19.171  0.00  0.00    +0.000 NA
ATOM      9  H   UNL     1       2.363   8.550  19.195  0.00  0.00    +0.000 HD
ENDROOT
BRANCH   1  13
ATOM     10  C   UNL     1      -0.598  11.407  19.567  0.00  0.00    +0.000 A 
ATOM     11  C   UNL     1       0.328  11.989  20.409  0.00  0.00    +0.000 A 
ATOM     12  C   UNL     1       1.077  10.929  20.972  0.00  0.00    +0.000 A 
ATOM     13  C   UNL     1       0.572   9.753  20.447  0.00  0.00    +0.000 A 
ATOM     14  O   UNL     1      -0.444  10.047  19.571  0.00  0.00    +0.000 OA
BRANCH  10  15
ATOM     15  C   UNL     1      -1.673  11.971  18.704  0.00  0.00    +0.000 C 
BRANCH  15  16
ATOM     16  O   UNL     1      -2.413  12.876  19.521  0.00  0.00    +0.000 OA
BRANCH  16  20
ATOM     17  C   UNL     1      -6.946  11.115  18.402  0.00  0.00    +0.000 C 
ATOM     18  C   UNL     1      -5.958  11.713  19.367  0.00  0.00    +0.000 A 
ATOM     19  C   UNL     1      -4.647  11.999  18.936  0.00  0.00    +0.000 A 
ATOM     20  C   UNL     1      -3.709  12.553  19.813  0.00  0.00    +0.000 A 
ATOM     21  C   UNL     1      -4.085  12.824  21.131  0.00  0.00    +0.000 A 
ATOM     22  C   UNL     1      -5.379  12.546  21.573  0.00  0.00    +0.000 A 
ATOM     23  C   UNL     1      -6.311  11.993  20.696  0.00  0.00    +0.000 A 
ATOM     24 CL   UNL     1      -7.897  11.671  21.301  0.00  0.00    +0.000 Cl
ENDBRANCH  16  20
ENDBRANCH  15  16
ENDBRANCH  10  15
ENDBRANCH   1  13
BRANCH   7  25
ATOM     25  C   UNL     1       4.988   4.347  19.212  0.00  0.00    +0.000 C 
BRANCH  25  26
ATOM     26  C   UNL     1       5.512   4.634  17.833  0.00  0.00    +0.000 A 
ATOM     27  C   UNL     1       4.835   4.108  16.723  0.00  0.00    +0.000 A 
ATOM     28  F   UNL     1       3.717   3.391  16.913  0.00  0.00    +0.000 F 
ATOM     29  C   UNL     1       5.297   4.287  15.422  0.00  0.00    +0.000 A 
ATOM     30  C   UNL     1       6.459   5.017  15.198  0.00  0.00    +0.000 A 
ATOM     31  C   UNL     1       7.144   5.566  16.284  0.00  0.00    +0.000 A 
ATOM     32  C   UNL     1       6.673   5.378  17.588  0.00  0.00    +0.000 A 
ATOM     33 CL   UNL     1       7.605   6.063  18.870  0.00  0.00    +0.000 Cl
ENDBRANCH  25  26
ENDBRANCH   7  25
TORSDOF 6
ENDMDL
MODEL 5
REMARK VINA RESULT:      -8.1      6.393      9.453
REMARK  Name = 
REMARK  7 active torsions:
REMARK  status: ('A' for Active; 'I' for Inactive)
REMARK    1  A    between atoms: C_1  and  C_2
REMARK    2  A    between atoms: C_4  and  O_5
REMARK    3  A    between atoms: O_5  and  C_6
REMARK    4  A    between atoms: C_6  and  C_7
REMARK    5  A    between atoms: C_10  and  C_11
REMARK    6  A    between atoms: N_17  and  C_18
REMARK    7  A    between atoms: C_18  and  C_19
REMARK                            x       y       z     vdW  Elec       q    Type
REMARK                         _______ _______ _______ _____ _____    ______ ____
ROOT
ATOM      1  C   UNL     1       1.107   8.576  20.288  0.00  0.00    +0.000 C 
ATOM      2  O   UNL     1       0.705   8.159  21.370  0.00  0.00    +0.000 OA
ATOM      3  N   UNL     1       1.976   7.919  19.449  0.00  0.00    +0.000 N 
ATOM      4  C   UNL     1       2.487   6.673  19.673  0.00  0.00    +0.000 A 
ATOM      5  N   UNL     1       2.034   5.820  20.637  0.00  0.00    +0.000 NA
ATOM      6  C   UNL     1       2.806   4.767  20.515  0.00  0.00    +0.000 A 
ATOM      7  N   UNL     1       3.706   4.984  19.520  0.00  0.00    +0.000 N 
ATOM      8  N   UNL     1       3.497   6.187  18.941  0.00  0.00    +0.000 NA
ATOM      9  H   UNL     1       2.335   8.395  18.637  0.00  0.00    +0.000 HD
ENDROOT
BRANCH   1  13
ATOM     10  C   UNL     1      -0.674  11.483  19.148  0.00  0.00    +0.000 A 
ATOM     11  C   UNL     1       0.595  12.021  19.088  0.00  0.00    +0.000 A 
ATOM     12  C   UNL     1       1.482  11.002  19.504  0.00  0.00    +0.000 A 
ATOM     13  C   UNL     1       0.712   9.890  19.799  0.00  0.00    +0.000 A 
ATOM     14  O   UNL     1      -0.610  10.180  19.564  0.00  0.00    +0.000 OA
BRANCH  10  15
ATOM     15  C   UNL     1      -2.023  12.041  18.856  0.00  0.00    +0.000 C 
BRANCH  15  16
ATOM     16  O   UNL     1      -2.185  13.173  19.708  0.00  0.00    +0.000 OA
BRANCH  16  20
ATOM     17  C   UNL     1      -6.287  12.913  22.538  0.00  0.00    +0.000 C 
ATOM     18  C   UNL     1      -4.794  12.842  22.359  0.00  0.00    +0.000 A 
ATOM     19  C   UNL     1      -4.234  13.052  21.082  0.00  0.00    +0.000 A 
ATOM     20  C   UNL     1      -2.850  12.990  20.889  0.00  0.00    +0.000 A 
ATOM     21  C   UNL     1      -2.021  12.715  21.979  0.00  0.00    +0.000 A 
ATOM     22  C   UNL     1      -2.560  12.505  23.248  0.00  0.00    +0.000 A 
ATOM     23  C   UNL     1      -3.940  12.568  23.438  0.00  0.00    +0.000 A 
ATOM     24 CL   UNL     1      -4.549  12.298  25.032  0.00  0.00    +0.000 Cl
ENDBRANCH  16  20
ENDBRANCH  15  16
ENDBRANCH  10  15
ENDBRANCH   1  13
BRANCH   7  25
ATOM     25  C   UNL     1       4.896   4.196  19.239  0.00  0.00    +0.000 C 
BRANCH  25  26
ATOM     26  C   UNL     1       5.472   4.457  17.876  0.00  0.00    +0.000 A 
ATOM     27  C   UNL     1       4.808   3.955  16.747  0.00  0.00    +0.000 A 
ATOM     28  F   UNL     1       3.657   3.283  16.905  0.00  0.00    +0.000 F 
ATOM     29  C   UNL     1       5.315   4.111  15.460  0.00  0.00    +0.000 A 
ATOM     30  C   UNL     1       6.511   4.794  15.270  0.00  0.00    +0.000 A 
ATOM     31  C   UNL     1       7.185   5.319  16.374  0.00  0.00    +0.000 A 
ATOM     32  C   UNL     1       6.669   5.154  17.664  0.00  0.00    +0.000 A 
ATOM     33 CL   UNL     1       7.589   5.806  18.972  0.00  0.00    +0.000 Cl
ENDBRANCH  25  26
ENDBRANCH   7  25
TORSDOF 6
ENDMDL
MODEL 6
REMARK VINA RESULT:      -8.1      6.455      9.702
REMARK  Name = 
REMARK  7 active torsions:
REMARK  status: ('A' for Active; 'I' for Inactive)
REMARK    1  A    between atoms: C_1  and  C_2
REMARK    2  A    between atoms: C_4  and  O_5
REMARK    3  A    between atoms: O_5  and  C_6
REMARK    4  A    between atoms: C_6  and  C_7
REMARK    5  A    between atoms: C_10  and  C_11
REMARK    6  A    between atoms: N_17  and  C_18
REMARK    7  A    between atoms: C_18  and  C_19
REMARK                            x       y       z     vdW  Elec       q    Type
REMARK                         _______ _______ _______ _____ _____    ______ ____
ROOT
ATOM      1  C   UNL     1       1.112   8.796  20.237  0.00  0.00    +0.000 C 
ATOM      2  O   UNL     1       0.654   8.424  21.314  0.00  0.00    +0.000 OA
ATOM      3  N   UNL     1       1.945   8.064  19.425  0.00  0.00    +0.000 N 
ATOM      4  C   UNL     1       2.352   6.784  19.673  0.00  0.00    +0.000 A 
ATOM      5  N   UNL     1       1.812   5.980  20.634  0.00  0.00    +0.000 NA
ATOM      6  C   UNL     1       2.501   4.869  20.540  0.00  0.00    +0.000 A 
ATOM      7  N   UNL     1       3.438   5.003  19.564  0.00  0.00    +0.000 N 
ATOM      8  N   UNL     1       3.337   6.212  18.969  0.00  0.00    +0.000 NA
ATOM      9  H   UNL     1       2.359   8.502  18.617  0.00  0.00    +0.000 HD
ENDROOT
BRANCH   1  13
ATOM     10  C   UNL     1      -0.176  12.094  19.617  0.00  0.00    +0.000 A 
ATOM     11  C   UNL     1       0.799  12.101  18.641  0.00  0.00    +0.000 A 
ATOM     12  C   UNL     1       1.444  10.845  18.711  0.00  0.00    +0.000 A 
ATOM     13  C   UNL     1       0.832  10.132  19.727  0.00  0.00    +0.000 A 
ATOM     14  O   UNL     1      -0.174  10.892  20.271  0.00  0.00    +0.000 OA
BRANCH  10  15
ATOM     15  C   UNL     1      -1.174  13.109  20.056  0.00  0.00    +0.000 C 
BRANCH  15  16
ATOM     16  O   UNL     1      -1.770  12.600  21.247  0.00  0.00    +0.000 OA
BRANCH  16  20
ATOM     17  C   UNL     1      -6.007  13.035  23.846  0.00  0.00    +0.000 C 
ATOM     18  C   UNL     1      -5.256  12.909  22.548  0.00  0.00    +0.000 A 
ATOM     19  C   UNL     1      -3.850  12.815  22.562  0.00  0.00    +0.000 A 
ATOM     20  C   UNL     1      -3.128  12.698  21.370  0.00  0.00    +0.000 A 
ATOM     21  C   UNL     1      -3.818  12.676  20.155  0.00  0.00    +0.000 A 
ATOM     22  C   UNL     1      -5.209  12.768  20.124  0.00  0.00    +0.000 A 
ATOM     23  C   UNL     1      -5.926  12.884  21.315  0.00  0.00    +0.000 A 
ATOM     24 CL   UNL     1      -7.647  12.995  21.214  0.00  0.00    +0.000 Cl
ENDBRANCH  16  20
ENDBRANCH  15  16
ENDBRANCH  10  15
ENDBRANCH   1  13
BRANCH   7  25
ATOM     25  C   UNL     1       4.568   4.121  19.319  0.00  0.00    +0.000 C 
BRANCH  25  26
ATOM     26  C   UNL     1       5.278   4.414  18.027  0.00  0.00    +0.000 A 
ATOM     27  C   UNL     1       4.696   4.001  16.820  0.00  0.00    +0.000 A 
ATOM     28  F   UNL     1       3.504   3.385  16.840  0.00  0.00    +0.000 F 
ATOM     29  C   UNL     1       5.326   4.188  15.592  0.00  0.00    +0.000 A 
ATOM     30  C   UNL     1       6.567   4.813  15.544  0.00  0.00    +0.000 A 
ATOM     31  C   UNL     1       7.162   5.250  16.729  0.00  0.00    +0.000 A 
ATOM     32  C   UNL     1       6.523   5.054  17.958  0.00  0.00    +0.000 A 
ATOM     33 CL   UNL     1       7.350   5.594  19.374  0.00  0.00    +0.000 Cl
ENDBRANCH  25  26
ENDBRANCH   7  25
TORSDOF 6
ENDMDL
MODEL 7
REMARK VINA RESULT:      -8.1      6.569      9.753
REMARK  Name = 
REMARK  7 active torsions:
REMARK  status: ('A' for Active; 'I' for Inactive)
REMARK    1  A    between atoms: C_1  and  C_2
REMARK    2  A    between atoms: C_4  and  O_5
REMARK    3  A    between atoms: O_5  and  C_6
REMARK    4  A    between atoms: C_6  and  C_7
REMARK    5  A    between atoms: C_10  and  C_11
REMARK    6  A    between atoms: N_17  and  C_18
REMARK    7  A    between atoms: C_18  and  C_19
REMARK                            x       y       z     vdW  Elec       q    Type
REMARK                         _______ _______ _______ _____ _____    ______ ____
ROOT
ATOM      1  C   UNL     1       0.941   8.716  20.331  0.00  0.00    +0.000 C 
ATOM      2  O   UNL     1       0.437   8.302  21.371  0.00  0.00    +0.000 OA
ATOM      3  N   UNL     1       1.847   8.035  19.552  0.00  0.00    +0.000 N 
ATOM      4  C   UNL     1       2.287   6.765  19.795  0.00  0.00    +0.000 A 
ATOM      5  N   UNL     1       1.724   5.919  20.705  0.00  0.00    +0.000 NA
ATOM      6  C   UNL     1       2.459   4.836  20.627  0.00  0.00    +0.000 A 
ATOM      7  N   UNL     1       3.444   5.028  19.710  0.00  0.00    +0.000 N 
ATOM      8  N   UNL     1       3.331   6.247  19.137  0.00  0.00    +0.000 NA
ATOM      9  H   UNL     1       2.289   8.506  18.779  0.00  0.00    +0.000 HD
ENDROOT
BRANCH   1  13
ATOM     10  C   UNL     1      -0.408  11.994  19.736  0.00  0.00    +0.000 A 
ATOM     11  C   UNL     1       0.581  12.036  18.774  0.00  0.00    +0.000 A 
ATOM     12  C   UNL     1       1.251  10.793  18.837  0.00  0.00    +0.000 A 
ATOM     13  C   UNL     1       0.641  10.052  19.835  0.00  0.00    +0.000 A 
ATOM     14  O   UNL     1      -0.390  10.783  20.374  0.00  0.00    +0.000 OA
BRANCH  10  15
ATOM     15  C   UNL     1      -1.433  12.982  20.175  0.00  0.00    +0.000 C 
BRANCH  15  16
ATOM     16  O   UNL     1      -1.611  12.784  21.575  0.00  0.00    +0.000 OA
BRANCH  16  20
ATOM     17  C   UNL     1      -6.575  12.980  21.105  0.00  0.00    +0.000 C 
ATOM     18  C   UNL     1      -5.326  12.886  21.939  0.00  0.00    +0.000 A 
ATOM     19  C   UNL     1      -4.065  12.884  21.309  0.00  0.00    +0.000 A 
ATOM     20  C   UNL     1      -2.889  12.796  22.061  0.00  0.00    +0.000 A 
ATOM     21  C   UNL     1      -2.975  12.710  23.453  0.00  0.00    +0.000 A 
ATOM     22  C   UNL     1      -4.216  12.712  24.091  0.00  0.00    +0.000 A 
ATOM     23  C   UNL     1      -5.386  12.799  23.338  0.00  0.00    +0.000 A 
ATOM     24 CL   UNL     1      -6.893  12.795  24.184  0.00  0.00    +0.000 Cl
ENDBRANCH  16  20
ENDBRANCH  15  16
ENDBRANCH  10  15
ENDBRANCH   1  13
BRANCH   7  25
ATOM     25  C   UNL     1       4.619   4.195  19.511  0.00  0.00    +0.000 C 
BRANCH  25  26
ATOM     26  C   UNL     1       5.228   4.345  18.146  0.00  0.00    +0.000 A 
ATOM     27  C   UNL     1       6.512   4.898  18.029  0.00  0.00    +0.000 A 
ATOM     28  F   UNL     1       7.182   5.248  19.138  0.00  0.00    +0.000 F 
ATOM     29  C   UNL     1       7.114   5.118  16.792  0.00  0.00    +0.000 A 
ATOM     30  C   UNL     1       6.437   4.774  15.627  0.00  0.00    +0.000 A 
ATOM     31  C   UNL     1       5.165   4.207  15.715  0.00  0.00    +0.000 A 
ATOM     32  C   UNL     1       4.568   3.992  16.962  0.00  0.00    +0.000 A 
ATOM     33 CL   UNL     1       2.977   3.319  16.971  0.00  0.00    +0.000 Cl
ENDBRANCH  25  26
ENDBRANCH   7  25
TORSDOF 6
ENDMDL
MODEL 8
REMARK VINA RESULT:      -8.1      6.706      9.525
REMARK  Name = 
REMARK  7 active torsions:
REMARK  status: ('A' for Active; 'I' for Inactive)
REMARK    1  A    between atoms: C_1  and  C_2
REMARK    2  A    between atoms: C_4  and  O_5
REMARK    3  A    between atoms: O_5  and  C_6
REMARK    4  A    between atoms: C_6  and  C_7
REMARK    5  A    between atoms: C_10  and  C_11
REMARK    6  A    between atoms: N_17  and  C_18
REMARK    7  A    between atoms: C_18  and  C_19
REMARK                            x       y       z     vdW  Elec       q    Type
REMARK                         _______ _______ _______ _____ _____    ______ ____
ROOT
ATOM      1  C   UNL     1       0.937   8.428  20.802  0.00  0.00    +0.000 C 
ATOM      2  O   UNL     1       0.345   7.821  21.690  0.00  0.00    +0.000 OA
ATOM      3  N   UNL     1       1.915   7.906  19.989  0.00  0.00    +0.000 N 
ATOM      4  C   UNL     1       2.343   6.609  20.015  0.00  0.00    +0.000 A 
ATOM      5  N   UNL     1       1.708   5.605  20.686  0.00  0.00    +0.000 NA
ATOM      6  C   UNL     1       2.457   4.552  20.462  0.00  0.00    +0.000 A 
ATOM      7  N   UNL     1       3.519   4.913  19.694  0.00  0.00    +0.000 N 
ATOM      8  N   UNL     1       3.447   6.222  19.364  0.00  0.00    +0.000 NA
ATOM      9  H   UNL     1       2.421   8.517  19.367  0.00  0.00    +0.000 HD
ENDROOT
BRANCH   1  13
ATOM     10  C   UNL     1      -0.063  11.602  19.445  0.00  0.00    +0.000 A 
ATOM     11  C   UNL     1       0.436  12.074  20.642  0.00  0.00    +0.000 A 
ATOM     12  C   UNL     1       0.906  10.945  21.351  0.00  0.00    +0.000 A 
ATOM     13  C   UNL     1       0.670   9.839  20.554  0.00  0.00    +0.000 A 
ATOM     14  O   UNL     1       0.092  10.244  19.376  0.00  0.00    +0.000 OA
BRANCH  10  15
ATOM     15  C   UNL     1      -0.703  12.277  18.282  0.00  0.00    +0.000 C 
BRANCH  15  16
ATOM     16  O   UNL     1      -1.660  11.358  17.759  0.00  0.00    +0.000 OA
BRANCH  16  20
ATOM     17  C   UNL     1      -5.459  12.775  20.668  0.00  0.00    +0.000 C 
ATOM     18  C   UNL     1      -4.907  12.271  19.362  0.00  0.00    +0.000 A 
ATOM     19  C   UNL     1      -3.519  12.064  19.224  0.00  0.00    +0.000 A 
ATOM     20  C   UNL     1      -2.981  11.598  18.021  0.00  0.00    +0.000 A 
ATOM     21  C   UNL     1      -3.835  11.335  16.948  0.00  0.00    +0.000 A 
ATOM     22  C   UNL     1      -5.211  11.534  17.068  0.00  0.00    +0.000 A 
ATOM     23  C   UNL     1      -5.745  12.000  18.269  0.00  0.00    +0.000 A 
ATOM     24 CL   UNL     1      -7.455  12.228  18.359  0.00  0.00    +0.000 Cl
ENDBRANCH  16  20
ENDBRANCH  15  16
ENDBRANCH  10  15
ENDBRANCH   1  13
BRANCH   7  25
ATOM     25  C   UNL     1       4.714   4.124  19.441  0.00  0.00    +0.000 C 
BRANCH  25  26
ATOM     26  C   UNL     1       5.220   4.250  18.031  0.00  0.00    +0.000 A 
ATOM     27  C   UNL     1       6.524   4.719  17.814  0.00  0.00    +0.000 A 
ATOM     28  F   UNL     1       7.302   5.013  18.866  0.00  0.00    +0.000 F 
ATOM     29  C   UNL     1       7.036   4.913  16.534  0.00  0.00    +0.000 A 
ATOM     30  C   UNL     1       6.247   4.627  15.426  0.00  0.00    +0.000 A 
ATOM     31  C   UNL     1       4.951   4.142  15.613  0.00  0.00    +0.000 A 
ATOM     32  C   UNL     1       4.444   3.953  16.903  0.00  0.00    +0.000 A 
ATOM     33 CL   UNL     1       2.819   3.385  17.038  0.00  0.00    +0.000 Cl
ENDBRANCH  25  26
ENDBRANCH   7  25
TORSDOF 6
ENDMDL
MODEL 9
REMARK VINA RESULT:      -8.1      6.510      9.565
REMARK  Name = 
REMARK  7 active torsions:
REMARK  status: ('A' for Active; 'I' for Inactive)
REMARK    1  A    between atoms: C_1  and  C_2
REMARK    2  A    between atoms: C_4  and  O_5
REMARK    3  A    between atoms: O_5  and  C_6
REMARK    4  A    between atoms: C_6  and  C_7
REMARK    5  A    between atoms: C_10  and  C_11
REMARK    6  A    between atoms: N_17  and  C_18
REMARK    7  A    between atoms: C_18  and  C_19
REMARK                            x       y       z     vdW  Elec       q    Type
REMARK                         _______ _______ _______ _____ _____    ______ ____
ROOT
ATOM      1  C   UNL     1       1.024   8.731  20.608  0.00  0.00    +0.000 C 
ATOM      2  O   UNL     1       0.464   8.255  21.591  0.00  0.00    +0.000 OA
ATOM      3  N   UNL     1       1.925   8.075  19.803  0.00  0.00    +0.000 N 
ATOM      4  C   UNL     1       2.297   6.769  19.948  0.00  0.00    +0.000 A 
ATOM      5  N   UNL     1       1.662   5.877  20.763  0.00  0.00    +0.000 NA
ATOM      6  C   UNL     1       2.349   4.770  20.615  0.00  0.00    +0.000 A 
ATOM      7  N   UNL     1       3.375   4.992  19.750  0.00  0.00    +0.000 N 
ATOM      8  N   UNL     1       3.339   6.259  19.282  0.00  0.00    +0.000 NA
ATOM      9  H   UNL     1       2.416   8.589  19.088  0.00  0.00    +0.000 HD
ENDROOT
BRANCH   1  13
ATOM     10  C   UNL     1       0.843  12.317  20.431  0.00  0.00    +0.000 A 
ATOM     11  C   UNL     1       0.312  12.054  19.184  0.00  0.00    +0.000 A 
ATOM     12  C   UNL     1       0.287  10.647  19.050  0.00  0.00    +0.000 A 
ATOM     13  C   UNL     1       0.803  10.118  20.220  0.00  0.00    +0.000 A 
ATOM     14  O   UNL     1       1.128  11.143  21.075  0.00  0.00    +0.000 OA
BRANCH  10  15
ATOM     15  C   UNL     1       1.142  13.584  21.155  0.00  0.00    +0.000 C 
BRANCH  15  16
ATOM     16  O   UNL     1       0.441  13.514  22.395  0.00  0.00    +0.000 OA
BRANCH  16  20
ATOM     17  C   UNL     1      -4.039  15.237  21.031  0.00  0.00    +0.000 C 
ATOM     18  C   UNL     1      -3.163  14.238  21.737  0.00  0.00    +0.000 A 
ATOM     19  C   UNL     1      -1.762  14.393  21.705  0.00  0.00    +0.000 A 
ATOM     20  C   UNL     1      -0.925  13.478  22.352  0.00  0.00    +0.000 A 
ATOM     21  C   UNL     1      -1.493  12.401  23.036  0.00  0.00    +0.000 A 
ATOM     22  C   UNL     1      -2.878  12.234  23.078  0.00  0.00    +0.000 A 
ATOM     23  C   UNL     1      -3.709  13.148  22.432  0.00  0.00    +0.000 A 
ATOM     24 CL   UNL     1      -5.415  12.889  22.518  0.00  0.00    +0.000 Cl
ENDBRANCH  16  20
ENDBRANCH  15  16
ENDBRANCH  10  15
ENDBRANCH   1  13
BRANCH   7  25
ATOM     25  C   UNL     1       4.517   4.121  19.518  0.00  0.00    +0.000 C 
BRANCH  25  26
ATOM     26  C   UNL     1       5.140   4.311  18.164  0.00  0.00    +0.000 A 
ATOM     27  C   UNL     1       6.407   4.907  18.074  0.00  0.00    +0.000 A 
ATOM     28  F   UNL     1       7.048   5.264  19.197  0.00  0.00    +0.000 F 
ATOM     29  C   UNL     1       7.018   5.164  16.849  0.00  0.00    +0.000 A 
ATOM     30  C   UNL     1       6.370   4.814  15.670  0.00  0.00    +0.000 A 
ATOM     31  C   UNL     1       5.116   4.203  15.731  0.00  0.00    +0.000 A 
ATOM     32  C   UNL     1       4.509   3.952  16.966  0.00  0.00    +0.000 A 
ATOM     33 CL   UNL     1       2.942   3.227  16.942  0.00  0.00    +0.000 Cl
ENDBRANCH  25  26
ENDBRANCH   7  25
TORSDOF 6
ENDMDL
