MODEL 1
REMARK VINA RESULT:      -7.5      0.000      0.000
REMARK  Name = 
REMARK  7 active torsions:
REMARK  status: ('A' for Active; 'I' for Inactive)
REMARK    1  A    between atoms: C_2  and  O_3
REMARK    2  A    between atoms: C_2  and  C_4
REMARK    3  A    between atoms: C_5  and  C_6
REMARK    4  A    between atoms: N_8  and  C_9
REMARK    5  A    between atoms: C_12  and  C_13
REMARK    6  A    between atoms: C_16  and  C_17
REMARK    7  A    between atoms: C_19  and  C_20
REMARK                            x       y       z     vdW  Elec       q    Type
REMARK                         _______ _______ _______ _____ _____    ______ ____
ROOT
ATOM      1  C   UNL     1       3.526   5.872  17.904  0.00  0.00    +0.000 A 
ATOM      2  S   UNL     1       2.358   4.668  17.645  0.00  0.00    +0.000 S 
ATOM      3  C   UNL     1       3.434   3.784  16.652  0.00  0.00    +0.000 A 
ATOM      4  C   UNL     1       4.714   4.304  16.680  0.00  0.00    +0.000 A 
ATOM      5  C   UNL     1       4.782   5.520  17.448  0.00  0.00    +0.000 A 
ENDROOT
BRANCH   5   6
ATOM      6  C   UNL     1       6.013   6.299  17.808  0.00  0.00    +0.000 A 
ATOM      7  N   UNL     1       6.366   7.434  17.237  0.00  0.00    +0.000 NA
ATOM      8  C   UNL     1       7.557   7.726  17.835  0.00  0.00    +0.000 A 
ATOM      9  N   UNL     1       7.977   6.833  18.733  0.00  0.00    +0.000 NA
ATOM     10  O   UNL     1       6.958   5.880  18.718  0.00  0.00    +0.000 OA
BRANCH   8  11
ATOM     11  C   UNL     1       8.351   8.972  17.491  0.00  0.00    +0.000 C 
ATOM     12  C   UNL     1       7.810  10.311  17.958  0.00  0.00    +0.000 C 
ATOM     13  C   UNL     1       9.012   9.732  18.624  0.00  0.00    +0.000 C 
ENDBRANCH   8  11
ENDBRANCH   5   6
BRANCH   1  16
ATOM     14  C   UNL     1       2.221   6.878  19.645  0.00  0.00    +0.000 C 
ATOM     15  O   UNL     1       2.025   5.843  20.274  0.00  0.00    +0.000 OA
ATOM     16  N   UNL     1       3.028   6.986  18.539  0.00  0.00    +0.000 N 
ATOM     17  H   UNL     1       3.390   7.881  18.244  0.00  0.00    +0.000 HD
BRANCH  14  19
ATOM     18  C   UNL     1       1.281   9.273  19.542  0.00  0.00    +0.000 C 
ATOM     19  C   UNL     1       1.692   8.161  20.182  0.00  0.00    +0.000 C 
ATOM     20  C   UNL     1       1.443   8.245  21.660  0.00  0.00    +0.000 C 
ATOM     21  C   UNL     1       1.041   9.698  21.882  0.00  0.00    +0.000 C 
ATOM     22  C   UNL     1       0.735  10.282  20.506  0.00  0.00    +0.000 C 
BRANCH  18  24
ATOM     23  O   UNL     1       2.177   9.408  17.334  0.00  0.00    +0.000 OA
ATOM     24  C   UNL     1       1.216   9.468  18.082  0.00  0.00    +0.000 C 
BRANCH  24  25
ATOM     25  O   UNL     1      -0.015   9.766  17.627  0.00  0.00    +0.000 OA
ATOM     26  H   UNL     1      -0.281   9.372  16.783  0.00  0.00    +0.000 HD
ENDBRANCH  24  25
ENDBRANCH  18  24
ENDBRANCH  14  19
ENDBRANCH   1  16
BRANCH   4  27
ATOM     27  C   UNL     1       5.904   3.644  15.973  0.00  0.00    +0.000 C 
ATOM     28  C   UNL     1       6.087   3.796  14.475  0.00  0.00    +0.000 C 
ATOM     29  C   UNL     1       6.989   4.536  15.402  0.00  0.00    +0.000 C 
ENDBRANCH   4  27
TORSDOF 7
ENDMDL
MODEL 2
REMARK VINA RESULT:      -7.5      2.694      4.609
REMARK  Name = 
REMARK  7 active torsions:
REMARK  status: ('A' for Active; 'I' for Inactive)
REMARK    1  A    between atoms: C_2  and  O_3
REMARK    2  A    between atoms: C_2  and  C_4
REMARK    3  A    between atoms: C_5  and  C_6
REMARK    4  A    between atoms: N_8  and  C_9
REMARK    5  A    between atoms: C_12  and  C_13
REMARK    6  A    between atoms: C_16  and  C_17
REMARK    7  A    between atoms: C_19  and  C_20
REMARK                            x       y       z     vdW  Elec       q    Type
REMARK                         _______ _______ _______ _____ _____    ______ ____
ROOT
ATOM      1  C   UNL     1       3.756   6.733  17.804  0.00  0.00    +0.000 A 
ATOM      2  S   UNL     1       4.617   7.859  16.871  0.00  0.00    +0.000 S 
ATOM      3  C   UNL     1       5.444   6.604  16.052  0.00  0.00    +0.000 A 
ATOM      4  C   UNL     1       4.928   5.358  16.354  0.00  0.00    +0.000 A 
ATOM      5  C   UNL     1       3.906   5.432  17.364  0.00  0.00    +0.000 A 
ENDROOT
BRANCH   5   6
ATOM      6  C   UNL     1       3.034   4.314  17.857  0.00  0.00    +0.000 A 
ATOM      7  N   UNL     1       2.837   4.032  19.130  0.00  0.00    +0.000 NA
ATOM      8  C   UNL     1       2.043   2.924  19.085  0.00  0.00    +0.000 A 
ATOM      9  N   UNL     1       1.747   2.486  17.860  0.00  0.00    +0.000 NA
ATOM     10  O   UNL     1       2.404   3.402  17.039  0.00  0.00    +0.000 OA
BRANCH   8  11
ATOM     11  C   UNL     1       1.546   2.234  20.341  0.00  0.00    +0.000 C 
ATOM     12  C   UNL     1       2.448   2.241  21.561  0.00  0.00    +0.000 C 
ATOM     13  C   UNL     1       1.224   3.093  21.548  0.00  0.00    +0.000 C 
ENDBRANCH   8  11
ENDBRANCH   5   6
BRANCH   1  16
ATOM     14  C   UNL     1       2.043   8.218  18.583  0.00  0.00    +0.000 C 
ATOM     15  O   UNL     1       1.567   8.457  17.478  0.00  0.00    +0.000 OA
ATOM     16  N   UNL     1       3.042   7.309  18.830  0.00  0.00    +0.000 N 
ATOM     17  H   UNL     1       3.189   6.935  19.756  0.00  0.00    +0.000 HD
BRANCH  14  19
ATOM     18  C   UNL     1       0.811  10.013  19.958  0.00  0.00    +0.000 C 
ATOM     19  C   UNL     1       1.408   8.817  19.788  0.00  0.00    +0.000 C 
ATOM     20  C   UNL     1       1.274   7.951  21.007  0.00  0.00    +0.000 C 
ATOM     21  C   UNL     1       0.716   8.892  22.067  0.00  0.00    +0.000 C 
ATOM     22  C   UNL     1       0.228  10.137  21.333  0.00  0.00    +0.000 C 
BRANCH  18  24
ATOM     23  O   UNL     1       1.156  12.127  18.904  0.00  0.00    +0.000 OA
ATOM     24  C   UNL     1       0.602  11.041  18.922  0.00  0.00    +0.000 C 
BRANCH  24  25
ATOM     25  O   UNL     1      -0.305  10.697  17.989  0.00  0.00    +0.000 OA
ATOM     26  H   UNL     1       0.029  10.494  17.102  0.00  0.00    +0.000 HD
ENDBRANCH  24  25
ENDBRANCH  18  24
ENDBRANCH  14  19
ENDBRANCH   1  16
BRANCH   4  27
ATOM     27  C   UNL     1       5.403   4.067  15.677  0.00  0.00    +0.000 C 
ATOM     28  C   UNL     1       5.475   3.974  14.164  0.00  0.00    +0.000 C 
ATOM     29  C   UNL     1       6.735   4.079  14.952  0.00  0.00    +0.000 C 
ENDBRANCH   4  27
TORSDOF 7
ENDMDL
MODEL 3
REMARK VINA RESULT:      -7.4      0.857      1.058
REMARK  Name = 
REMARK  7 active torsions:
REMARK  status: ('A' for Active; 'I' for Inactive)
REMARK    1  A    between atoms: C_2  and  O_3
REMARK    2  A    between atoms: C_2  and  C_4
REMARK    3  A    between atoms: C_5  and  C_6
REMARK    4  A    between atoms: N_8  and  C_9
REMARK    5  A    between atoms: C_12  and  C_13
REMARK    6  A    between atoms: C_16  and  C_17
REMARK    7  A    between atoms: C_19  and  C_20
REMARK                            x       y       z     vdW  Elec       q    Type
REMARK                         _______ _______ _______ _____ _____    ______ ____
ROOT
ATOM      1  C   UNL     1       3.640   5.160  18.138  0.00  0.00    +0.000 A 
ATOM      2  S   UNL     1       2.600   3.881  17.733  0.00  0.00    +0.000 S 
ATOM      3  C   UNL     1       3.669   3.350  16.507  0.00  0.00    +0.000 A 
ATOM      4  C   UNL     1       4.876   4.022  16.543  0.00  0.00    +0.000 A 
ATOM      5  C   UNL     1       4.877   5.071  17.529  0.00  0.00    +0.000 A 
ENDROOT
BRANCH   5   6
ATOM      6  C   UNL     1       6.038   5.926  17.944  0.00  0.00    +0.000 A 
ATOM      7  N   UNL     1       6.418   7.019  17.312  0.00  0.00    +0.000 NA
ATOM      8  C   UNL     1       7.527   7.409  18.003  0.00  0.00    +0.000 A 
ATOM      9  N   UNL     1       7.873   6.617  19.019  0.00  0.00    +0.000 NA
ATOM     10  O   UNL     1       6.890   5.627  18.984  0.00  0.00    +0.000 OA
BRANCH   8  11
ATOM     11  C   UNL     1       8.317   8.650  17.632  0.00  0.00    +0.000 C 
ATOM     12  C   UNL     1       7.729  10.002  17.994  0.00  0.00    +0.000 C 
ATOM     13  C   UNL     1       8.904   9.485  18.753  0.00  0.00    +0.000 C 
ENDBRANCH   8  11
ENDBRANCH   5   6
BRANCH   1  16
ATOM     14  C   UNL     1       2.347   7.132  18.571  0.00  0.00    +0.000 C 
ATOM     15  O   UNL     1       1.962   7.290  17.417  0.00  0.00    +0.000 OA
ATOM     16  N   UNL     1       3.080   6.060  19.016  0.00  0.00    +0.000 N 
ATOM     17  H   UNL     1       3.114   5.823  19.997  0.00  0.00    +0.000 HD
BRANCH  14  19
ATOM     18  C   UNL     1       1.266   9.266  19.523  0.00  0.00    +0.000 C 
ATOM     19  C   UNL     1       1.867   8.064  19.627  0.00  0.00    +0.000 C 
ATOM     20  C   UNL     1       1.926   7.592  21.050  0.00  0.00    +0.000 C 
ATOM     21  C   UNL     1       1.493   8.809  21.858  0.00  0.00    +0.000 C 
ATOM     22  C   UNL     1       0.874   9.793  20.870  0.00  0.00    +0.000 C 
BRANCH  18  24
ATOM     23  O   UNL     1      -0.263  10.130  17.906  0.00  0.00    +0.000 OA
ATOM     24  C   UNL     1       0.886   9.949  18.273  0.00  0.00    +0.000 C 
BRANCH  24  25
ATOM     25  O   UNL     1       1.935  10.337  17.524  0.00  0.00    +0.000 OA
ATOM     26  H   UNL     1       2.651   9.696  17.400  0.00  0.00    +0.000 HD
ENDBRANCH  24  25
ENDBRANCH  18  24
ENDBRANCH  14  19
ENDBRANCH   1  16
BRANCH   4  27
ATOM     27  C   UNL     1       6.059   3.671  15.633  0.00  0.00    +0.000 C 
ATOM     28  C   UNL     1       5.959   3.868  14.132  0.00  0.00    +0.000 C 
ATOM     29  C   UNL     1       6.796   4.800  14.939  0.00  0.00    +0.000 C 
ENDBRANCH   4  27
TORSDOF 7
ENDMDL
MODEL 4
REMARK VINA RESULT:      -7.1      4.024      7.545
REMARK  Name = 
REMARK  7 active torsions:
REMARK  status: ('A' for Active; 'I' for Inactive)
REMARK    1  A    between atoms: C_2  and  O_3
REMARK    2  A    between atoms: C_2  and  C_4
REMARK    3  A    between atoms: C_5  and  C_6
REMARK    4  A    between atoms: N_8  and  C_9
REMARK    5  A    between atoms: C_12  and  C_13
REMARK    6  A    between atoms: C_16  and  C_17
REMARK    7  A    between atoms: C_19  and  C_20
REMARK                            x       y       z     vdW  Elec       q    Type
REMARK                         _______ _______ _______ _____ _____    ______ ____
ROOT
ATOM      1  C   UNL     1       1.736   8.194  19.223  0.00  0.00    +0.000 A 
ATOM      2  S   UNL     1       2.689   8.223  17.819  0.00  0.00    +0.000 S 
ATOM      3  C   UNL     1       2.331   9.876  17.564  0.00  0.00    +0.000 A 
ATOM      4  C   UNL     1       1.658  10.434  18.635  0.00  0.00    +0.000 A 
ATOM      5  C   UNL     1       1.334   9.451  19.635  0.00  0.00    +0.000 A 
ENDROOT
BRANCH   5   6
ATOM      6  C   UNL     1       0.723   9.695  20.984  0.00  0.00    +0.000 A 
ATOM      7  N   UNL     1      -0.315  10.480  21.197  0.00  0.00    +0.000 NA
ATOM      8  C   UNL     1      -0.463  10.438  22.552  0.00  0.00    +0.000 A 
ATOM      9  N   UNL     1       0.429   9.687  23.200  0.00  0.00    +0.000 NA
ATOM     10  O   UNL     1       1.223   9.192  22.164  0.00  0.00    +0.000 OA
BRANCH   8  11
ATOM     11  C   UNL     1      -1.560  11.203  23.270  0.00  0.00    +0.000 C 
ATOM     12  C   UNL     1      -1.470  12.717  23.295  0.00  0.00    +0.000 C 
ATOM     13  C   UNL     1      -2.496  12.056  22.439  0.00  0.00    +0.000 C 
ENDBRANCH   8  11
ENDBRANCH   5   6
BRANCH   1  16
ATOM     14  C   UNL     1       2.505   5.957  19.612  0.00  0.00    +0.000 C 
ATOM     15  O   UNL     1       3.662   6.155  19.254  0.00  0.00    +0.000 OA
ATOM     16  N   UNL     1       1.539   6.927  19.722  0.00  0.00    +0.000 N 
ATOM     17  H   UNL     1       0.717   6.782  20.290  0.00  0.00    +0.000 HD
BRANCH  14  19
ATOM     18  C   UNL     1       1.708   3.513  19.471  0.00  0.00    +0.000 C 
ATOM     19  C   UNL     1       2.127   4.613  20.127  0.00  0.00    +0.000 C 
ATOM     20  C   UNL     1       2.342   4.343  21.587  0.00  0.00    +0.000 C 
ATOM     21  C   UNL     1       1.743   2.958  21.796  0.00  0.00    +0.000 C 
ATOM     22  C   UNL     1       1.539   2.356  20.409  0.00  0.00    +0.000 C 
BRANCH  18  24
ATOM     23  O   UNL     1       1.083   4.217  17.278  0.00  0.00    +0.000 OA
ATOM     24  C   UNL     1       1.559   3.367  18.012  0.00  0.00    +0.000 C 
BRANCH  24  25
ATOM     25  O   UNL     1       1.965   2.175  17.539  0.00  0.00    +0.000 OA
ATOM     26  H   UNL     1       2.010   2.072  16.577  0.00  0.00    +0.000 HD
ENDBRANCH  24  25
ENDBRANCH  18  24
ENDBRANCH  14  19
ENDBRANCH   1  16
BRANCH   4  27
ATOM     27  C   UNL     1       1.313  11.925  18.724  0.00  0.00    +0.000 C 
ATOM     28  C   UNL     1       2.102  12.843  19.638  0.00  0.00    +0.000 C 
ATOM     29  C   UNL     1       2.300  12.930  18.164  0.00  0.00    +0.000 C 
ENDBRANCH   4  27
TORSDOF 7
ENDMDL
MODEL 5
REMARK VINA RESULT:      -7.1      2.185      3.380
REMARK  Name = 
REMARK  7 active torsions:
REMARK  status: ('A' for Active; 'I' for Inactive)
REMARK    1  A    between atoms: C_2  and  O_3
REMARK    2  A    between atoms: C_2  and  C_4
REMARK    3  A    between atoms: C_5  and  C_6
REMARK    4  A    between atoms: N_8  and  C_9
REMARK    5  A    between atoms: C_12  and  C_13
REMARK    6  A    between atoms: C_16  and  C_17
REMARK    7  A    between atoms: C_19  and  C_20
REMARK                            x       y       z     vdW  Elec       q    Type
REMARK                         _______ _______ _______ _____ _____    ______ ____
ROOT
ATOM      1  C   UNL     1       2.236   6.651  19.485  0.00  0.00    +0.000 A 
ATOM      2  S   UNL     1       1.213   5.848  20.577  0.00  0.00    +0.000 S 
ATOM      3  C   UNL     1       1.510   4.348  19.811  0.00  0.00    +0.000 A 
ATOM      4  C   UNL     1       2.517   4.435  18.868  0.00  0.00    +0.000 A 
ATOM      5  C   UNL     1       2.974   5.789  18.696  0.00  0.00    +0.000 A 
ENDROOT
BRANCH   5   6
ATOM      6  C   UNL     1       4.130   6.258  17.862  0.00  0.00    +0.000 A 
ATOM      7  N   UNL     1       5.376   6.323  18.289  0.00  0.00    +0.000 NA
ATOM      8  C   UNL     1       6.043   6.855  17.225  0.00  0.00    +0.000 A 
ATOM      9  N   UNL     1       5.286   7.142  16.165  0.00  0.00    +0.000 NA
ATOM     10  O   UNL     1       4.013   6.751  16.581  0.00  0.00    +0.000 OA
BRANCH   8  11
ATOM     11  C   UNL     1       7.538   7.113  17.254  0.00  0.00    +0.000 C 
ATOM     12  C   UNL     1       8.019   8.442  17.806  0.00  0.00    +0.000 C 
ATOM     13  C   UNL     1       8.221   7.199  18.604  0.00  0.00    +0.000 C 
ENDBRANCH   8  11
ENDBRANCH   5   6
BRANCH   1  16
ATOM     14  C   UNL     1       1.621   8.784  18.581  0.00  0.00    +0.000 C 
ATOM     15  O   UNL     1       0.986   8.342  17.629  0.00  0.00    +0.000 OA
ATOM     16  N   UNL     1       2.169   8.022  19.583  0.00  0.00    +0.000 N 
ATOM     17  H   UNL     1       2.412   8.429  20.474  0.00  0.00    +0.000 HD
BRANCH  14  19
ATOM     18  C   UNL     1       1.194  11.021  19.780  0.00  0.00    +0.000 C 
ATOM     19  C   UNL     1       1.685  10.256  18.786  0.00  0.00    +0.000 C 
ATOM     20  C   UNL     1       2.518  11.056  17.827  0.00  0.00    +0.000 C 
ATOM     21  C   UNL     1       2.262  12.501  18.237  0.00  0.00    +0.000 C 
ATOM     22  C   UNL     1       1.593  12.456  19.606  0.00  0.00    +0.000 C 
BRANCH  18  24
ATOM     23  O   UNL     1      -0.724  10.638  21.149  0.00  0.00    +0.000 OA
ATOM     24  C   UNL     1       0.481  10.546  20.980  0.00  0.00    +0.000 C 
BRANCH  24  25
ATOM     25  O   UNL     1       1.287  10.021  21.921  0.00  0.00    +0.000 OA
ATOM     26  H   UNL     1       2.149  10.443  22.050  0.00  0.00    +0.000 HD
ENDBRANCH  24  25
ENDBRANCH  18  24
ENDBRANCH  14  19
ENDBRANCH   1  16
BRANCH   4  27
ATOM     27  C   UNL     1       3.066   3.220  18.112  0.00  0.00    +0.000 C 
ATOM     28  C   UNL     1       4.196   2.395  18.699  0.00  0.00    +0.000 C 
ATOM     29  C   UNL     1       2.814   1.838  18.684  0.00  0.00    +0.000 C 
ENDBRANCH   4  27
TORSDOF 7
ENDMDL
MODEL 6
REMARK VINA RESULT:      -7.1      2.806      7.389
REMARK  Name = 
REMARK  7 active torsions:
REMARK  status: ('A' for Active; 'I' for Inactive)
REMARK    1  A    between atoms: C_2  and  O_3
REMARK    2  A    between atoms: C_2  and  C_4
REMARK    3  A    between atoms: C_5  and  C_6
REMARK    4  A    between atoms: N_8  and  C_9
REMARK    5  A    between atoms: C_12  and  C_13
REMARK    6  A    between atoms: C_16  and  C_17
REMARK    7  A    between atoms: C_19  and  C_20
REMARK                            x       y       z     vdW  Elec       q    Type
REMARK                         _______ _______ _______ _____ _____    ______ ____
ROOT
ATOM      1  C   UNL     1       2.875   7.599  18.084  0.00  0.00    +0.000 A 
ATOM      2  S   UNL     1       2.845   9.255  17.713  0.00  0.00    +0.000 S 
ATOM      3  C   UNL     1       1.644   9.537  18.897  0.00  0.00    +0.000 A 
ATOM      4  C   UNL     1       1.417   8.424  19.684  0.00  0.00    +0.000 A 
ATOM      5  C   UNL     1       2.169   7.284  19.229  0.00  0.00    +0.000 A 
ENDROOT
BRANCH   5   6
ATOM      6  C   UNL     1       2.280   5.944  19.897  0.00  0.00    +0.000 A 
ATOM      7  N   UNL     1       2.549   4.820  19.263  0.00  0.00    +0.000 NA
ATOM      8  C   UNL     1       2.486   3.882  20.251  0.00  0.00    +0.000 A 
ATOM      9  N   UNL     1       2.177   4.351  21.461  0.00  0.00    +0.000 NA
ATOM     10  O   UNL     1       2.035   5.720  21.233  0.00  0.00    +0.000 OA
BRANCH   8  11
ATOM     11  C   UNL     1       2.737   2.409  19.987  0.00  0.00    +0.000 C 
ATOM     12  C   UNL     1       1.801   1.689  19.034  0.00  0.00    +0.000 C 
ATOM     13  C   UNL     1       3.193   2.001  18.601  0.00  0.00    +0.000 C 
ENDBRANCH   8  11
ENDBRANCH   5   6
BRANCH   1  16
ATOM     14  C   UNL     1       4.913   6.503  17.454  0.00  0.00    +0.000 C 
ATOM     15  O   UNL     1       5.471   6.637  18.539  0.00  0.00    +0.000 OA
ATOM     16  N   UNL     1       3.611   6.854  17.191  0.00  0.00    +0.000 N 
ATOM     17  H   UNL     1       3.115   6.462  16.405  0.00  0.00    +0.000 HD
BRANCH  14  19
ATOM     18  C   UNL     1       6.596   4.847  16.429  0.00  0.00    +0.000 C 
ATOM     19  C   UNL     1       5.611   5.764  16.368  0.00  0.00    +0.000 C 
ATOM     20  C   UNL     1       5.097   5.937  14.968  0.00  0.00    +0.000 C 
ATOM     21  C   UNL     1       6.095   5.165  14.114  0.00  0.00    +0.000 C 
ATOM     22  C   UNL     1       6.915   4.304  15.069  0.00  0.00    +0.000 C 
BRANCH  18  24
ATOM     23  O   UNL     1       8.413   4.177  17.825  0.00  0.00    +0.000 OA
ATOM     24  C   UNL     1       7.212   4.305  17.654  0.00  0.00    +0.000 C 
BRANCH  24  25
ATOM     25  O   UNL     1       6.322   3.913  18.584  0.00  0.00    +0.000 OA
ATOM     26  H   UNL     1       5.543   4.474  18.716  0.00  0.00    +0.000 HD
ENDBRANCH  24  25
ENDBRANCH  18  24
ENDBRANCH  14  19
ENDBRANCH   1  16
BRANCH   4  27
ATOM     27  C   UNL     1       0.475   8.429  20.894  0.00  0.00    +0.000 C 
ATOM     28  C   UNL     1       0.940   8.981  22.228  0.00  0.00    +0.000 C 
ATOM     29  C   UNL     1      -0.030   9.762  21.411  0.00  0.00    +0.000 C 
ENDBRANCH   4  27
TORSDOF 7
ENDMDL
MODEL 7
REMARK VINA RESULT:      -7.1      2.551      4.319
REMARK  Name = 
REMARK  7 active torsions:
REMARK  status: ('A' for Active; 'I' for Inactive)
REMARK    1  A    between atoms: C_2  and  O_3
REMARK    2  A    between atoms: C_2  and  C_4
REMARK    3  A    between atoms: C_5  and  C_6
REMARK    4  A    between atoms: N_8  and  C_9
REMARK    5  A    between atoms: C_12  and  C_13
REMARK    6  A    between atoms: C_16  and  C_17
REMARK    7  A    between atoms: C_19  and  C_20
REMARK                            x       y       z     vdW  Elec       q    Type
REMARK                         _______ _______ _______ _____ _____    ______ ____
ROOT
ATOM      1  C   UNL     1       3.952   6.726  17.899  0.00  0.00    +0.000 A 
ATOM      2  S   UNL     1       4.165   7.767  16.575  0.00  0.00    +0.000 S 
ATOM      3  C   UNL     1       5.308   6.704  15.876  0.00  0.00    +0.000 A 
ATOM      4  C   UNL     1       5.374   5.497  16.545  0.00  0.00    +0.000 A 
ATOM      5  C   UNL     1       4.548   5.492  17.724  0.00  0.00    +0.000 A 
ENDROOT
BRANCH   5   6
ATOM      6  C   UNL     1       4.264   4.329  18.630  0.00  0.00    +0.000 A 
ATOM      7  N   UNL     1       3.062   4.001  19.062  0.00  0.00    +0.000 NA
ATOM      8  C   UNL     1       3.307   2.943  19.887  0.00  0.00    +0.000 A 
ATOM      9  N   UNL     1       4.590   2.601  20.009  0.00  0.00    +0.000 NA
ATOM     10  O   UNL     1       5.234   3.520  19.179  0.00  0.00    +0.000 OA
BRANCH   8  11
ATOM     11  C   UNL     1       2.195   2.217  20.622  0.00  0.00    +0.000 C 
ATOM     12  C   UNL     1       1.752   2.769  21.964  0.00  0.00    +0.000 C 
ATOM     13  C   UNL     1       0.863   2.922  20.777  0.00  0.00    +0.000 C 
ENDBRANCH   8  11
ENDBRANCH   5   6
BRANCH   1  16
ATOM     14  C   UNL     1       2.121   8.079  18.650  0.00  0.00    +0.000 C 
ATOM     15  O   UNL     1       1.601   8.216  17.548  0.00  0.00    +0.000 OA
ATOM     16  N   UNL     1       3.207   7.282  18.914  0.00  0.00    +0.000 N 
ATOM     17  H   UNL     1       3.409   6.970  19.852  0.00  0.00    +0.000 HD
BRANCH  14  19
ATOM     18  C   UNL     1       0.874   9.878  20.006  0.00  0.00    +0.000 C 
ATOM     19  C   UNL     1       1.457   8.674  19.841  0.00  0.00    +0.000 C 
ATOM     20  C   UNL     1       1.270   7.796  21.044  0.00  0.00    +0.000 C 
ATOM     21  C   UNL     1       0.693   8.735  22.097  0.00  0.00    +0.000 C 
ATOM     22  C   UNL     1       0.249   9.996  21.363  0.00  0.00    +0.000 C 
BRANCH  18  24
ATOM     23  O   UNL     1       1.293  11.995  18.985  0.00  0.00    +0.000 OA
ATOM     24  C   UNL     1       0.714  10.921  18.976  0.00  0.00    +0.000 C 
BRANCH  24  25
ATOM     25  O   UNL     1      -0.174  10.607  18.016  0.00  0.00    +0.000 OA
ATOM     26  H   UNL     1      -0.985  11.136  17.974  0.00  0.00    +0.000 HD
ENDBRANCH  24  25
ENDBRANCH  18  24
ENDBRANCH  14  19
ENDBRANCH   1  16
BRANCH   4  27
ATOM     27  C   UNL     1       6.231   4.318  16.068  0.00  0.00    +0.000 C 
ATOM     28  C   UNL     1       5.923   3.626  14.754  0.00  0.00    +0.000 C 
ATOM     29  C   UNL     1       7.116   4.513  14.853  0.00  0.00    +0.000 C 
ENDBRANCH   4  27
TORSDOF 7
ENDMDL
MODEL 8
REMARK VINA RESULT:      -7.1      2.346      3.290
REMARK  Name = 
REMARK  7 active torsions:
REMARK  status: ('A' for Active; 'I' for Inactive)
REMARK    1  A    between atoms: C_2  and  O_3
REMARK    2  A    between atoms: C_2  and  C_4
REMARK    3  A    between atoms: C_5  and  C_6
REMARK    4  A    between atoms: N_8  and  C_9
REMARK    5  A    between atoms: C_12  and  C_13
REMARK    6  A    between atoms: C_16  and  C_17
REMARK    7  A    between atoms: C_19  and  C_20
REMARK                            x       y       z     vdW  Elec       q    Type
REMARK                         _______ _______ _______ _____ _____    ______ ____
ROOT
ATOM      1  C   UNL     1       2.145   5.811  19.654  0.00  0.00    +0.000 A 
ATOM      2  S   UNL     1       1.351   4.911  20.855  0.00  0.00    +0.000 S 
ATOM      3  C   UNL     1       2.189   3.492  20.398  0.00  0.00    +0.000 A 
ATOM      4  C   UNL     1       3.188   3.750  19.480  0.00  0.00    +0.000 A 
ATOM      5  C   UNL     1       3.189   5.127  19.062  0.00  0.00    +0.000 A 
ENDROOT
BRANCH   5   6
ATOM      6  C   UNL     1       4.194   5.808  18.179  0.00  0.00    +0.000 A 
ATOM      7  N   UNL     1       5.483   5.888  18.447  0.00  0.00    +0.000 NA
ATOM      8  C   UNL     1       5.970   6.634  17.414  0.00  0.00    +0.000 A 
ATOM      9  N   UNL     1       5.060   7.039  16.526  0.00  0.00    +0.000 NA
ATOM     10  O   UNL     1       3.877   6.497  17.030  0.00  0.00    +0.000 OA
BRANCH   8  11
ATOM     11  C   UNL     1       7.440   6.987  17.293  0.00  0.00    +0.000 C 
ATOM     12  C   UNL     1       7.866   8.394  17.669  0.00  0.00    +0.000 C 
ATOM     13  C   UNL     1       8.216   7.257  18.567  0.00  0.00    +0.000 C 
ENDBRANCH   8  11
ENDBRANCH   5   6
BRANCH   1  16
ATOM     14  C   UNL     1       1.537   7.957  20.533  0.00  0.00    +0.000 C 
ATOM     15  O   UNL     1       2.066   7.801  21.629  0.00  0.00    +0.000 OA
ATOM     16  N   UNL     1       1.624   7.073  19.485  0.00  0.00    +0.000 N 
ATOM     17  H   UNL     1       1.437   7.368  18.538  0.00  0.00    +0.000 HD
BRANCH  14  19
ATOM     18  C   UNL     1       0.078  10.031  20.979  0.00  0.00    +0.000 C 
ATOM     19  C   UNL     1       0.882   9.257  20.224  0.00  0.00    +0.000 C 
ATOM     20  C   UNL     1       1.233   9.920  18.924  0.00  0.00    +0.000 C 
ATOM     21  C   UNL     1       0.311  11.131  18.870  0.00  0.00    +0.000 C 
ATOM     22  C   UNL     1      -0.262  11.308  20.273  0.00  0.00    +0.000 C 
BRANCH  18  24
ATOM     23  O   UNL     1      -0.167  10.560  23.293  0.00  0.00    +0.000 OA
ATOM     24  C   UNL     1      -0.325   9.774  22.373  0.00  0.00    +0.000 C 
BRANCH  24  25
ATOM     25  O   UNL     1      -0.862   8.557  22.571  0.00  0.00    +0.000 OA
ATOM     26  H   UNL     1      -1.753   8.523  22.951  0.00  0.00    +0.000 HD
ENDBRANCH  24  25
ENDBRANCH  18  24
ENDBRANCH  14  19
ENDBRANCH   1  16
BRANCH   4  27
ATOM     27  C   UNL     1       4.168   2.680  18.983  0.00  0.00    +0.000 C 
ATOM     28  C   UNL     1       3.667   1.307  18.578  0.00  0.00    +0.000 C 
ATOM     29  C   UNL     1       4.108   2.266  17.526  0.00  0.00    +0.000 C 
ENDBRANCH   4  27
TORSDOF 7
ENDMDL
MODEL 9
REMARK VINA RESULT:      -7.0      5.223      8.295
REMARK  Name = 
REMARK  7 active torsions:
REMARK  status: ('A' for Active; 'I' for Inactive)
REMARK    1  A    between atoms: C_2  and  O_3
REMARK    2  A    between atoms: C_2  and  C_4
REMARK    3  A    between atoms: C_5  and  C_6
REMARK    4  A    between atoms: N_8  and  C_9
REMARK    5  A    between atoms: C_12  and  C_13
REMARK    6  A    between atoms: C_16  and  C_17
REMARK    7  A    between atoms: C_19  and  C_20
REMARK                            x       y       z     vdW  Elec       q    Type
REMARK                         _______ _______ _______ _____ _____    ______ ____
ROOT
ATOM      1  C   UNL     1      -0.219  10.162  21.486  0.00  0.00    +0.000 A 
ATOM      2  S   UNL     1       0.938   9.385  22.454  0.00  0.00    +0.000 S 
ATOM      3  C   UNL     1       1.498   8.473  21.119  0.00  0.00    +0.000 A 
ATOM      4  C   UNL     1       0.940   8.898  19.928  0.00  0.00    +0.000 A 
ATOM      5  C   UNL     1      -0.051   9.922  20.135  0.00  0.00    +0.000 A 
ENDROOT
BRANCH   5   6
ATOM      6  C   UNL     1      -0.775  10.711  19.084  0.00  0.00    +0.000 A 
ATOM      7  N   UNL     1      -1.752  10.232  18.339  0.00  0.00    +0.000 NA
ATOM      8  C   UNL     1      -2.046  11.272  17.506  0.00  0.00    +0.000 A 
ATOM      9  N   UNL     1      -1.300  12.365  17.675  0.00  0.00    +0.000 NA
ATOM     10  O   UNL     1      -0.450  11.998  18.720  0.00  0.00    +0.000 OA
BRANCH   8  11
ATOM     11  C   UNL     1      -3.137  11.183  16.455  0.00  0.00    +0.000 C 
ATOM     12  C   UNL     1      -2.789  10.546  15.122  0.00  0.00    +0.000 C 
ATOM     13  C   UNL     1      -3.659   9.809  16.083  0.00  0.00    +0.000 C 
ENDBRANCH   8  11
ENDBRANCH   5   6
BRANCH   1  16
ATOM     14  C   UNL     1      -0.873  12.232  22.504  0.00  0.00    +0.000 C 
ATOM     15  O   UNL     1       0.029  12.906  22.016  0.00  0.00    +0.000 OA
ATOM     16  N   UNL     1      -1.118  10.913  22.208  0.00  0.00    +0.000 N 
ATOM     17  H   UNL     1      -2.019  10.497  22.391  0.00  0.00    +0.000 HD
BRANCH  14  19
ATOM     18  C   UNL     1      -1.916  14.138  23.885  0.00  0.00    +0.000 C 
ATOM     19  C   UNL     1      -1.894  12.899  23.356  0.00  0.00    +0.000 C 
ATOM     20  C   UNL     1      -3.181  12.166  23.601  0.00  0.00    +0.000 C 
ATOM     21  C   UNL     1      -3.925  13.053  24.593  0.00  0.00    +0.000 C 
ATOM     22  C   UNL     1      -3.208  14.399  24.599  0.00  0.00    +0.000 C 
BRANCH  18  24
ATOM     23  O   UNL     1      -0.152  15.593  24.569  0.00  0.00    +0.000 OA
ATOM     24  C   UNL     1      -0.899  15.188  23.694  0.00  0.00    +0.000 C 
BRANCH  24  25
ATOM     25  O   UNL     1      -0.883  15.712  22.455  0.00  0.00    +0.000 OA
ATOM     26  H   UNL     1      -0.032  16.038  22.124  0.00  0.00    +0.000 HD
ENDBRANCH  24  25
ENDBRANCH  18  24
ENDBRANCH  14  19
ENDBRANCH   1  16
BRANCH   4  27
ATOM     27  C   UNL     1       1.348   8.334  18.562  0.00  0.00    +0.000 C 
ATOM     28  C   UNL     1       2.549   8.897  17.825  0.00  0.00    +0.000 C 
ATOM     29  C   UNL     1       2.643   7.552  18.460  0.00  0.00    +0.000 C 
ENDBRANCH   4  27
TORSDOF 7
ENDMDL
