MODEL 1
REMARK VINA RESULT:      -9.1      0.000      0.000
REMARK  Name = 
REMARK  3 active torsions:
REMARK  status: ('A' for Active; 'I' for Inactive)
REMARK    1  A    between atoms: C_2  and  C_4
REMARK    2  A    between atoms: C_9  and  C_10
REMARK    3  A    between atoms: N_12  and  C_13
REMARK                            x       y       z     vdW  Elec       q    Type
REMARK                         _______ _______ _______ _____ _____    ______ ____
ROOT
ATOM      1  C   UNL     1       6.772   5.140  15.417  0.00  0.00    +0.000 C 
ATOM      2  C   UNL     1       5.321   5.636  15.518  0.00  0.00    +0.000 C 
ATOM      3  N   UNL     1       5.049   6.262  16.818  0.00  0.00    +0.000 N 
ATOM      4  C   UNL     1       4.008   5.830  17.608  0.00  0.00    +0.000 A 
ATOM      5  C   UNL     1       3.377   6.688  18.489  0.00  0.00    +0.000 A 
ATOM      6  C   UNL     1       2.334   6.235  19.300  0.00  0.00    +0.000 A 
ATOM      7  C   UNL     1       1.952   4.877  19.262  0.00  0.00    +0.000 A 
ATOM      8  C   UNL     1       0.995   4.253  20.107  0.00  0.00    +0.000 A 
ATOM      9  C   UNL     1       0.684   2.899  19.976  0.00  0.00    +0.000 A 
ATOM     10  C   UNL     1       1.335   2.140  19.017  0.00  0.00    +0.000 A 
ATOM     11  C   UNL     1       2.300   2.738  18.204  0.00  0.00    +0.000 A 
ATOM     12  C   UNL     1       2.626   4.083  18.311  0.00  0.00    +0.000 A 
ATOM     13  N   UNL     1       3.596   4.553  17.505  0.00  0.00    +0.000 NA
ATOM     14  C   UNL     1       6.073   7.175  17.333  0.00  0.00    +0.000 C 
ATOM     15  C   UNL     1       7.469   6.556  17.166  0.00  0.00    +0.000 C 
ATOM     16  O   UNL     1       7.713   6.171  15.805  0.00  0.00    +0.000 OA
ENDROOT
BRANCH   1  18
ATOM     17  N   UNL     1       6.452   3.583  13.552  0.00  0.00    +0.000 N 
ATOM     18  C   UNL     1       7.056   4.740  13.968  0.00  0.00    +0.000 C 
ATOM     19  O   UNL     1       7.816   5.352  13.225  0.00  0.00    +0.000 OA
ATOM     20  H   UNL     1       6.524   3.355  12.569  0.00  0.00    +0.000 HD
ATOM     21  H   UNL     1       5.624   3.280  14.055  0.00  0.00    +0.000 HD
ENDBRANCH   1  18
BRANCH   6  22
ATOM     22  C   UNL     1       1.730   7.275  20.180  0.00  0.00    +0.000 C 
ATOM     23  O   UNL     1       1.531   7.014  21.364  0.00  0.00    +0.000 OA
ATOM     24  N   UNL     1       1.498   8.522  19.628  0.00  0.00    +0.000 N 
ATOM     25  H   UNL     1       1.840   8.723  18.697  0.00  0.00    +0.000 HD
BRANCH  24  26
ATOM     26  C   UNL     1       0.988   9.605  20.413  0.00  0.00    +0.000 C 
ATOM     27  C   UNL     1       0.799  10.974  19.820  0.00  0.00    +0.000 C 
ATOM     28  C   UNL     1      -0.398  10.140  20.170  0.00  0.00    +0.000 C 
ENDBRANCH  24  26
ENDBRANCH   6  22
TORSDOF 3
ENDMDL
MODEL 2
REMARK VINA RESULT:      -8.5      2.072      7.509
REMARK  Name = 
REMARK  3 active torsions:
REMARK  status: ('A' for Active; 'I' for Inactive)
REMARK    1  A    between atoms: C_2  and  C_4
REMARK    2  A    between atoms: C_9  and  C_10
REMARK    3  A    between atoms: N_12  and  C_13
REMARK                            x       y       z     vdW  Elec       q    Type
REMARK                         _______ _______ _______ _____ _____    ______ ____
ROOT
ATOM      1  C   UNL     1      -0.236   9.453  21.584  0.00  0.00    +0.000 C 
ATOM      2  C   UNL     1       1.235   9.023  21.470  0.00  0.00    +0.000 C 
ATOM      3  N   UNL     1       1.610   8.724  20.083  0.00  0.00    +0.000 N 
ATOM      4  C   UNL     1       2.164   7.511  19.745  0.00  0.00    +0.000 A 
ATOM      5  C   UNL     1       3.019   7.394  18.665  0.00  0.00    +0.000 A 
ATOM      6  C   UNL     1       3.562   6.154  18.318  0.00  0.00    +0.000 A 
ATOM      7  C   UNL     1       3.196   4.999  19.041  0.00  0.00    +0.000 A 
ATOM      8  C   UNL     1       3.574   3.664  18.732  0.00  0.00    +0.000 A 
ATOM      9  C   UNL     1       3.162   2.591  19.525  0.00  0.00    +0.000 A 
ATOM     10  C   UNL     1       2.352   2.827  20.623  0.00  0.00    +0.000 A 
ATOM     11  C   UNL     1       1.949   4.132  20.915  0.00  0.00    +0.000 A 
ATOM     12  C   UNL     1       2.347   5.217  20.146  0.00  0.00    +0.000 A 
ATOM     13  N   UNL     1       1.875   6.430  20.490  0.00  0.00    +0.000 NA
ATOM     14  C   UNL     1       1.139   9.663  19.060  0.00  0.00    +0.000 C 
ATOM     15  C   UNL     1      -0.340  10.007  19.296  0.00  0.00    +0.000 C 
ATOM     16  O   UNL     1      -0.558  10.493  20.629  0.00  0.00    +0.000 OA
ENDROOT
BRANCH   1  18
ATOM     17  N   UNL     1      -1.483  10.923  23.098  0.00  0.00    +0.000 N 
ATOM     18  C   UNL     1      -0.485   9.991  22.995  0.00  0.00    +0.000 C 
ATOM     19  O   UNL     1       0.185   9.679  23.974  0.00  0.00    +0.000 OA
ATOM     20  H   UNL     1      -1.749  11.209  24.030  0.00  0.00    +0.000 HD
ATOM     21  H   UNL     1      -2.192  10.931  22.371  0.00  0.00    +0.000 HD
ENDBRANCH   1  18
BRANCH   6  22
ATOM     22  C   UNL     1       4.488   6.182  17.150  0.00  0.00    +0.000 C 
ATOM     23  O   UNL     1       5.206   7.163  16.980  0.00  0.00    +0.000 OA
ATOM     24  N   UNL     1       4.547   5.050  16.357  0.00  0.00    +0.000 N 
ATOM     25  H   UNL     1       4.057   4.214  16.648  0.00  0.00    +0.000 HD
BRANCH  24  26
ATOM     26  C   UNL     1       5.458   4.955  15.256  0.00  0.00    +0.000 C 
ATOM     27  C   UNL     1       6.905   4.607  15.471  0.00  0.00    +0.000 C 
ATOM     28  C   UNL     1       5.987   3.618  14.813  0.00  0.00    +0.000 C 
ENDBRANCH  24  26
ENDBRANCH   6  22
TORSDOF 3
ENDMDL
MODEL 3
REMARK VINA RESULT:      -8.4      2.082      7.269
REMARK  Name = 
REMARK  3 active torsions:
REMARK  status: ('A' for Active; 'I' for Inactive)
REMARK    1  A    between atoms: C_2  and  C_4
REMARK    2  A    between atoms: C_9  and  C_10
REMARK    3  A    between atoms: N_12  and  C_13
REMARK                            x       y       z     vdW  Elec       q    Type
REMARK                         _______ _______ _______ _____ _____    ______ ____
ROOT
ATOM      1  C   UNL     1      -0.216   9.498  20.910  0.00  0.00    +0.000 C 
ATOM      2  C   UNL     1       1.172   8.881  21.145  0.00  0.00    +0.000 C 
ATOM      3  N   UNL     1       1.809   8.477  19.886  0.00  0.00    +0.000 N 
ATOM      4  C   UNL     1       2.258   7.190  19.700  0.00  0.00    +0.000 A 
ATOM      5  C   UNL     1       3.313   6.918  18.848  0.00  0.00    +0.000 A 
ATOM      6  C   UNL     1       3.750   5.606  18.652  0.00  0.00    +0.000 A 
ATOM      7  C   UNL     1       3.078   4.539  19.285  0.00  0.00    +0.000 A 
ATOM      8  C   UNL     1       3.334   3.154  19.090  0.00  0.00    +0.000 A 
ATOM      9  C   UNL     1       2.614   2.178  19.779  0.00  0.00    +0.000 A 
ATOM     10  C   UNL     1       1.614   2.563  20.658  0.00  0.00    +0.000 A 
ATOM     11  C   UNL     1       1.334   3.919  20.832  0.00  0.00    +0.000 A 
ATOM     12  C   UNL     1       2.037   4.911  20.162  0.00  0.00    +0.000 A 
ATOM     13  N   UNL     1       1.665   6.187  20.372  0.00  0.00    +0.000 NA
ATOM     14  C   UNL     1       1.713   9.423  18.770  0.00  0.00    +0.000 C 
ATOM     15  C   UNL     1       0.278   9.962  18.653  0.00  0.00    +0.000 C 
ATOM     16  O   UNL     1      -0.170  10.529  19.893  0.00  0.00    +0.000 OA
ENDROOT
BRANCH   1  18
ATOM     17  N   UNL     1      -0.613   9.317  23.321  0.00  0.00    +0.000 N 
ATOM     18  C   UNL     1      -0.704  10.124  22.219  0.00  0.00    +0.000 C 
ATOM     19  O   UNL     1      -1.207  11.240  22.298  0.00  0.00    +0.000 OA
ATOM     20  H   UNL     1      -0.817   9.740  24.218  0.00  0.00    +0.000 HD
ATOM     21  H   UNL     1       0.059   8.557  23.291  0.00  0.00    +0.000 HD
ENDBRANCH   1  18
BRANCH   6  22
ATOM     22  C   UNL     1       4.912   5.465  17.729  0.00  0.00    +0.000 C 
ATOM     23  O   UNL     1       6.047   5.440  18.197  0.00  0.00    +0.000 OA
ATOM     24  N   UNL     1       4.640   5.285  16.385  0.00  0.00    +0.000 N 
ATOM     25  H   UNL     1       3.683   5.145  16.087  0.00  0.00    +0.000 HD
BRANCH  24  26
ATOM     26  C   UNL     1       5.687   5.070  15.432  0.00  0.00    +0.000 C 
ATOM     27  C   UNL     1       6.262   3.699  15.206  0.00  0.00    +0.000 C 
ATOM     28  C   UNL     1       5.413   4.337  14.147  0.00  0.00    +0.000 C 
ENDBRANCH  24  26
ENDBRANCH   6  22
TORSDOF 3
ENDMDL
MODEL 4
REMARK VINA RESULT:      -8.4      1.260      1.320
REMARK  Name = 
REMARK  3 active torsions:
REMARK  status: ('A' for Active; 'I' for Inactive)
REMARK    1  A    between atoms: C_2  and  C_4
REMARK    2  A    between atoms: C_9  and  C_10
REMARK    3  A    between atoms: N_12  and  C_13
REMARK                            x       y       z     vdW  Elec       q    Type
REMARK                         _______ _______ _______ _____ _____    ______ ____
ROOT
ATOM      1  C   UNL     1       6.795   5.152  15.566  0.00  0.00    +0.000 C 
ATOM      2  C   UNL     1       5.353   5.685  15.602  0.00  0.00    +0.000 C 
ATOM      3  N   UNL     1       5.098   6.484  16.807  0.00  0.00    +0.000 N 
ATOM      4  C   UNL     1       4.053   6.181  17.649  0.00  0.00    +0.000 A 
ATOM      5  C   UNL     1       3.441   7.161  18.408  0.00  0.00    +0.000 A 
ATOM      6  C   UNL     1       2.392   6.841  19.274  0.00  0.00    +0.000 A 
ATOM      7  C   UNL     1       1.986   5.498  19.419  0.00  0.00    +0.000 A 
ATOM      8  C   UNL     1       1.020   5.011  20.341  0.00  0.00    +0.000 A 
ATOM      9  C   UNL     1       0.684   3.657  20.393  0.00  0.00    +0.000 A 
ATOM     10  C   UNL     1       1.317   2.765  19.543  0.00  0.00    +0.000 A 
ATOM     11  C   UNL     1       2.290   3.230  18.656  0.00  0.00    +0.000 A 
ATOM     12  C   UNL     1       2.641   4.571  18.581  0.00  0.00    +0.000 A 
ATOM     13  N   UNL     1       3.616   4.911  17.718  0.00  0.00    +0.000 NA
ATOM     14  C   UNL     1       6.141   7.439  17.193  0.00  0.00    +0.000 C 
ATOM     15  C   UNL     1       7.525   6.777  17.109  0.00  0.00    +0.000 C 
ATOM     16  O   UNL     1       7.755   6.208  15.811  0.00  0.00    +0.000 OA
ENDROOT
BRANCH   1  18
ATOM     17  N   UNL     1       7.986   5.230  13.426  0.00  0.00    +0.000 N 
ATOM     18  C   UNL     1       7.066   4.556  14.183  0.00  0.00    +0.000 C 
ATOM     19  O   UNL     1       6.471   3.584  13.728  0.00  0.00    +0.000 OA
ATOM     20  H   UNL     1       8.273   4.798  12.558  0.00  0.00    +0.000 HD
ATOM     21  H   UNL     1       8.657   5.815  13.916  0.00  0.00    +0.000 HD
ENDBRANCH   1  18
BRANCH   6  22
ATOM     22  C   UNL     1       1.811   8.001  20.007  0.00  0.00    +0.000 C 
ATOM     23  O   UNL     1       1.412   8.972  19.370  0.00  0.00    +0.000 OA
ATOM     24  N   UNL     1       1.676   7.885  21.379  0.00  0.00    +0.000 N 
ATOM     25  H   UNL     1       1.866   6.995  21.823  0.00  0.00    +0.000 HD
BRANCH  24  26
ATOM     26  C   UNL     1       1.063   8.917  22.160  0.00  0.00    +0.000 C 
ATOM     27  C   UNL     1      -0.037   9.771  21.594  0.00  0.00    +0.000 C 
ATOM     28  C   UNL     1      -0.348   8.762  22.660  0.00  0.00    +0.000 C 
ENDBRANCH  24  26
ENDBRANCH   6  22
TORSDOF 3
ENDMDL
MODEL 5
REMARK VINA RESULT:      -7.9      2.168      7.408
REMARK  Name = 
REMARK  3 active torsions:
REMARK  status: ('A' for Active; 'I' for Inactive)
REMARK    1  A    between atoms: C_2  and  C_4
REMARK    2  A    between atoms: C_9  and  C_10
REMARK    3  A    between atoms: N_12  and  C_13
REMARK                            x       y       z     vdW  Elec       q    Type
REMARK                         _______ _______ _______ _____ _____    ______ ____
ROOT
ATOM      1  C   UNL     1      -0.306   9.594  21.433  0.00  0.00    +0.000 C 
ATOM      2  C   UNL     1       1.082   8.935  21.481  0.00  0.00    +0.000 C 
ATOM      3  N   UNL     1       1.565   8.585  20.140  0.00  0.00    +0.000 N 
ATOM      4  C   UNL     1       1.957   7.300  19.841  0.00  0.00    +0.000 A 
ATOM      5  C   UNL     1       2.903   7.051  18.865  0.00  0.00    +0.000 A 
ATOM      6  C   UNL     1       3.281   5.742  18.556  0.00  0.00    +0.000 A 
ATOM      7  C   UNL     1       2.655   4.657  19.207  0.00  0.00    +0.000 A 
ATOM      8  C   UNL     1       2.851   3.280  18.915  0.00  0.00    +0.000 A 
ATOM      9  C   UNL     1       2.185   2.285  19.632  0.00  0.00    +0.000 A 
ATOM     10  C   UNL     1       1.299   2.643  20.634  0.00  0.00    +0.000 A 
ATOM     11  C   UNL     1       1.076   3.995  20.905  0.00  0.00    +0.000 A 
ATOM     12  C   UNL     1       1.727   5.005  20.211  0.00  0.00    +0.000 A 
ATOM     13  N   UNL     1       1.415   6.276  20.525  0.00  0.00    +0.000 NA
ATOM     14  C   UNL     1       1.372   9.590  19.090  0.00  0.00    +0.000 C 
ATOM     15  C   UNL     1      -0.052  10.164  19.161  0.00  0.00    +0.000 C 
ATOM     16  O   UNL     1      -0.346  10.675  20.470  0.00  0.00    +0.000 OA
ENDROOT
BRANCH   1  18
ATOM     17  N   UNL     1      -0.204   9.400  23.874  0.00  0.00    +0.000 N 
ATOM     18  C   UNL     1      -0.631  10.160  22.817  0.00  0.00    +0.000 C 
ATOM     19  O   UNL     1      -1.281  11.184  23.003  0.00  0.00    +0.000 OA
ATOM     20  H   UNL     1      -0.299   9.803  24.797  0.00  0.00    +0.000 HD
ATOM     21  H   UNL     1       0.562   8.755  23.708  0.00  0.00    +0.000 HD
ENDBRANCH   1  18
BRANCH   6  22
ATOM     22  C   UNL     1       4.330   5.626  17.504  0.00  0.00    +0.000 C 
ATOM     23  O   UNL     1       4.287   6.375  16.532  0.00  0.00    +0.000 OA
ATOM     24  N   UNL     1       5.355   4.723  17.722  0.00  0.00    +0.000 N 
ATOM     25  H   UNL     1       5.424   4.258  18.619  0.00  0.00    +0.000 HD
BRANCH  24  26
ATOM     26  C   UNL     1       6.445   4.592  16.803  0.00  0.00    +0.000 C 
ATOM     27  C   UNL     1       7.422   5.715  16.590  0.00  0.00    +0.000 C 
ATOM     28  C   UNL     1       7.858   4.470  17.305  0.00  0.00    +0.000 C 
ENDBRANCH  24  26
ENDBRANCH   6  22
TORSDOF 3
ENDMDL
MODEL 6
REMARK VINA RESULT:      -7.7      2.992      5.539
REMARK  Name = 
REMARK  3 active torsions:
REMARK  status: ('A' for Active; 'I' for Inactive)
REMARK    1  A    between atoms: C_2  and  C_4
REMARK    2  A    between atoms: C_9  and  C_10
REMARK    3  A    between atoms: N_12  and  C_13
REMARK                            x       y       z     vdW  Elec       q    Type
REMARK                         _______ _______ _______ _____ _____    ______ ____
ROOT
ATOM      1  C   UNL     1       4.254   5.611  19.128  0.00  0.00    +0.000 C 
ATOM      2  C   UNL     1       2.745   5.872  19.001  0.00  0.00    +0.000 C 
ATOM      3  N   UNL     1       2.467   7.208  18.460  0.00  0.00    +0.000 N 
ATOM      4  C   UNL     1       1.651   8.089  19.133  0.00  0.00    +0.000 A 
ATOM      5  C   UNL     1       0.926   9.051  18.454  0.00  0.00    +0.000 A 
ATOM      6  C   UNL     1       0.115   9.953  19.147  0.00  0.00    +0.000 A 
ATOM      7  C   UNL     1       0.073   9.920  20.558  0.00  0.00    +0.000 A 
ATOM      8  C   UNL     1      -0.609  10.842  21.396  0.00  0.00    +0.000 A 
ATOM      9  C   UNL     1      -0.594  10.709  22.786  0.00  0.00    +0.000 A 
ATOM     10  C   UNL     1       0.118   9.670  23.363  0.00  0.00    +0.000 A 
ATOM     11  C   UNL     1       0.818   8.779  22.548  0.00  0.00    +0.000 A 
ATOM     12  C   UNL     1       0.817   8.885  21.164  0.00  0.00    +0.000 A 
ATOM     13  N   UNL     1       1.553   7.997  20.471  0.00  0.00    +0.000 NA
ATOM     14  C   UNL     1       3.286   7.639  17.323  0.00  0.00    +0.000 C 
ATOM     15  C   UNL     1       4.766   7.315  17.583  0.00  0.00    +0.000 C 
ATOM     16  O   UNL     1       4.951   5.927  17.898  0.00  0.00    +0.000 OA
ENDROOT
BRANCH   1  18
ATOM     17  N   UNL     1       5.634   3.593  18.959  0.00  0.00    +0.000 N 
ATOM     18  C   UNL     1       4.473   4.131  19.447  0.00  0.00    +0.000 C 
ATOM     19  O   UNL     1       3.658   3.431  20.039  0.00  0.00    +0.000 OA
ATOM     20  H   UNL     1       5.863   2.652  19.252  0.00  0.00    +0.000 HD
ATOM     21  H   UNL     1       6.397   4.232  18.756  0.00  0.00    +0.000 HD
ENDBRANCH   1  18
BRANCH   6  22
ATOM     22  C   UNL     1      -0.628  10.915  18.286  0.00  0.00    +0.000 C 
ATOM     23  O   UNL     1      -0.286  12.095  18.277  0.00  0.00    +0.000 OA
ATOM     24  N   UNL     1      -1.622  10.406  17.471  0.00  0.00    +0.000 N 
ATOM     25  H   UNL     1      -1.740   9.403  17.400  0.00  0.00    +0.000 HD
BRANCH  24  26
ATOM     26  C   UNL     1      -2.342  11.241  16.557  0.00  0.00    +0.000 C 
ATOM     27  C   UNL     1      -2.932  10.681  15.293  0.00  0.00    +0.000 C 
ATOM     28  C   UNL     1      -3.834  11.110  16.413  0.00  0.00    +0.000 C 
ENDBRANCH  24  26
ENDBRANCH   6  22
TORSDOF 3
ENDMDL
MODEL 7
REMARK VINA RESULT:      -7.2      1.291      1.379
REMARK  Name = 
REMARK  3 active torsions:
REMARK  status: ('A' for Active; 'I' for Inactive)
REMARK    1  A    between atoms: C_2  and  C_4
REMARK    2  A    between atoms: C_9  and  C_10
REMARK    3  A    between atoms: N_12  and  C_13
REMARK                            x       y       z     vdW  Elec       q    Type
REMARK                         _______ _______ _______ _____ _____    ______ ____
ROOT
ATOM      1  C   UNL     1       6.344   4.249  14.537  0.00  0.00    +0.000 C 
ATOM      2  C   UNL     1       4.967   4.896  14.760  0.00  0.00    +0.000 C 
ATOM      3  N   UNL     1       4.933   5.693  15.992  0.00  0.00    +0.000 N 
ATOM      4  C   UNL     1       3.982   5.461  16.959  0.00  0.00    +0.000 A 
ATOM      5  C   UNL     1       3.554   6.475  17.796  0.00  0.00    +0.000 A 
ATOM      6  C   UNL     1       2.601   6.226  18.787  0.00  0.00    +0.000 A 
ATOM      7  C   UNL     1       2.107   4.917  18.974  0.00  0.00    +0.000 A 
ATOM      8  C   UNL     1       1.230   4.494  20.010  0.00  0.00    +0.000 A 
ATOM      9  C   UNL     1       0.793   3.171  20.095  0.00  0.00    +0.000 A 
ATOM     10  C   UNL     1       1.238   2.245  19.166  0.00  0.00    +0.000 A 
ATOM     11  C   UNL     1       2.125   2.645  18.165  0.00  0.00    +0.000 A 
ATOM     12  C   UNL     1       2.573   3.955  18.054  0.00  0.00    +0.000 A 
ATOM     13  N   UNL     1       3.455   4.229  17.076  0.00  0.00    +0.000 NA
ATOM     14  C   UNL     1       6.091   6.554  16.248  0.00  0.00    +0.000 C 
ATOM     15  C   UNL     1       7.394   5.784  15.983  0.00  0.00    +0.000 C 
ATOM     16  O   UNL     1       7.411   5.221  14.663  0.00  0.00    +0.000 OA
ENDROOT
BRANCH   1  18
ATOM     17  N   UNL     1       5.170   3.314  12.599  0.00  0.00    +0.000 N 
ATOM     18  C   UNL     1       6.387   3.657  13.126  0.00  0.00    +0.000 C 
ATOM     19  O   UNL     1       7.423   3.432  12.510  0.00  0.00    +0.000 OA
ATOM     20  H   UNL     1       5.154   3.031  11.628  0.00  0.00    +0.000 HD
ATOM     21  H   UNL     1       4.349   3.774  12.979  0.00  0.00    +0.000 HD
ENDBRANCH   1  18
BRANCH   6  22
ATOM     22  C   UNL     1       2.215   7.416  19.596  0.00  0.00    +0.000 C 
ATOM     23  O   UNL     1       2.335   8.536  19.106  0.00  0.00    +0.000 OA
ATOM     24  N   UNL     1       1.657   7.187  20.841  0.00  0.00    +0.000 N 
ATOM     25  H   UNL     1       1.429   6.240  21.116  0.00  0.00    +0.000 HD
BRANCH  24  26
ATOM     26  C   UNL     1       1.189   8.264  21.661  0.00  0.00    +0.000 C 
ATOM     27  C   UNL     1       0.367   9.381  21.082  0.00  0.00    +0.000 C 
ATOM     28  C   UNL     1      -0.270   8.385  22.005  0.00  0.00    +0.000 C 
ENDBRANCH  24  26
ENDBRANCH   6  22
TORSDOF 3
ENDMDL
MODEL 8
REMARK VINA RESULT:      -6.9      2.855      5.437
REMARK  Name = 
REMARK  3 active torsions:
REMARK  status: ('A' for Active; 'I' for Inactive)
REMARK    1  A    between atoms: C_2  and  C_4
REMARK    2  A    between atoms: C_9  and  C_10
REMARK    3  A    between atoms: N_12  and  C_13
REMARK                            x       y       z     vdW  Elec       q    Type
REMARK                         _______ _______ _______ _____ _____    ______ ____
ROOT
ATOM      1  C   UNL     1       3.453   4.866  18.703  0.00  0.00    +0.000 C 
ATOM      2  C   UNL     1       2.245   5.745  18.342  0.00  0.00    +0.000 C 
ATOM      3  N   UNL     1       2.621   7.157  18.205  0.00  0.00    +0.000 N 
ATOM      4  C   UNL     1       1.977   8.135  18.929  0.00  0.00    +0.000 A 
ATOM      5  C   UNL     1       1.877   9.428  18.450  0.00  0.00    +0.000 A 
ATOM      6  C   UNL     1       1.238  10.418  19.201  0.00  0.00    +0.000 A 
ATOM      7  C   UNL     1       0.735  10.113  20.484  0.00  0.00    +0.000 A 
ATOM      8  C   UNL     1       0.169  11.038  21.402  0.00  0.00    +0.000 A 
ATOM      9  C   UNL     1      -0.310  10.624  22.647  0.00  0.00    +0.000 A 
ATOM     10  C   UNL     1      -0.214   9.290  23.004  0.00  0.00    +0.000 A 
ATOM     11  C   UNL     1       0.370   8.380  22.121  0.00  0.00    +0.000 A 
ATOM     12  C   UNL     1       0.851   8.763  20.876  0.00  0.00    +0.000 A 
ATOM     13  N   UNL     1       1.428   7.815  20.114  0.00  0.00    +0.000 NA
ATOM     14  C   UNL     1       3.857   7.439  17.469  0.00  0.00    +0.000 C 
ATOM     15  C   UNL     1       4.975   6.488  17.927  0.00  0.00    +0.000 C 
ATOM     16  O   UNL     1       4.572   5.115  17.818  0.00  0.00    +0.000 OA
ENDROOT
BRANCH   1  18
ATOM     17  N   UNL     1       4.053   2.542  18.211  0.00  0.00    +0.000 N 
ATOM     18  C   UNL     1       3.047   3.396  18.576  0.00  0.00    +0.000 C 
ATOM     19  O   UNL     1       1.900   2.987  18.721  0.00  0.00    +0.000 OA
ATOM     20  H   UNL     1       3.846   1.552  18.233  0.00  0.00    +0.000 HD
ATOM     21  H   UNL     1       5.008   2.837  18.394  0.00  0.00    +0.000 HD
ENDBRANCH   1  18
BRANCH   6  22
ATOM     22  C   UNL     1       1.180  11.757  18.550  0.00  0.00    +0.000 C 
ATOM     23  O   UNL     1       0.091  12.207  18.204  0.00  0.00    +0.000 OA
ATOM     24  N   UNL     1       2.363  12.465  18.443  0.00  0.00    +0.000 N 
ATOM     25  H   UNL     1       3.196  12.113  18.899  0.00  0.00    +0.000 HD
BRANCH  24  26
ATOM     26  C   UNL     1       2.397  13.789  17.897  0.00  0.00    +0.000 C 
ATOM     27  C   UNL     1       2.232  14.997  18.778  0.00  0.00    +0.000 C 
ATOM     28  C   UNL     1       3.567  14.697  18.163  0.00  0.00    +0.000 C 
ENDBRANCH  24  26
ENDBRANCH   6  22
TORSDOF 3
ENDMDL
MODEL 9
REMARK VINA RESULT:      -6.8      3.790      7.024
REMARK  Name = 
REMARK  3 active torsions:
REMARK  status: ('A' for Active; 'I' for Inactive)
REMARK    1  A    between atoms: C_2  and  C_4
REMARK    2  A    between atoms: C_9  and  C_10
REMARK    3  A    between atoms: N_12  and  C_13
REMARK                            x       y       z     vdW  Elec       q    Type
REMARK                         _______ _______ _______ _____ _____    ______ ____
ROOT
ATOM      1  C   UNL     1       2.213   7.196  18.636  0.00  0.00    +0.000 C 
ATOM      2  C   UNL     1       1.989   8.703  18.429  0.00  0.00    +0.000 C 
ATOM      3  N   UNL     1       1.073   9.260  19.431  0.00  0.00    +0.000 N 
ATOM      4  C   UNL     1      -0.053   9.954  19.053  0.00  0.00    +0.000 A 
ATOM      5  C   UNL     1      -0.592  10.935  19.864  0.00  0.00    +0.000 A 
ATOM      6  C   UNL     1      -1.747  11.622  19.480  0.00  0.00    +0.000 A 
ATOM      7  C   UNL     1      -2.403  11.277  18.278  0.00  0.00    +0.000 A 
ATOM      8  C   UNL     1      -3.641  11.804  17.820  0.00  0.00    +0.000 A 
ATOM      9  C   UNL     1      -4.197  11.399  16.606  0.00  0.00    +0.000 A 
ATOM     10  C   UNL     1      -3.541  10.450  15.839  0.00  0.00    +0.000 A 
ATOM     11  C   UNL     1      -2.341   9.903  16.297  0.00  0.00    +0.000 A 
ATOM     12  C   UNL     1      -1.764  10.290  17.499  0.00  0.00    +0.000 A 
ATOM     13  N   UNL     1      -0.624   9.677  17.867  0.00  0.00    +0.000 NA
ATOM     14  C   UNL     1       1.278   8.831  20.818  0.00  0.00    +0.000 C 
ATOM     15  C   UNL     1       1.491   7.310  20.876  0.00  0.00    +0.000 C 
ATOM     16  O   UNL     1       2.559   6.897  20.011  0.00  0.00    +0.000 OA
ENDROOT
BRANCH   1  18
ATOM     17  N   UNL     1       3.553   5.385  17.671  0.00  0.00    +0.000 N 
ATOM     18  C   UNL     1       3.361   6.740  17.732  0.00  0.00    +0.000 C 
ATOM     19  O   UNL     1       4.114   7.507  17.142  0.00  0.00    +0.000 OA
ATOM     20  H   UNL     1       4.224   5.047  16.995  0.00  0.00    +0.000 HD
ATOM     21  H   UNL     1       2.764   4.789  17.905  0.00  0.00    +0.000 HD
ENDBRANCH   1  18
BRANCH   6  22
ATOM     22  C   UNL     1      -2.199  12.670  20.437  0.00  0.00    +0.000 C 
ATOM     23  O   UNL     1      -1.903  13.843  20.224  0.00  0.00    +0.000 OA
ATOM     24  N   UNL     1      -3.009  12.270  21.485  0.00  0.00    +0.000 N 
ATOM     25  H   UNL     1      -3.356  11.319  21.509  0.00  0.00    +0.000 HD
BRANCH  24  26
ATOM     26  C   UNL     1      -3.551  13.215  22.415  0.00  0.00    +0.000 C 
ATOM     27  C   UNL     1      -4.958  13.080  22.929  0.00  0.00    +0.000 C 
ATOM     28  C   UNL     1      -3.799  12.824  23.846  0.00  0.00    +0.000 C 
ENDBRANCH  24  26
ENDBRANCH   6  22
TORSDOF 3
ENDMDL
