MODEL 1
REMARK VINA RESULT:      -7.8      0.000      0.000
REMARK  Name = 
REMARK  12 active torsions:
REMARK  status: ('A' for Active; 'I' for Inactive)
REMARK    1  A    between atoms: C_1  and  O_2
REMARK    2  A    between atoms: O_2  and  C_3
REMARK    3  A    between atoms: C_5  and  C_6
REMARK    4  A    between atoms: C_9  and  C_10
REMARK    5  A    between atoms: C_13  and  N_14
REMARK    6  A    between atoms: N_14  and  C_15
REMARK    7  A    between atoms: C_15  and  C_16
REMARK    8  A    between atoms: C_21  and  N_22
REMARK    9  A    between atoms: C_28  and  O_29
REMARK   10  A    between atoms: O_29  and  C_30
REMARK   11  A    between atoms: C_31  and  O_32
REMARK   12  A    between atoms: O_32  and  C_33
REMARK                            x       y       z     vdW  Elec       q    Type
REMARK                         _______ _______ _______ _____ _____    ______ ____
ROOT
ATOM      1  C   UNL     1      -0.213  10.440  18.376  0.00  0.00    +0.000 A 
ATOM      2  N   UNL     1       0.838  11.278  18.297  0.00  0.00    +0.000 NA
ATOM      3  O   UNL     1       1.938  10.422  18.329  0.00  0.00    +0.000 OA
ATOM      4  C   UNL     1       1.446   9.154  18.424  0.00  0.00    +0.000 A 
ATOM      5  N   UNL     1       0.137   9.114  18.483  0.00  0.00    +0.000 NA
ENDROOT
BRANCH   1   8
ATOM      6  C   UNL     1      -3.540  12.087  19.029  0.00  0.00    +0.000 A 
ATOM      7  C   UNL     1      -2.269  11.525  19.250  0.00  0.00    +0.000 A 
ATOM      8  C   UNL     1      -1.600  10.844  18.236  0.00  0.00    +0.000 A 
ATOM      9  C   UNL     1      -2.260  10.631  17.028  0.00  0.00    +0.000 A 
ATOM     10  C   UNL     1      -3.560  11.102  16.810  0.00  0.00    +0.000 A 
ATOM     11  C   UNL     1      -4.222  11.844  17.814  0.00  0.00    +0.000 A 
BRANCH   6  13
ATOM     12  C   UNL     1      -3.495  12.828  21.285  0.00  0.00    +0.000 C 
ATOM     13  O   UNL     1      -4.116  12.875  19.995  0.00  0.00    +0.000 OA
ENDBRANCH   6  13
BRANCH  10  14
ATOM     14  O   UNL     1      -3.991  10.771  15.550  0.00  0.00    +0.000 OA
ATOM     15  C   UNL     1      -3.117  10.112  14.650  0.00  0.00    +0.000 C 
ENDBRANCH  10  14
BRANCH  11  16
ATOM     16  O   UNL     1      -5.470  12.282  17.476  0.00  0.00    +0.000 OA
ATOM     17  C   UNL     1      -6.647  11.659  17.950  0.00  0.00    +0.000 C 
ENDBRANCH  11  16
ENDBRANCH   1   8
BRANCH   4  18
ATOM     18  C   UNL     1       2.392   8.055  18.431  0.00  0.00    +0.000 A 
ATOM     19  C   UNL     1       2.344   7.061  19.406  0.00  0.00    +0.000 A 
ATOM     20  C   UNL     1       3.241   5.990  19.380  0.00  0.00    +0.000 A 
ATOM     21  C   UNL     1       4.200   5.833  18.362  0.00  0.00    +0.000 A 
ATOM     22  C   UNL     1       4.284   6.896  17.442  0.00  0.00    +0.000 A 
ATOM     23  C   UNL     1       3.390   7.984  17.453  0.00  0.00    +0.000 A 
BRANCH  22  24
ATOM     24  N   UNL     1       5.333   6.930  16.439  0.00  0.00    +0.000 N 
ATOM     25  O   UNL     1       4.990   6.855  15.252  0.00  0.00    +0.000 OA
ATOM     26  O   UNL     1       6.497   7.088  16.844  0.00  0.00    +0.000 OA
ENDBRANCH  22  24
BRANCH  21  27
ATOM     27  N   UNL     1       5.081   4.734  18.359  0.00  0.00    +0.000 N 
ATOM     28  H   UNL     1       6.065   5.041  18.309  0.00  0.00    +0.000 HD
BRANCH  27  29
ATOM     29  C   UNL     1       4.815   3.644  17.405  0.00  0.00    +0.000 C 
BRANCH  29  30
ATOM     30  C   UNL     1       3.752   2.654  17.875  0.00  0.00    +0.000 C 
ATOM     31  C   UNL     1       2.320   2.993  17.506  0.00  0.00    +0.000 C 
ATOM     32  C   UNL     1       1.555   2.242  18.567  0.00  0.00    +0.000 C 
ATOM     33  C   UNL     1       2.445   2.404  19.782  0.00  0.00    +0.000 C 
ATOM     34  O   UNL     1       3.794   2.505  19.306  0.00  0.00    +0.000 OA
ENDBRANCH  29  30
ENDBRANCH  27  29
ENDBRANCH  21  27
ENDBRANCH   4  18
TORSDOF 9
ENDMDL
MODEL 2
REMARK VINA RESULT:      -7.8      2.179     10.034
REMARK  Name = 
REMARK  12 active torsions:
REMARK  status: ('A' for Active; 'I' for Inactive)
REMARK    1  A    between atoms: C_1  and  O_2
REMARK    2  A    between atoms: O_2  and  C_3
REMARK    3  A    between atoms: C_5  and  C_6
REMARK    4  A    between atoms: C_9  and  C_10
REMARK    5  A    between atoms: C_13  and  N_14
REMARK    6  A    between atoms: N_14  and  C_15
REMARK    7  A    between atoms: C_15  and  C_16
REMARK    8  A    between atoms: C_21  and  N_22
REMARK    9  A    between atoms: C_28  and  O_29
REMARK   10  A    between atoms: O_29  and  C_30
REMARK   11  A    between atoms: C_31  and  O_32
REMARK   12  A    between atoms: O_32  and  C_33
REMARK                            x       y       z     vdW  Elec       q    Type
REMARK                         _______ _______ _______ _____ _____    ______ ____
ROOT
ATOM      1  C   UNL     1       2.465   7.564  18.863  0.00  0.00    +0.000 A 
ATOM      2  N   UNL     1       2.248   7.343  20.173  0.00  0.00    +0.000 NA
ATOM      3  O   UNL     1       1.276   8.286  20.504  0.00  0.00    +0.000 OA
ATOM      4  C   UNL     1       1.000   8.983  19.365  0.00  0.00    +0.000 A 
ATOM      5  N   UNL     1       1.722   8.597  18.340  0.00  0.00    +0.000 NA
ENDROOT
BRANCH   1   8
ATOM      6  C   UNL     1       5.385   6.344  16.815  0.00  0.00    +0.000 A 
ATOM      7  C   UNL     1       4.487   7.211  17.463  0.00  0.00    +0.000 A 
ATOM      8  C   UNL     1       3.300   6.733  18.015  0.00  0.00    +0.000 A 
ATOM      9  C   UNL     1       2.964   5.397  17.815  0.00  0.00    +0.000 A 
ATOM     10  C   UNL     1       3.796   4.530  17.098  0.00  0.00    +0.000 A 
ATOM     11  C   UNL     1       5.029   4.994  16.586  0.00  0.00    +0.000 A 
BRANCH   6  13
ATOM     12  C   UNL     1       7.427   7.388  17.435  0.00  0.00    +0.000 C 
ATOM     13  O   UNL     1       6.611   6.810  16.408  0.00  0.00    +0.000 OA
ENDBRANCH   6  13
BRANCH  10  14
ATOM     14  O   UNL     1       3.252   3.271  17.039  0.00  0.00    +0.000 OA
ATOM     15  C   UNL     1       3.287   2.428  18.177  0.00  0.00    +0.000 C 
ENDBRANCH  10  14
BRANCH  11  16
ATOM     16  O   UNL     1       5.773   4.052  15.936  0.00  0.00    +0.000 OA
ATOM     17  C   UNL     1       5.932   4.048  14.531  0.00  0.00    +0.000 C 
ENDBRANCH  11  16
ENDBRANCH   1   8
BRANCH   4  18
ATOM     18  C   UNL     1      -0.023  10.007  19.424  0.00  0.00    +0.000 A 
ATOM     19  C   UNL     1      -0.138  10.857  20.522  0.00  0.00    +0.000 A 
ATOM     20  C   UNL     1      -1.108  11.862  20.551  0.00  0.00    +0.000 A 
ATOM     21  C   UNL     1      -1.982  12.098  19.473  0.00  0.00    +0.000 A 
ATOM     22  C   UNL     1      -1.903  11.170  18.416  0.00  0.00    +0.000 A 
ATOM     23  C   UNL     1      -0.933  10.151  18.371  0.00  0.00    +0.000 A 
BRANCH  22  24
ATOM     24  N   UNL     1      -2.852  11.211  17.319  0.00  0.00    +0.000 N 
ATOM     25  O   UNL     1      -2.397  11.198  16.169  0.00  0.00    +0.000 OA
ATOM     26  O   UNL     1      -4.059  11.198  17.617  0.00  0.00    +0.000 OA
ENDBRANCH  22  24
BRANCH  21  27
ATOM     27  N   UNL     1      -2.940  13.129  19.529  0.00  0.00    +0.000 N 
ATOM     28  H   UNL     1      -2.526  14.042  19.282  0.00  0.00    +0.000 HD
BRANCH  27  29
ATOM     29  C   UNL     1      -3.768  13.232  20.742  0.00  0.00    +0.000 C 
BRANCH  29  30
ATOM     30  C   UNL     1      -5.076  12.447  20.668  0.00  0.00    +0.000 C 
ATOM     31  C   UNL     1      -6.170  13.057  19.812  0.00  0.00    +0.000 C 
ATOM     32  C   UNL     1      -7.403  12.437  20.419  0.00  0.00    +0.000 C 
ATOM     33  C   UNL     1      -7.053  12.399  21.892  0.00  0.00    +0.000 C 
ATOM     34  O   UNL     1      -5.629  12.258  21.984  0.00  0.00    +0.000 OA
ENDBRANCH  29  30
ENDBRANCH  27  29
ENDBRANCH  21  27
ENDBRANCH   4  18
TORSDOF 9
ENDMDL
MODEL 3
REMARK VINA RESULT:      -7.7      3.478      4.940
REMARK  Name = 
REMARK  12 active torsions:
REMARK  status: ('A' for Active; 'I' for Inactive)
REMARK    1  A    between atoms: C_1  and  O_2
REMARK    2  A    between atoms: O_2  and  C_3
REMARK    3  A    between atoms: C_5  and  C_6
REMARK    4  A    between atoms: C_9  and  C_10
REMARK    5  A    between atoms: C_13  and  N_14
REMARK    6  A    between atoms: N_14  and  C_15
REMARK    7  A    between atoms: C_15  and  C_16
REMARK    8  A    between atoms: C_21  and  N_22
REMARK    9  A    between atoms: C_28  and  O_29
REMARK   10  A    between atoms: O_29  and  C_30
REMARK   11  A    between atoms: C_31  and  O_32
REMARK   12  A    between atoms: O_32  and  C_33
REMARK                            x       y       z     vdW  Elec       q    Type
REMARK                         _______ _______ _______ _____ _____    ______ ____
ROOT
ATOM      1  C   UNL     1       1.068   8.890  20.359  0.00  0.00    +0.000 A 
ATOM      2  N   UNL     1       0.977   7.914  21.283  0.00  0.00    +0.000 NA
ATOM      3  O   UNL     1       1.678   6.856  20.707  0.00  0.00    +0.000 OA
ATOM      4  C   UNL     1       2.124   7.294  19.495  0.00  0.00    +0.000 A 
ATOM      5  N   UNL     1       1.753   8.522  19.225  0.00  0.00    +0.000 NA
ENDROOT
BRANCH   1   8
ATOM      6  C   UNL     1      -0.353  11.989  21.967  0.00  0.00    +0.000 A 
ATOM      7  C   UNL     1      -0.094  10.633  21.694  0.00  0.00    +0.000 A 
ATOM      8  C   UNL     1       0.611  10.253  20.554  0.00  0.00    +0.000 A 
ATOM      9  C   UNL     1       0.958  11.234  19.628  0.00  0.00    +0.000 A 
ATOM     10  C   UNL     1       0.636  12.581  19.830  0.00  0.00    +0.000 A 
ATOM     11  C   UNL     1      -0.027  12.981  21.012  0.00  0.00    +0.000 A 
BRANCH   6  13
ATOM     12  C   UNL     1      -2.348  12.248  23.230  0.00  0.00    +0.000 C 
ATOM     13  O   UNL     1      -0.921  12.348  23.165  0.00  0.00    +0.000 OA
ENDBRANCH   6  13
BRANCH  10  14
ATOM     14  O   UNL     1       1.084  13.350  18.786  0.00  0.00    +0.000 OA
ATOM     15  C   UNL     1       2.451  13.317  18.414  0.00  0.00    +0.000 C 
ENDBRANCH  10  14
BRANCH  11  16
ATOM     16  O   UNL     1      -0.258  14.322  21.117  0.00  0.00    +0.000 OA
ATOM     17  C   UNL     1      -1.392  14.944  20.547  0.00  0.00    +0.000 C 
ENDBRANCH  11  16
ENDBRANCH   1   8
BRANCH   4  18
ATOM     18  C   UNL     1       2.931   6.390  18.700  0.00  0.00    +0.000 A 
ATOM     19  C   UNL     1       4.044   6.840  17.993  0.00  0.00    +0.000 A 
ATOM     20  C   UNL     1       4.832   5.951  17.257  0.00  0.00    +0.000 A 
ATOM     21  C   UNL     1       4.577   4.567  17.222  0.00  0.00    +0.000 A 
ATOM     22  C   UNL     1       3.396   4.154  17.871  0.00  0.00    +0.000 A 
ATOM     23  C   UNL     1       2.590   5.036  18.616  0.00  0.00    +0.000 A 
BRANCH  22  24
ATOM     24  N   UNL     1       2.939   2.780  17.777  0.00  0.00    +0.000 N 
ATOM     25  O   UNL     1       3.767   1.886  17.994  0.00  0.00    +0.000 OA
ATOM     26  O   UNL     1       1.732   2.602  17.539  0.00  0.00    +0.000 OA
ENDBRANCH  22  24
BRANCH  21  27
ATOM     27  N   UNL     1       5.399   3.696  16.481  0.00  0.00    +0.000 N 
ATOM     28  H   UNL     1       5.572   2.816  16.992  0.00  0.00    +0.000 HD
BRANCH  27  29
ATOM     29  C   UNL     1       6.647   4.241  15.922  0.00  0.00    +0.000 C 
BRANCH  29  30
ATOM     30  C   UNL     1       6.519   4.738  14.484  0.00  0.00    +0.000 C 
ATOM     31  C   UNL     1       6.377   3.666  13.420  0.00  0.00    +0.000 C 
ATOM     32  C   UNL     1       6.878   4.394  12.198  0.00  0.00    +0.000 C 
ATOM     33  C   UNL     1       8.000   5.240  12.763  0.00  0.00    +0.000 C 
ATOM     34  O   UNL     1       7.656   5.544  14.121  0.00  0.00    +0.000 OA
ENDBRANCH  29  30
ENDBRANCH  27  29
ENDBRANCH  21  27
ENDBRANCH   4  18
TORSDOF 9
ENDMDL
MODEL 4
REMARK VINA RESULT:      -7.7      2.674     10.031
REMARK  Name = 
REMARK  12 active torsions:
REMARK  status: ('A' for Active; 'I' for Inactive)
REMARK    1  A    between atoms: C_1  and  O_2
REMARK    2  A    between atoms: O_2  and  C_3
REMARK    3  A    between atoms: C_5  and  C_6
REMARK    4  A    between atoms: C_9  and  C_10
REMARK    5  A    between atoms: C_13  and  N_14
REMARK    6  A    between atoms: N_14  and  C_15
REMARK    7  A    between atoms: C_15  and  C_16
REMARK    8  A    between atoms: C_21  and  N_22
REMARK    9  A    between atoms: C_28  and  O_29
REMARK   10  A    between atoms: O_29  and  C_30
REMARK   11  A    between atoms: C_31  and  O_32
REMARK   12  A    between atoms: O_32  and  C_33
REMARK                            x       y       z     vdW  Elec       q    Type
REMARK                         _______ _______ _______ _____ _____    ______ ____
ROOT
ATOM      1  C   UNL     1       2.519   6.882  19.280  0.00  0.00    +0.000 A 
ATOM      2  N   UNL     1       2.009   6.353  20.408  0.00  0.00    +0.000 NA
ATOM      3  O   UNL     1       1.214   7.379  20.917  0.00  0.00    +0.000 OA
ATOM      4  C   UNL     1       1.319   8.425  20.048  0.00  0.00    +0.000 A 
ATOM      5  N   UNL     1       2.128   8.180  19.045  0.00  0.00    +0.000 NA
ENDROOT
BRANCH   1   8
ATOM      6  C   UNL     1       5.253   5.964  16.852  0.00  0.00    +0.000 A 
ATOM      7  C   UNL     1       4.374   6.736  17.635  0.00  0.00    +0.000 A 
ATOM      8  C   UNL     1       3.307   6.146  18.309  0.00  0.00    +0.000 A 
ATOM      9  C   UNL     1       3.057   4.791  18.104  0.00  0.00    +0.000 A 
ATOM     10  C   UNL     1       3.862   4.016  17.261  0.00  0.00    +0.000 A 
ATOM     11  C   UNL     1       4.980   4.595  16.621  0.00  0.00    +0.000 A 
BRANCH   6  13
ATOM     12  C   UNL     1       7.414   6.864  17.252  0.00  0.00    +0.000 C 
ATOM     13  O   UNL     1       6.378   6.542  16.317  0.00  0.00    +0.000 OA
ENDBRANCH   6  13
BRANCH  10  14
ATOM     14  O   UNL     1       3.418   2.718  17.224  0.00  0.00    +0.000 OA
ATOM     15  C   UNL     1       3.541   1.892  18.369  0.00  0.00    +0.000 C 
ENDBRANCH  10  14
BRANCH  11  16
ATOM     16  O   UNL     1       5.712   3.736  15.853  0.00  0.00    +0.000 OA
ATOM     17  C   UNL     1       5.901   3.932  14.465  0.00  0.00    +0.000 C 
ENDBRANCH  11  16
ENDBRANCH   1   8
BRANCH   4  18
ATOM     18  C   UNL     1       0.545   9.619  20.324  0.00  0.00    +0.000 A 
ATOM     19  C   UNL     1       0.204   9.980  21.625  0.00  0.00    +0.000 A 
ATOM     20  C   UNL     1      -0.514  11.151  21.878  0.00  0.00    +0.000 A 
ATOM     21  C   UNL     1      -0.890  12.042  20.855  0.00  0.00    +0.000 A 
ATOM     22  C   UNL     1      -0.610  11.609  19.544  0.00  0.00    +0.000 A 
ATOM     23  C   UNL     1       0.111  10.431  19.270  0.00  0.00    +0.000 A 
BRANCH  22  24
ATOM     24  N   UNL     1      -1.084  12.360  18.396  0.00  0.00    +0.000 N 
ATOM     25  O   UNL     1      -0.585  13.474  18.198  0.00  0.00    +0.000 OA
ATOM     26  O   UNL     1      -1.919  11.803  17.663  0.00  0.00    +0.000 OA
ENDBRANCH  22  24
BRANCH  21  27
ATOM     27  N   UNL     1      -1.602  13.222  21.146  0.00  0.00    +0.000 N 
ATOM     28  H   UNL     1      -1.192  13.720  21.951  0.00  0.00    +0.000 HD
BRANCH  27  29
ATOM     29  C   UNL     1      -3.066  13.128  21.267  0.00  0.00    +0.000 C 
BRANCH  29  30
ATOM     30  C   UNL     1      -3.589  13.373  22.680  0.00  0.00    +0.000 C 
ATOM     31  C   UNL     1      -3.319  12.271  23.689  0.00  0.00    +0.000 C 
ATOM     32  C   UNL     1      -4.416  12.515  24.694  0.00  0.00    +0.000 C 
ATOM     33  C   UNL     1      -5.573  12.940  23.814  0.00  0.00    +0.000 C 
ATOM     34  O   UNL     1      -5.012  13.590  22.666  0.00  0.00    +0.000 OA
ENDBRANCH  29  30
ENDBRANCH  27  29
ENDBRANCH  21  27
ENDBRANCH   4  18
TORSDOF 9
ENDMDL
MODEL 5
REMARK VINA RESULT:      -7.6      2.643     10.211
REMARK  Name = 
REMARK  12 active torsions:
REMARK  status: ('A' for Active; 'I' for Inactive)
REMARK    1  A    between atoms: C_1  and  O_2
REMARK    2  A    between atoms: O_2  and  C_3
REMARK    3  A    between atoms: C_5  and  C_6
REMARK    4  A    between atoms: C_9  and  C_10
REMARK    5  A    between atoms: C_13  and  N_14
REMARK    6  A    between atoms: N_14  and  C_15
REMARK    7  A    between atoms: C_15  and  C_16
REMARK    8  A    between atoms: C_21  and  N_22
REMARK    9  A    between atoms: C_28  and  O_29
REMARK   10  A    between atoms: O_29  and  C_30
REMARK   11  A    between atoms: C_31  and  O_32
REMARK   12  A    between atoms: O_32  and  C_33
REMARK                            x       y       z     vdW  Elec       q    Type
REMARK                         _______ _______ _______ _____ _____    ______ ____
ROOT
ATOM      1  C   UNL     1       2.402   7.443  19.020  0.00  0.00    +0.000 A 
ATOM      2  N   UNL     1       2.075   7.098  20.280  0.00  0.00    +0.000 NA
ATOM      3  O   UNL     1       1.177   8.092  20.665  0.00  0.00    +0.000 OA
ATOM      4  C   UNL     1       1.048   8.937  19.603  0.00  0.00    +0.000 A 
ATOM      5  N   UNL     1       1.798   8.598  18.582  0.00  0.00    +0.000 NA
ENDROOT
BRANCH   1   8
ATOM      6  C   UNL     1       5.240   6.293  16.821  0.00  0.00    +0.000 A 
ATOM      7  C   UNL     1       4.356   7.138  17.517  0.00  0.00    +0.000 A 
ATOM      8  C   UNL     1       3.211   6.633  18.128  0.00  0.00    +0.000 A 
ATOM      9  C   UNL     1       2.896   5.288  17.943  0.00  0.00    +0.000 A 
ATOM     10  C   UNL     1       3.710   4.442  17.182  0.00  0.00    +0.000 A 
ATOM     11  C   UNL     1       4.903   4.935  16.608  0.00  0.00    +0.000 A 
BRANCH   6  13
ATOM     12  C   UNL     1       7.460   6.964  17.334  0.00  0.00    +0.000 C 
ATOM     13  O   UNL     1       6.432   6.788  16.352  0.00  0.00    +0.000 OA
ENDBRANCH   6  13
BRANCH  10  14
ATOM     14  O   UNL     1       3.193   3.171  17.149  0.00  0.00    +0.000 OA
ATOM     15  C   UNL     1       2.372   2.710  18.208  0.00  0.00    +0.000 C 
ENDBRANCH  10  14
BRANCH  11  16
ATOM     16  O   UNL     1       5.634   4.012  15.918  0.00  0.00    +0.000 OA
ATOM     17  C   UNL     1       5.860   4.109  14.526  0.00  0.00    +0.000 C 
ENDBRANCH  11  16
ENDBRANCH   1   8
BRANCH   4  18
ATOM     18  C   UNL     1       0.125  10.048  19.726  0.00  0.00    +0.000 A 
ATOM     19  C   UNL     1      -0.441  10.650  18.604  0.00  0.00    +0.000 A 
ATOM     20  C   UNL     1      -1.355  11.699  18.738  0.00  0.00    +0.000 A 
ATOM     21  C   UNL     1      -1.783  12.169  19.994  0.00  0.00    +0.000 A 
ATOM     22  C   UNL     1      -1.131  11.604  21.106  0.00  0.00    +0.000 A 
ATOM     23  C   UNL     1      -0.206  10.549  20.990  0.00  0.00    +0.000 A 
BRANCH  22  24
ATOM     24  N   UNL     1      -1.369  12.112  22.445  0.00  0.00    +0.000 N 
ATOM     25  O   UNL     1      -1.871  11.337  23.269  0.00  0.00    +0.000 OA
ATOM     26  O   UNL     1      -0.999  13.274  22.682  0.00  0.00    +0.000 OA
ENDBRANCH  22  24
BRANCH  21  27
ATOM     27  N   UNL     1      -2.717  13.219  20.094  0.00  0.00    +0.000 N 
ATOM     28  H   UNL     1      -2.451  13.890  20.832  0.00  0.00    +0.000 HD
BRANCH  27  29
ATOM     29  C   UNL     1      -4.143  12.863  20.189  0.00  0.00    +0.000 C 
BRANCH  29  30
ATOM     30  C   UNL     1      -4.841  13.421  21.427  0.00  0.00    +0.000 C 
ATOM     31  C   UNL     1      -4.162  14.601  22.098  0.00  0.00    +0.000 C 
ATOM     32  C   UNL     1      -4.701  14.493  23.502  0.00  0.00    +0.000 C 
ATOM     33  C   UNL     1      -4.759  12.994  23.712  0.00  0.00    +0.000 C 
ATOM     34  O   UNL     1      -4.993  12.398  22.429  0.00  0.00    +0.000 OA
ENDBRANCH  29  30
ENDBRANCH  27  29
ENDBRANCH  21  27
ENDBRANCH   4  18
TORSDOF 9
ENDMDL
MODEL 6
REMARK VINA RESULT:      -7.6      2.820     10.012
REMARK  Name = 
REMARK  12 active torsions:
REMARK  status: ('A' for Active; 'I' for Inactive)
REMARK    1  A    between atoms: C_1  and  O_2
REMARK    2  A    between atoms: O_2  and  C_3
REMARK    3  A    between atoms: C_5  and  C_6
REMARK    4  A    between atoms: C_9  and  C_10
REMARK    5  A    between atoms: C_13  and  N_14
REMARK    6  A    between atoms: N_14  and  C_15
REMARK    7  A    between atoms: C_15  and  C_16
REMARK    8  A    between atoms: C_21  and  N_22
REMARK    9  A    between atoms: C_28  and  O_29
REMARK   10  A    between atoms: O_29  and  C_30
REMARK   11  A    between atoms: C_31  and  O_32
REMARK   12  A    between atoms: O_32  and  C_33
REMARK                            x       y       z     vdW  Elec       q    Type
REMARK                         _______ _______ _______ _____ _____    ______ ____
ROOT
ATOM      1  C   UNL     1       2.333   7.846  18.524  0.00  0.00    +0.000 A 
ATOM      2  N   UNL     1       2.577   8.591  17.429  0.00  0.00    +0.000 NA
ATOM      3  O   UNL     1       1.838   9.751  17.654  0.00  0.00    +0.000 OA
ATOM      4  C   UNL     1       1.221   9.596  18.860  0.00  0.00    +0.000 A 
ATOM      5  N   UNL     1       1.471   8.436  19.420  0.00  0.00    +0.000 NA
ENDROOT
BRANCH   1   8
ATOM      6  C   UNL     1       3.095   4.487  20.056  0.00  0.00    +0.000 A 
ATOM      7  C   UNL     1       2.583   5.788  19.892  0.00  0.00    +0.000 A 
ATOM      8  C   UNL     1       2.995   6.592  18.832  0.00  0.00    +0.000 A 
ATOM      9  C   UNL     1       4.010   6.127  17.999  0.00  0.00    +0.000 A 
ATOM     10  C   UNL     1       4.600   4.873  18.191  0.00  0.00    +0.000 A 
ATOM     11  C   UNL     1       4.146   4.028  19.229  0.00  0.00    +0.000 A 
BRANCH   6  13
ATOM     12  C   UNL     1       1.196   3.293  20.838  0.00  0.00    +0.000 C 
ATOM     13  O   UNL     1       2.568   3.663  21.020  0.00  0.00    +0.000 OA
ENDBRANCH   6  13
BRANCH  10  14
ATOM     14  O   UNL     1       5.569   4.642  17.247  0.00  0.00    +0.000 OA
ATOM     15  C   UNL     1       5.217   4.095  15.987  0.00  0.00    +0.000 C 
ENDBRANCH  10  14
BRANCH  11  16
ATOM     16  O   UNL     1       4.770   2.816  19.299  0.00  0.00    +0.000 OA
ATOM     17  C   UNL     1       4.124   1.609  18.948  0.00  0.00    +0.000 C 
ENDBRANCH  11  16
ENDBRANCH   1   8
BRANCH   4  18
ATOM     18  C   UNL     1       0.414  10.692  19.358  0.00  0.00    +0.000 A 
ATOM     19  C   UNL     1      -0.189  11.602  18.493  0.00  0.00    +0.000 A 
ATOM     20  C   UNL     1      -0.991  12.634  18.986  0.00  0.00    +0.000 A 
ATOM     21  C   UNL     1      -1.267  12.786  20.357  0.00  0.00    +0.000 A 
ATOM     22  C   UNL     1      -0.574  11.909  21.214  0.00  0.00    +0.000 A 
ATOM     23  C   UNL     1       0.239  10.864  20.736  0.00  0.00    +0.000 A 
BRANCH  22  24
ATOM     24  N   UNL     1      -0.651  12.062  22.655  0.00  0.00    +0.000 N 
ATOM     25  O   UNL     1      -0.890  11.050  23.326  0.00  0.00    +0.000 OA
ATOM     26  O   UNL     1      -0.415  13.193  23.116  0.00  0.00    +0.000 OA
ENDBRANCH  22  24
BRANCH  21  27
ATOM     27  N   UNL     1      -2.092  13.831  20.820  0.00  0.00    +0.000 N 
ATOM     28  H   UNL     1      -1.783  14.173  21.743  0.00  0.00    +0.000 HD
BRANCH  27  29
ATOM     29  C   UNL     1      -3.548  13.619  20.791  0.00  0.00    +0.000 C 
BRANCH  29  30
ATOM     30  C   UNL     1      -4.206  13.640  22.169  0.00  0.00    +0.000 C 
ATOM     31  C   UNL     1      -3.594  14.588  23.183  0.00  0.00    +0.000 C 
ATOM     32  C   UNL     1      -4.019  13.949  24.481  0.00  0.00    +0.000 C 
ATOM     33  C   UNL     1      -3.923  12.472  24.161  0.00  0.00    +0.000 C 
ATOM     34  O   UNL     1      -4.190  12.326  22.759  0.00  0.00    +0.000 OA
ENDBRANCH  29  30
ENDBRANCH  27  29
ENDBRANCH  21  27
ENDBRANCH   4  18
TORSDOF 9
ENDMDL
MODEL 7
REMARK VINA RESULT:      -7.6      2.934      4.595
REMARK  Name = 
REMARK  12 active torsions:
REMARK  status: ('A' for Active; 'I' for Inactive)
REMARK    1  A    between atoms: C_1  and  O_2
REMARK    2  A    between atoms: O_2  and  C_3
REMARK    3  A    between atoms: C_5  and  C_6
REMARK    4  A    between atoms: C_9  and  C_10
REMARK    5  A    between atoms: C_13  and  N_14
REMARK    6  A    between atoms: N_14  and  C_15
REMARK    7  A    between atoms: C_15  and  C_16
REMARK    8  A    between atoms: C_21  and  N_22
REMARK    9  A    between atoms: C_28  and  O_29
REMARK   10  A    between atoms: O_29  and  C_30
REMARK   11  A    between atoms: C_31  and  O_32
REMARK   12  A    between atoms: O_32  and  C_33
REMARK                            x       y       z     vdW  Elec       q    Type
REMARK                         _______ _______ _______ _____ _____    ______ ____
ROOT
ATOM      1  C   UNL     1       1.121   9.069  19.866  0.00  0.00    +0.000 A 
ATOM      2  N   UNL     1       1.040   8.144  20.840  0.00  0.00    +0.000 NA
ATOM      3  O   UNL     1       1.873   7.122  20.387  0.00  0.00    +0.000 OA
ATOM      4  C   UNL     1       2.375   7.529  19.187  0.00  0.00    +0.000 A 
ATOM      5  N   UNL     1       1.924   8.702  18.811  0.00  0.00    +0.000 NA
ENDROOT
BRANCH   1   8
ATOM      6  C   UNL     1       0.585  12.699  20.732  0.00  0.00    +0.000 A 
ATOM      7  C   UNL     1       1.023  11.364  20.812  0.00  0.00    +0.000 A 
ATOM      8  C   UNL     1       0.535  10.395  19.938  0.00  0.00    +0.000 A 
ATOM      9  C   UNL     1      -0.482  10.748  19.053  0.00  0.00    +0.000 A 
ATOM     10  C   UNL     1      -0.999  12.048  19.011  0.00  0.00    +0.000 A 
ATOM     11  C   UNL     1      -0.468  13.049  19.854  0.00  0.00    +0.000 A 
BRANCH   6  13
ATOM     12  C   UNL     1       2.530  13.999  21.143  0.00  0.00    +0.000 C 
ATOM     13  O   UNL     1       1.185  13.662  21.505  0.00  0.00    +0.000 OA
ENDBRANCH   6  13
BRANCH  10  14
ATOM     14  O   UNL     1      -1.985  12.147  18.062  0.00  0.00    +0.000 OA
ATOM     15  C   UNL     1      -2.788  11.022  17.751  0.00  0.00    +0.000 C 
ENDBRANCH  10  14
BRANCH  11  16
ATOM     16  O   UNL     1      -1.026  14.285  19.701  0.00  0.00    +0.000 OA
ATOM     17  C   UNL     1      -0.327  15.366  19.115  0.00  0.00    +0.000 C 
ENDBRANCH  11  16
ENDBRANCH   1   8
BRANCH   4  18
ATOM     18  C   UNL     1       3.318   6.657  18.513  0.00  0.00    +0.000 A 
ATOM     19  C   UNL     1       4.105   7.115  17.459  0.00  0.00    +0.000 A 
ATOM     20  C   UNL     1       5.033   6.273  16.841  0.00  0.00    +0.000 A 
ATOM     21  C   UNL     1       5.254   4.950  17.269  0.00  0.00    +0.000 A 
ATOM     22  C   UNL     1       4.384   4.488  18.275  0.00  0.00    +0.000 A 
ATOM     23  C   UNL     1       3.442   5.321  18.908  0.00  0.00    +0.000 A 
BRANCH  22  24
ATOM     24  N   UNL     1       4.405   3.098  18.694  0.00  0.00    +0.000 N 
ATOM     25  O   UNL     1       3.785   2.283  18.000  0.00  0.00    +0.000 OA
ATOM     26  O   UNL     1       5.093   2.819  19.692  0.00  0.00    +0.000 OA
ENDBRANCH  22  24
BRANCH  21  27
ATOM     27  N   UNL     1       6.208   4.131  16.632  0.00  0.00    +0.000 N 
ATOM     28  H   UNL     1       7.124   4.601  16.569  0.00  0.00    +0.000 HD
BRANCH  27  29
ATOM     29  C   UNL     1       5.836   3.516  15.348  0.00  0.00    +0.000 C 
BRANCH  29  30
ATOM     30  C   UNL     1       6.140   4.386  14.131  0.00  0.00    +0.000 C 
ATOM     31  C   UNL     1       6.363   3.646  12.824  0.00  0.00    +0.000 C 
ATOM     32  C   UNL     1       7.194   4.644  12.058  0.00  0.00    +0.000 C 
ATOM     33  C   UNL     1       8.063   5.243  13.143  0.00  0.00    +0.000 C 
ATOM     34  O   UNL     1       7.310   5.192  14.362  0.00  0.00    +0.000 OA
ENDBRANCH  29  30
ENDBRANCH  27  29
ENDBRANCH  21  27
ENDBRANCH   4  18
TORSDOF 9
ENDMDL
MODEL 8
REMARK VINA RESULT:      -7.6      2.261     10.048
REMARK  Name = 
REMARK  12 active torsions:
REMARK  status: ('A' for Active; 'I' for Inactive)
REMARK    1  A    between atoms: C_1  and  O_2
REMARK    2  A    between atoms: O_2  and  C_3
REMARK    3  A    between atoms: C_5  and  C_6
REMARK    4  A    between atoms: C_9  and  C_10
REMARK    5  A    between atoms: C_13  and  N_14
REMARK    6  A    between atoms: N_14  and  C_15
REMARK    7  A    between atoms: C_15  and  C_16
REMARK    8  A    between atoms: C_21  and  N_22
REMARK    9  A    between atoms: C_28  and  O_29
REMARK   10  A    between atoms: O_29  and  C_30
REMARK   11  A    between atoms: C_31  and  O_32
REMARK   12  A    between atoms: O_32  and  C_33
REMARK                            x       y       z     vdW  Elec       q    Type
REMARK                         _______ _______ _______ _____ _____    ______ ____
ROOT
ATOM      1  C   UNL     1       2.539   7.399  18.917  0.00  0.00    +0.000 A 
ATOM      2  N   UNL     1       2.242   7.113  20.198  0.00  0.00    +0.000 NA
ATOM      3  O   UNL     1       1.311   8.092  20.542  0.00  0.00    +0.000 OA
ATOM      4  C   UNL     1       1.135   8.871  19.437  0.00  0.00    +0.000 A 
ATOM      5  N   UNL     1       1.884   8.505  18.425  0.00  0.00    +0.000 NA
ENDROOT
BRANCH   1   8
ATOM      6  C   UNL     1       5.434   6.193  16.826  0.00  0.00    +0.000 A 
ATOM      7  C   UNL     1       4.540   7.056  17.485  0.00  0.00    +0.000 A 
ATOM      8  C   UNL     1       3.366   6.571  18.059  0.00  0.00    +0.000 A 
ATOM      9  C   UNL     1       3.037   5.231  17.870  0.00  0.00    +0.000 A 
ATOM     10  C   UNL     1       3.865   4.368  17.143  0.00  0.00    +0.000 A 
ATOM     11  C   UNL     1       5.085   4.840  16.608  0.00  0.00    +0.000 A 
BRANCH   6  13
ATOM     12  C   UNL     1       7.500   7.206  17.416  0.00  0.00    +0.000 C 
ATOM     13  O   UNL     1       6.650   6.667  16.397  0.00  0.00    +0.000 OA
ENDBRANCH   6  13
BRANCH  10  14
ATOM     14  O   UNL     1       3.330   3.105  17.098  0.00  0.00    +0.000 OA
ATOM     15  C   UNL     1       3.463   2.237  18.210  0.00  0.00    +0.000 C 
ENDBRANCH  10  14
BRANCH  11  16
ATOM     16  O   UNL     1       5.826   3.901  15.950  0.00  0.00    +0.000 OA
ATOM     17  C   UNL     1       6.028   3.939  14.551  0.00  0.00    +0.000 C 
ENDBRANCH  11  16
ENDBRANCH   1   8
BRANCH   4  18
ATOM     18  C   UNL     1       0.171   9.951  19.513  0.00  0.00    +0.000 A 
ATOM     19  C   UNL     1      -0.668  10.252  18.442  0.00  0.00    +0.000 A 
ATOM     20  C   UNL     1      -1.615  11.275  18.541  0.00  0.00    +0.000 A 
ATOM     21  C   UNL     1      -1.803  12.018  19.721  0.00  0.00    +0.000 A 
ATOM     22  C   UNL     1      -0.883  11.753  20.755  0.00  0.00    +0.000 A 
ATOM     23  C   UNL     1       0.079  10.729  20.672  0.00  0.00    +0.000 A 
BRANCH  22  24
ATOM     24  N   UNL     1      -0.871  12.558  21.963  0.00  0.00    +0.000 N 
ATOM     25  O   UNL     1       0.123  13.266  22.168  0.00  0.00    +0.000 OA
ATOM     26  O   UNL     1      -1.888  12.520  22.677  0.00  0.00    +0.000 OA
ENDBRANCH  22  24
BRANCH  21  27
ATOM     27  N   UNL     1      -2.777  13.034  19.792  0.00  0.00    +0.000 N 
ATOM     28  H   UNL     1      -2.469  13.808  20.400  0.00  0.00    +0.000 HD
BRANCH  27  29
ATOM     29  C   UNL     1      -4.161  12.637  20.097  0.00  0.00    +0.000 C 
BRANCH  29  30
ATOM     30  C   UNL     1      -5.021  12.384  18.861  0.00  0.00    +0.000 C 
ATOM     31  C   UNL     1      -6.258  13.252  18.722  0.00  0.00    +0.000 C 
ATOM     32  C   UNL     1      -7.127  12.391  17.841  0.00  0.00    +0.000 C 
ATOM     33  C   UNL     1      -6.814  10.996  18.342  0.00  0.00    +0.000 C 
ATOM     34  O   UNL     1      -5.462  11.014  18.820  0.00  0.00    +0.000 OA
ENDBRANCH  29  30
ENDBRANCH  27  29
ENDBRANCH  21  27
ENDBRANCH   4  18
TORSDOF 9
ENDMDL
MODEL 9
REMARK VINA RESULT:      -7.6      2.774     10.244
REMARK  Name = 
REMARK  12 active torsions:
REMARK  status: ('A' for Active; 'I' for Inactive)
REMARK    1  A    between atoms: C_1  and  O_2
REMARK    2  A    between atoms: O_2  and  C_3
REMARK    3  A    between atoms: C_5  and  C_6
REMARK    4  A    between atoms: C_9  and  C_10
REMARK    5  A    between atoms: C_13  and  N_14
REMARK    6  A    between atoms: N_14  and  C_15
REMARK    7  A    between atoms: C_15  and  C_16
REMARK    8  A    between atoms: C_21  and  N_22
REMARK    9  A    between atoms: C_28  and  O_29
REMARK   10  A    between atoms: O_29  and  C_30
REMARK   11  A    between atoms: C_31  and  O_32
REMARK   12  A    between atoms: O_32  and  C_33
REMARK                            x       y       z     vdW  Elec       q    Type
REMARK                         _______ _______ _______ _____ _____    ______ ____
ROOT
ATOM      1  C   UNL     1       2.238   7.917  18.444  0.00  0.00    +0.000 A 
ATOM      2  N   UNL     1       2.592   8.817  17.507  0.00  0.00    +0.000 NA
ATOM      3  O   UNL     1       1.800   9.925  17.805  0.00  0.00    +0.000 OA
ATOM      4  C   UNL     1       1.048   9.589  18.892  0.00  0.00    +0.000 A 
ATOM      5  N   UNL     1       1.260   8.362  19.304  0.00  0.00    +0.000 NA
ENDROOT
BRANCH   1   8
ATOM      6  C   UNL     1       4.718   5.090  18.189  0.00  0.00    +0.000 A 
ATOM      7  C   UNL     1       3.967   6.233  17.858  0.00  0.00    +0.000 A 
ATOM      8  C   UNL     1       2.891   6.637  18.645  0.00  0.00    +0.000 A 
ATOM      9  C   UNL     1       2.500   5.824  19.707  0.00  0.00    +0.000 A 
ATOM     10  C   UNL     1       3.173   4.634  20.007  0.00  0.00    +0.000 A 
ATOM     11  C   UNL     1       4.301   4.249  19.248  0.00  0.00    +0.000 A 
BRANCH   6  13
ATOM     12  C   UNL     1       5.660   4.099  16.247  0.00  0.00    +0.000 C 
ATOM     13  O   UNL     1       5.858   4.794  17.484  0.00  0.00    +0.000 OA
ENDBRANCH   6  13
BRANCH  10  14
ATOM     14  O   UNL     1       2.605   4.014  21.091  0.00  0.00    +0.000 OA
ATOM     15  C   UNL     1       1.367   3.337  20.953  0.00  0.00    +0.000 C 
ENDBRANCH  10  14
BRANCH  11  16
ATOM     16  O   UNL     1       4.899   3.090  19.653  0.00  0.00    +0.000 OA
ATOM     17  C   UNL     1       4.373   1.816  19.340  0.00  0.00    +0.000 C 
ENDBRANCH  11  16
ENDBRANCH   1   8
BRANCH   4  18
ATOM     18  C   UNL     1       0.159  10.593  19.441  0.00  0.00    +0.000 A 
ATOM     19  C   UNL     1      -0.560  11.457  18.617  0.00  0.00    +0.000 A 
ATOM     20  C   UNL     1      -1.438  12.398  19.160  0.00  0.00    +0.000 A 
ATOM     21  C   UNL     1      -1.677  12.498  20.543  0.00  0.00    +0.000 A 
ATOM     22  C   UNL     1      -0.872  11.675  21.356  0.00  0.00    +0.000 A 
ATOM     23  C   UNL     1       0.019  10.723  20.827  0.00  0.00    +0.000 A 
BRANCH  22  24
ATOM     24  N   UNL     1      -0.910  11.794  22.802  0.00  0.00    +0.000 N 
ATOM     25  O   UNL     1      -0.914  12.935  23.281  0.00  0.00    +0.000 OA
ATOM     26  O   UNL     1      -0.993  10.739  23.454  0.00  0.00    +0.000 OA
ENDBRANCH  22  24
BRANCH  21  27
ATOM     27  N   UNL     1      -2.580  13.449  21.057  0.00  0.00    +0.000 N 
ATOM     28  H   UNL     1      -2.482  13.547  22.080  0.00  0.00    +0.000 HD
BRANCH  27  29
ATOM     29  C   UNL     1      -3.995  13.333  20.667  0.00  0.00    +0.000 C 
BRANCH  29  30
ATOM     30  C   UNL     1      -4.924  12.944  21.814  0.00  0.00    +0.000 C 
ATOM     31  C   UNL     1      -5.737  14.072  22.423  0.00  0.00    +0.000 C 
ATOM     32  C   UNL     1      -6.020  13.523  23.798  0.00  0.00    +0.000 C 
ATOM     33  C   UNL     1      -4.734  12.794  24.127  0.00  0.00    +0.000 C 
ATOM     34  O   UNL     1      -4.182  12.334  22.886  0.00  0.00    +0.000 OA
ENDBRANCH  29  30
ENDBRANCH  27  29
ENDBRANCH  21  27
ENDBRANCH   4  18
TORSDOF 9
ENDMDL
