MODEL 1
REMARK VINA RESULT:      -8.2      0.000      0.000
REMARK  Name = 
REMARK  7 active torsions:
REMARK  status: ('A' for Active; 'I' for Inactive)
REMARK    1  A    between atoms: C_1  and  O_2
REMARK    2  A    between atoms: O_2  and  C_3
REMARK    3  A    between atoms: C_8  and  N_9
REMARK    4  A    between atoms: N_12  and  C_13
REMARK    5  A    between atoms: C_13  and  C_14
REMARK    6  A    between atoms: C_14  and  N_15
REMARK    7  A    between atoms: N_27  and  C_28
REMARK                            x       y       z     vdW  Elec       q    Type
REMARK                         _______ _______ _______ _____ _____    ______ ____
ROOT
ATOM      1  N   UNL     1       1.847   6.355  19.767  0.00  0.00    +0.000 N 
ATOM      2  C   UNL     1       2.562   7.117  18.843  0.00  0.00    +0.000 C 
ATOM      3  O   UNL     1       2.279   8.260  18.503  0.00  0.00    +0.000 OA
ATOM      4  C   UNL     1       3.756   6.358  18.374  0.00  0.00    +0.000 C 
ATOM      5  N   UNL     1       4.674   7.054  17.472  0.00  0.00    +0.000 N 
ATOM      6  C   UNL     1       5.248   5.899  16.857  0.00  0.00    +0.000 A 
ATOM      7  C   UNL     1       6.413   5.962  16.115  0.00  0.00    +0.000 A 
ATOM      8  C   UNL     1       6.814   4.809  15.451  0.00  0.00    +0.000 A 
ATOM      9  C   UNL     1       6.020   3.651  15.507  0.00  0.00    +0.000 A 
ATOM     10  C   UNL     1       4.833   3.606  16.248  0.00  0.00    +0.000 A 
ATOM     11  C   UNL     1       4.455   4.729  16.966  0.00  0.00    +0.000 A 
ATOM     12  C   UNL     1       3.207   5.079  17.733  0.00  0.00    +0.000 C 
ATOM     13  N   UNL     1       2.627   4.307  18.837  0.00  0.00    +0.000 N 
ATOM     14  C   UNL     1       2.652   2.862  18.910  0.00  0.00    +0.000 C 
ATOM     15  C   UNL     1       1.784   4.954  19.756  0.00  0.00    +0.000 C 
ATOM     16  O   UNL     1       1.117   4.330  20.581  0.00  0.00    +0.000 OA
ATOM     17  H   UNL     1       4.160   7.592  16.769  0.00  0.00    +0.000 HD
ENDROOT
BRANCH   1  18
ATOM     18  C   UNL     1       1.650   6.994  21.064  0.00  0.00    +0.000 C 
BRANCH  18  19
ATOM     19  C   UNL     1       0.825   8.297  20.832  0.00  0.00    +0.000 C 
BRANCH  19  23
ATOM     20  N   UNL     1      -0.952  11.130  22.395  0.00  0.00    +0.000 N 
ATOM     21  C   UNL     1      -0.654  11.086  20.957  0.00  0.00    +0.000 C 
ATOM     22  C   UNL     1       0.843  10.744  20.742  0.00  0.00    +0.000 C 
ATOM     23  N   UNL     1       1.346   9.531  21.426  0.00  0.00    +0.000 NA
ATOM     24  C   UNL     1       0.953   9.615  22.861  0.00  0.00    +0.000 C 
ATOM     25  C   UNL     1      -0.540   9.935  23.144  0.00  0.00    +0.000 C 
BRANCH  20  31
ATOM     26  C   UNL     1      -1.176  13.489  23.156  0.00  0.00    +0.000 A 
ATOM     27  C   UNL     1      -1.944  14.453  23.836  0.00  0.00    +0.000 A 
ATOM     28  C   UNL     1      -3.222  14.158  24.298  0.00  0.00    +0.000 A 
ATOM     29  C   UNL     1      -3.742  12.890  24.096  0.00  0.00    +0.000 A 
ATOM     30  C   UNL     1      -2.974  11.917  23.452  0.00  0.00    +0.000 A 
ATOM     31  C   UNL     1      -1.670  12.169  22.972  0.00  0.00    +0.000 A 
BRANCH  26  33
ATOM     32  C   UNL     1       0.380  15.161  22.456  0.00  0.00    +0.000 C 
ATOM     33  O   UNL     1       0.076  13.786  22.661  0.00  0.00    +0.000 OA
ENDBRANCH  26  33
ENDBRANCH  20  31
ENDBRANCH  19  23
ENDBRANCH  18  19
ENDBRANCH   1  18
TORSDOF 5
ENDMDL
MODEL 2
REMARK VINA RESULT:      -8.0      2.959      9.782
REMARK  Name = 
REMARK  7 active torsions:
REMARK  status: ('A' for Active; 'I' for Inactive)
REMARK    1  A    between atoms: C_1  and  O_2
REMARK    2  A    between atoms: O_2  and  C_3
REMARK    3  A    between atoms: C_8  and  N_9
REMARK    4  A    between atoms: N_12  and  C_13
REMARK    5  A    between atoms: C_13  and  C_14
REMARK    6  A    between atoms: C_14  and  N_15
REMARK    7  A    between atoms: N_27  and  C_28
REMARK                            x       y       z     vdW  Elec       q    Type
REMARK                         _______ _______ _______ _____ _____    ______ ____
ROOT
ATOM      1  N   UNL     1      -0.785  12.863  20.654  0.00  0.00    +0.000 N 
ATOM      2  C   UNL     1      -1.347  12.852  19.378  0.00  0.00    +0.000 C 
ATOM      3  O   UNL     1      -0.820  13.310  18.371  0.00  0.00    +0.000 OA
ATOM      4  C   UNL     1      -2.660  12.146  19.408  0.00  0.00    +0.000 C 
ATOM      5  N   UNL     1      -3.342  11.956  18.128  0.00  0.00    +0.000 N 
ATOM      6  C   UNL     1      -4.670  11.828  18.638  0.00  0.00    +0.000 A 
ATOM      7  C   UNL     1      -5.708  11.327  17.873  0.00  0.00    +0.000 A 
ATOM      8  C   UNL     1      -6.985  11.367  18.418  0.00  0.00    +0.000 A 
ATOM      9  C   UNL     1      -7.193  11.945  19.682  0.00  0.00    +0.000 A 
ATOM     10  C   UNL     1      -6.137  12.464  20.439  0.00  0.00    +0.000 A 
ATOM     11  C   UNL     1      -4.850  12.373  19.934  0.00  0.00    +0.000 A 
ATOM     12  C   UNL     1      -3.530  12.935  20.392  0.00  0.00    +0.000 C 
ATOM     13  N   UNL     1      -2.915  12.732  21.708  0.00  0.00    +0.000 N 
ATOM     14  C   UNL     1      -3.665  12.632  22.942  0.00  0.00    +0.000 C 
ATOM     15  C   UNL     1      -1.525  12.885  21.845  0.00  0.00    +0.000 C 
ATOM     16  O   UNL     1      -0.978  12.920  22.947  0.00  0.00    +0.000 OA
ATOM     17  H   UNL     1      -3.281  12.800  17.552  0.00  0.00    +0.000 HD
ENDROOT
BRANCH   1  18
ATOM     18  C   UNL     1       0.547  12.273  20.741  0.00  0.00    +0.000 C 
BRANCH  18  19
ATOM     19  C   UNL     1       0.404  10.872  21.413  0.00  0.00    +0.000 C 
BRANCH  19  23
ATOM     20  N   UNL     1       1.911   8.000  19.652  0.00  0.00    +0.000 N 
ATOM     21  C   UNL     1       1.721   9.305  19.007  0.00  0.00    +0.000 C 
ATOM     22  C   UNL     1       0.264   9.790  19.221  0.00  0.00    +0.000 C 
ATOM     23  N   UNL     1      -0.223   9.813  20.619  0.00  0.00    +0.000 NA
ATOM     24  C   UNL     1       0.060   8.482  21.227  0.00  0.00    +0.000 C 
ATOM     25  C   UNL     1       1.509   7.949  21.064  0.00  0.00    +0.000 C 
BRANCH  20  31
ATOM     26  C   UNL     1       2.370   5.570  19.364  0.00  0.00    +0.000 A 
ATOM     27  C   UNL     1       3.111   4.568  18.711  0.00  0.00    +0.000 A 
ATOM     28  C   UNL     1       3.979   4.879  17.670  0.00  0.00    +0.000 A 
ATOM     29  C   UNL     1       4.124   6.199  17.278  0.00  0.00    +0.000 A 
ATOM     30  C   UNL     1       3.417   7.204  17.942  0.00  0.00    +0.000 A 
ATOM     31  C   UNL     1       2.530   6.937  19.007  0.00  0.00    +0.000 A 
BRANCH  26  33
ATOM     32  C   UNL     1       1.082   3.904  20.491  0.00  0.00    +0.000 C 
ATOM     33  O   UNL     1       1.479   5.265  20.371  0.00  0.00    +0.000 OA
ENDBRANCH  26  33
ENDBRANCH  20  31
ENDBRANCH  19  23
ENDBRANCH  18  19
ENDBRANCH   1  18
TORSDOF 5
ENDMDL
MODEL 3
REMARK VINA RESULT:      -7.9      0.551      1.066
REMARK  Name = 
REMARK  7 active torsions:
REMARK  status: ('A' for Active; 'I' for Inactive)
REMARK    1  A    between atoms: C_1  and  O_2
REMARK    2  A    between atoms: O_2  and  C_3
REMARK    3  A    between atoms: C_8  and  N_9
REMARK    4  A    between atoms: N_12  and  C_13
REMARK    5  A    between atoms: C_13  and  C_14
REMARK    6  A    between atoms: C_14  and  N_15
REMARK    7  A    between atoms: N_27  and  C_28
REMARK                            x       y       z     vdW  Elec       q    Type
REMARK                         _______ _______ _______ _____ _____    ______ ____
ROOT
ATOM      1  N   UNL     1       1.985   6.405  19.733  0.00  0.00    +0.000 N 
ATOM      2  C   UNL     1       2.661   7.140  18.761  0.00  0.00    +0.000 C 
ATOM      3  O   UNL     1       2.352   8.266  18.386  0.00  0.00    +0.000 OA
ATOM      4  C   UNL     1       3.852   6.380  18.284  0.00  0.00    +0.000 C 
ATOM      5  N   UNL     1       4.733   7.053  17.329  0.00  0.00    +0.000 N 
ATOM      6  C   UNL     1       5.304   5.884  16.741  0.00  0.00    +0.000 A 
ATOM      7  C   UNL     1       6.446   5.934  15.962  0.00  0.00    +0.000 A 
ATOM      8  C   UNL     1       6.843   4.762  15.330  0.00  0.00    +0.000 A 
ATOM      9  C   UNL     1       6.067   3.597  15.454  0.00  0.00    +0.000 A 
ATOM     10  C   UNL     1       4.904   3.564  16.231  0.00  0.00    +0.000 A 
ATOM     11  C   UNL     1       4.532   4.708  16.918  0.00  0.00    +0.000 A 
ATOM     12  C   UNL     1       3.302   5.070  17.709  0.00  0.00    +0.000 C 
ATOM     13  N   UNL     1       2.766   4.333  18.858  0.00  0.00    +0.000 N 
ATOM     14  C   UNL     1       2.814   2.892  18.984  0.00  0.00    +0.000 C 
ATOM     15  C   UNL     1       1.942   5.003  19.778  0.00  0.00    +0.000 C 
ATOM     16  O   UNL     1       1.309   4.402  20.645  0.00  0.00    +0.000 OA
ATOM     17  H   UNL     1       4.190   7.557  16.623  0.00  0.00    +0.000 HD
ENDROOT
BRANCH   1  18
ATOM     18  C   UNL     1       1.818   7.089  21.011  0.00  0.00    +0.000 C 
BRANCH  18  19
ATOM     19  C   UNL     1       1.213   8.497  20.721  0.00  0.00    +0.000 C 
BRANCH  19  23
ATOM     20  N   UNL     1      -0.754  11.220  22.252  0.00  0.00    +0.000 N 
ATOM     21  C   UNL     1      -0.268  10.070  23.026  0.00  0.00    +0.000 C 
ATOM     22  C   UNL     1      -0.642   8.753  22.299  0.00  0.00    +0.000 C 
ATOM     23  N   UNL     1      -0.236   8.646  20.879  0.00  0.00    +0.000 NA
ATOM     24  C   UNL     1      -0.706   9.872  20.173  0.00  0.00    +0.000 C 
ATOM     25  C   UNL     1      -0.345  11.226  20.840  0.00  0.00    +0.000 C 
BRANCH  20  31
ATOM     26  C   UNL     1      -0.908  13.570  23.058  0.00  0.00    +0.000 A 
ATOM     27  C   UNL     1      -1.652  14.546  23.747  0.00  0.00    +0.000 A 
ATOM     28  C   UNL     1      -2.946  14.285  24.187  0.00  0.00    +0.000 A 
ATOM     29  C   UNL     1      -3.505  13.040  23.953  0.00  0.00    +0.000 A 
ATOM     30  C   UNL     1      -2.762  12.055  23.299  0.00  0.00    +0.000 A 
ATOM     31  C   UNL     1      -1.444  12.272  22.840  0.00  0.00    +0.000 A 
BRANCH  26  33
ATOM     32  C   UNL     1       0.534  15.032  21.838  0.00  0.00    +0.000 C 
ATOM     33  O   UNL     1       0.359  13.834  22.585  0.00  0.00    +0.000 OA
ENDBRANCH  26  33
ENDBRANCH  20  31
ENDBRANCH  19  23
ENDBRANCH  18  19
ENDBRANCH   1  18
TORSDOF 5
ENDMDL
MODEL 4
REMARK VINA RESULT:      -7.8      6.366     10.459
REMARK  Name = 
REMARK  7 active torsions:
REMARK  status: ('A' for Active; 'I' for Inactive)
REMARK    1  A    between atoms: C_1  and  O_2
REMARK    2  A    between atoms: O_2  and  C_3
REMARK    3  A    between atoms: C_8  and  N_9
REMARK    4  A    between atoms: N_12  and  C_13
REMARK    5  A    between atoms: C_13  and  C_14
REMARK    6  A    between atoms: C_14  and  N_15
REMARK    7  A    between atoms: N_27  and  C_28
REMARK                            x       y       z     vdW  Elec       q    Type
REMARK                         _______ _______ _______ _____ _____    ______ ____
ROOT
ATOM      1  N   UNL     1       2.719  16.072  19.471  0.00  0.00    +0.000 N 
ATOM      2  C   UNL     1       2.917  15.222  18.383  0.00  0.00    +0.000 C 
ATOM      3  O   UNL     1       3.287  15.577  17.269  0.00  0.00    +0.000 OA
ATOM      4  C   UNL     1       2.671  13.810  18.790  0.00  0.00    +0.000 C 
ATOM      5  N   UNL     1       2.931  12.774  17.790  0.00  0.00    +0.000 N 
ATOM      6  C   UNL     1       2.069  11.770  18.328  0.00  0.00    +0.000 A 
ATOM      7  C   UNL     1       2.147  10.446  17.937  0.00  0.00    +0.000 A 
ATOM      8  C   UNL     1       1.177   9.576  18.420  0.00  0.00    +0.000 A 
ATOM      9  C   UNL     1       0.139  10.060  19.234  0.00  0.00    +0.000 A 
ATOM     10  C   UNL     1       0.061  11.407  19.608  0.00  0.00    +0.000 A 
ATOM     11  C   UNL     1       1.057  12.272  19.185  0.00  0.00    +0.000 A 
ATOM     12  C   UNL     1       1.216  13.767  19.272  0.00  0.00    +0.000 C 
ATOM     13  N   UNL     1       1.188  14.568  20.499  0.00  0.00    +0.000 N 
ATOM     14  C   UNL     1       0.343  14.270  21.637  0.00  0.00    +0.000 C 
ATOM     15  C   UNL     1       1.810  15.828  20.510  0.00  0.00    +0.000 C 
ATOM     16  O   UNL     1       1.655  16.625  21.435  0.00  0.00    +0.000 OA
ATOM     17  H   UNL     1       2.587  13.059  16.870  0.00  0.00    +0.000 HD
ENDROOT
BRANCH   1  18
ATOM     18  C   UNL     1       3.865  16.910  19.808  0.00  0.00    +0.000 C 
BRANCH  18  19
ATOM     19  C   UNL     1       5.058  15.967  20.157  0.00  0.00    +0.000 C 
BRANCH  19  23
ATOM     20  N   UNL     1       8.062  14.190  18.955  0.00  0.00    +0.000 N 
ATOM     21  C   UNL     1       7.748  14.327  20.383  0.00  0.00    +0.000 C 
ATOM     22  C   UNL     1       7.438  15.810  20.713  0.00  0.00    +0.000 C 
ATOM     23  N   UNL     1       6.407  16.467  19.878  0.00  0.00    +0.000 NA
ATOM     24  C   UNL     1       6.755  16.233  18.448  0.00  0.00    +0.000 C 
ATOM     25  C   UNL     1       7.058  14.764  18.049  0.00  0.00    +0.000 C 
BRANCH  20  31
ATOM     26  C   UNL     1      10.358  14.056  18.004  0.00  0.00    +0.000 A 
ATOM     27  C   UNL     1      11.384  13.248  17.480  0.00  0.00    +0.000 A 
ATOM     28  C   UNL     1      11.279  11.861  17.482  0.00  0.00    +0.000 A 
ATOM     29  C   UNL     1      10.139  11.267  17.998  0.00  0.00    +0.000 A 
ATOM     30  C   UNL     1       9.102  12.062  18.489  0.00  0.00    +0.000 A 
ATOM     31  C   UNL     1       9.162  13.473  18.502  0.00  0.00    +0.000 A 
BRANCH  26  33
ATOM     32  C   UNL     1      10.960  16.068  16.866  0.00  0.00    +0.000 C 
ATOM     33  O   UNL     1      10.473  15.429  18.040  0.00  0.00    +0.000 OA
ENDBRANCH  26  33
ENDBRANCH  20  31
ENDBRANCH  19  23
ENDBRANCH  18  19
ENDBRANCH   1  18
TORSDOF 5
ENDMDL
MODEL 5
REMARK VINA RESULT:      -7.7      6.371     10.643
REMARK  Name = 
REMARK  7 active torsions:
REMARK  status: ('A' for Active; 'I' for Inactive)
REMARK    1  A    between atoms: C_1  and  O_2
REMARK    2  A    between atoms: O_2  and  C_3
REMARK    3  A    between atoms: C_8  and  N_9
REMARK    4  A    between atoms: N_12  and  C_13
REMARK    5  A    between atoms: C_13  and  C_14
REMARK    6  A    between atoms: C_14  and  N_15
REMARK    7  A    between atoms: N_27  and  C_28
REMARK                            x       y       z     vdW  Elec       q    Type
REMARK                         _______ _______ _______ _____ _____    ______ ____
ROOT
ATOM      1  N   UNL     1       2.993  16.004  19.214  0.00  0.00    +0.000 N 
ATOM      2  C   UNL     1       3.048  15.117  18.140  0.00  0.00    +0.000 C 
ATOM      3  O   UNL     1       3.302  15.427  16.981  0.00  0.00    +0.000 OA
ATOM      4  C   UNL     1       2.811  13.725  18.618  0.00  0.00    +0.000 C 
ATOM      5  N   UNL     1       2.933  12.653  17.630  0.00  0.00    +0.000 N 
ATOM      6  C   UNL     1       2.109  11.691  18.291  0.00  0.00    +0.000 A 
ATOM      7  C   UNL     1       2.109  10.354  17.937  0.00  0.00    +0.000 A 
ATOM      8  C   UNL     1       1.176   9.528  18.552  0.00  0.00    +0.000 A 
ATOM      9  C   UNL     1       0.246  10.066  19.457  0.00  0.00    +0.000 A 
ATOM     10  C   UNL     1       0.246  11.425  19.793  0.00  0.00    +0.000 A 
ATOM     11  C   UNL     1       1.211  12.248  19.236  0.00  0.00    +0.000 A 
ATOM     12  C   UNL     1       1.418  13.739  19.256  0.00  0.00    +0.000 C 
ATOM     13  N   UNL     1       1.545  14.577  20.453  0.00  0.00    +0.000 N 
ATOM     14  C   UNL     1       0.823  14.338  21.684  0.00  0.00    +0.000 C 
ATOM     15  C   UNL     1       2.197  15.818  20.354  0.00  0.00    +0.000 C 
ATOM     16  O   UNL     1       2.166  16.646  21.264  0.00  0.00    +0.000 OA
ATOM     17  H   UNL     1       2.497  12.920  16.743  0.00  0.00    +0.000 HD
ENDROOT
BRANCH   1  18
ATOM     18  C   UNL     1       4.191  16.818  19.397  0.00  0.00    +0.000 C 
BRANCH  18  19
ATOM     19  C   UNL     1       5.293  15.908  20.020  0.00  0.00    +0.000 C 
BRANCH  19  23
ATOM     20  N   UNL     1       8.461  14.611  18.638  0.00  0.00    +0.000 N 
ATOM     21  C   UNL     1       7.985  14.254  19.981  0.00  0.00    +0.000 C 
ATOM     22  C   UNL     1       7.598  15.538  20.760  0.00  0.00    +0.000 C 
ATOM     23  N   UNL     1       6.650  16.455  20.087  0.00  0.00    +0.000 NA
ATOM     24  C   UNL     1       7.164  16.721  18.713  0.00  0.00    +0.000 C 
ATOM     25  C   UNL     1       7.550  15.473  17.874  0.00  0.00    +0.000 C 
BRANCH  20  31
ATOM     26  C   UNL     1       9.832  12.697  17.830  0.00  0.00    +0.000 A 
ATOM     27  C   UNL     1      11.079  12.237  17.368  0.00  0.00    +0.000 A 
ATOM     28  C   UNL     1      12.121  13.122  17.113  0.00  0.00    +0.000 A 
ATOM     29  C   UNL     1      11.931  14.476  17.329  0.00  0.00    +0.000 A 
ATOM     30  C   UNL     1      10.707  14.938  17.819  0.00  0.00    +0.000 A 
ATOM     31  C   UNL     1       9.624  14.077  18.098  0.00  0.00    +0.000 A 
BRANCH  26  33
ATOM     32  C   UNL     1       9.110  10.474  18.323  0.00  0.00    +0.000 C 
ATOM     33  O   UNL     1       8.782  11.830  18.048  0.00  0.00    +0.000 OA
ENDBRANCH  26  33
ENDBRANCH  20  31
ENDBRANCH  19  23
ENDBRANCH  18  19
ENDBRANCH   1  18
TORSDOF 5
ENDMDL
MODEL 6
REMARK VINA RESULT:      -7.7      2.912      9.536
REMARK  Name = 
REMARK  7 active torsions:
REMARK  status: ('A' for Active; 'I' for Inactive)
REMARK    1  A    between atoms: C_1  and  O_2
REMARK    2  A    between atoms: O_2  and  C_3
REMARK    3  A    between atoms: C_8  and  N_9
REMARK    4  A    between atoms: N_12  and  C_13
REMARK    5  A    between atoms: C_13  and  C_14
REMARK    6  A    between atoms: C_14  and  N_15
REMARK    7  A    between atoms: N_27  and  C_28
REMARK                            x       y       z     vdW  Elec       q    Type
REMARK                         _______ _______ _______ _____ _____    ______ ____
ROOT
ATOM      1  N   UNL     1      -0.267  12.970  20.125  0.00  0.00    +0.000 N 
ATOM      2  C   UNL     1      -0.933  12.937  18.901  0.00  0.00    +0.000 C 
ATOM      3  O   UNL     1      -0.517  13.430  17.858  0.00  0.00    +0.000 OA
ATOM      4  C   UNL     1      -2.199  12.161  19.032  0.00  0.00    +0.000 C 
ATOM      5  N   UNL     1      -2.975  11.943  17.811  0.00  0.00    +0.000 N 
ATOM      6  C   UNL     1      -4.247  11.739  18.428  0.00  0.00    +0.000 A 
ATOM      7  C   UNL     1      -5.317  11.188  17.747  0.00  0.00    +0.000 A 
ATOM      8  C   UNL     1      -6.544  11.155  18.397  0.00  0.00    +0.000 A 
ATOM      9  C   UNL     1      -6.676  11.712  19.681  0.00  0.00    +0.000 A 
ATOM     10  C   UNL     1      -5.589  12.283  20.353  0.00  0.00    +0.000 A 
ATOM     11  C   UNL     1      -4.346  12.265  19.741  0.00  0.00    +0.000 A 
ATOM     12  C   UNL     1      -3.025  12.895  20.094  0.00  0.00    +0.000 C 
ATOM     13  N   UNL     1      -2.292  12.716  21.351  0.00  0.00    +0.000 N 
ATOM     14  C   UNL     1      -2.929  12.567  22.642  0.00  0.00    +0.000 C 
ATOM     15  C   UNL     1      -0.905  12.944  21.374  0.00  0.00    +0.000 C 
ATOM     16  O   UNL     1      -0.270  13.001  22.427  0.00  0.00    +0.000 OA
ATOM     17  H   UNL     1      -3.008  12.792  17.241  0.00  0.00    +0.000 HD
ENDROOT
BRANCH   1  18
ATOM     18  C   UNL     1       1.097  12.452  20.094  0.00  0.00    +0.000 C 
BRANCH  18  19
ATOM     19  C   UNL     1       1.091  11.053  20.784  0.00  0.00    +0.000 C 
BRANCH  19  23
ATOM     20  N   UNL     1       1.921   7.584  19.835  0.00  0.00    +0.000 N 
ATOM     21  C   UNL     1       2.089   8.713  18.911  0.00  0.00    +0.000 C 
ATOM     22  C   UNL     1       0.788   9.556  18.870  0.00  0.00    +0.000 C 
ATOM     23  N   UNL     1       0.259  10.013  20.175  0.00  0.00    +0.000 NA
ATOM     24  C   UNL     1       0.175   8.830  21.077  0.00  0.00    +0.000 C 
ATOM     25  C   UNL     1       1.454   7.955  21.178  0.00  0.00    +0.000 C 
BRANCH  20  31
ATOM     26  C   UNL     1       3.092   5.941  18.378  0.00  0.00    +0.000 A 
ATOM     27  C   UNL     1       3.335   4.592  18.060  0.00  0.00    +0.000 A 
ATOM     28  C   UNL     1       2.837   3.566  18.857  0.00  0.00    +0.000 A 
ATOM     29  C   UNL     1       2.082   3.879  19.975  0.00  0.00    +0.000 A 
ATOM     30  C   UNL     1       1.809   5.214  20.279  0.00  0.00    +0.000 A 
ATOM     31  C   UNL     1       2.287   6.288  19.497  0.00  0.00    +0.000 A 
BRANCH  26  33
ATOM     32  C   UNL     1       4.886   6.739  17.017  0.00  0.00    +0.000 C 
ATOM     33  O   UNL     1       3.615   6.964  17.615  0.00  0.00    +0.000 OA
ENDBRANCH  26  33
ENDBRANCH  20  31
ENDBRANCH  19  23
ENDBRANCH  18  19
ENDBRANCH   1  18
TORSDOF 5
ENDMDL
MODEL 7
REMARK VINA RESULT:      -7.6      3.402      4.960
REMARK  Name = 
REMARK  7 active torsions:
REMARK  status: ('A' for Active; 'I' for Inactive)
REMARK    1  A    between atoms: C_1  and  O_2
REMARK    2  A    between atoms: O_2  and  C_3
REMARK    3  A    between atoms: C_8  and  N_9
REMARK    4  A    between atoms: N_12  and  C_13
REMARK    5  A    between atoms: C_13  and  C_14
REMARK    6  A    between atoms: C_14  and  N_15
REMARK    7  A    between atoms: N_27  and  C_28
REMARK                            x       y       z     vdW  Elec       q    Type
REMARK                         _______ _______ _______ _____ _____    ______ ____
ROOT
ATOM      1  N   UNL     1       2.218   8.359  18.798  0.00  0.00    +0.000 N 
ATOM      2  C   UNL     1       1.992   7.735  20.025  0.00  0.00    +0.000 C 
ATOM      3  O   UNL     1       1.689   8.311  21.064  0.00  0.00    +0.000 OA
ATOM      4  C   UNL     1       2.117   6.257  19.873  0.00  0.00    +0.000 C 
ATOM      5  N   UNL     1       1.813   5.440  21.049  0.00  0.00    +0.000 N 
ATOM      6  C   UNL     1       2.578   4.290  20.684  0.00  0.00    +0.000 A 
ATOM      7  C   UNL     1       2.413   3.067  21.308  0.00  0.00    +0.000 A 
ATOM      8  C   UNL     1       3.296   2.050  20.970  0.00  0.00    +0.000 A 
ATOM      9  C   UNL     1       4.340   2.296  20.062  0.00  0.00    +0.000 A 
ATOM     10  C   UNL     1       4.507   3.544  19.450  0.00  0.00    +0.000 A 
ATOM     11  C   UNL     1       3.595   4.548  19.730  0.00  0.00    +0.000 A 
ATOM     12  C   UNL     1       3.547   6.012  19.379  0.00  0.00    +0.000 C 
ATOM     13  N   UNL     1       3.595   6.577  18.027  0.00  0.00    +0.000 N 
ATOM     14  C   UNL     1       4.375   6.014  16.945  0.00  0.00    +0.000 C 
ATOM     15  C   UNL     1       3.070   7.861  17.802  0.00  0.00    +0.000 C 
ATOM     16  O   UNL     1       3.253   8.466  16.745  0.00  0.00    +0.000 OA
ATOM     17  H   UNL     1       2.208   5.856  21.896  0.00  0.00    +0.000 HD
ENDROOT
BRANCH   1  18
ATOM     18  C   UNL     1       1.128   9.213  18.338  0.00  0.00    +0.000 C 
BRANCH  18  19
ATOM     19  C   UNL     1       1.482  10.684  18.719  0.00  0.00    +0.000 C 
BRANCH  19  23
ATOM     20  N   UNL     1      -2.116  11.430  18.372  0.00  0.00    +0.000 N 
ATOM     21  C   UNL     1      -1.074  12.349  17.897  0.00  0.00    +0.000 C 
ATOM     22  C   UNL     1      -0.031  12.586  19.020  0.00  0.00    +0.000 C 
ATOM     23  N   UNL     1       0.566  11.375  19.629  0.00  0.00    +0.000 NA
ATOM     24  C   UNL     1      -0.545  10.465  20.028  0.00  0.00    +0.000 C 
ATOM     25  C   UNL     1      -1.613  10.172  18.940  0.00  0.00    +0.000 C 
BRANCH  20  31
ATOM     26  C   UNL     1      -4.137  11.649  16.936  0.00  0.00    +0.000 A 
ATOM     27  C   UNL     1      -5.492  12.014  16.835  0.00  0.00    +0.000 A 
ATOM     28  C   UNL     1      -6.226  12.369  17.962  0.00  0.00    +0.000 A 
ATOM     29  C   UNL     1      -5.608  12.374  19.202  0.00  0.00    +0.000 A 
ATOM     30  C   UNL     1      -4.255  12.046  19.306  0.00  0.00    +0.000 A 
ATOM     31  C   UNL     1      -3.469  11.685  18.190  0.00  0.00    +0.000 A 
BRANCH  26  33
ATOM     32  C   UNL     1      -3.488   9.886  15.461  0.00  0.00    +0.000 C 
ATOM     33  O   UNL     1      -3.414  11.258  15.829  0.00  0.00    +0.000 OA
ENDBRANCH  26  33
ENDBRANCH  20  31
ENDBRANCH  19  23
ENDBRANCH  18  19
ENDBRANCH   1  18
TORSDOF 5
ENDMDL
MODEL 8
REMARK VINA RESULT:      -7.6      4.799      7.382
REMARK  Name = 
REMARK  7 active torsions:
REMARK  status: ('A' for Active; 'I' for Inactive)
REMARK    1  A    between atoms: C_1  and  O_2
REMARK    2  A    between atoms: O_2  and  C_3
REMARK    3  A    between atoms: C_8  and  N_9
REMARK    4  A    between atoms: N_12  and  C_13
REMARK    5  A    between atoms: C_13  and  C_14
REMARK    6  A    between atoms: C_14  and  N_15
REMARK    7  A    between atoms: N_27  and  C_28
REMARK                            x       y       z     vdW  Elec       q    Type
REMARK                         _______ _______ _______ _____ _____    ______ ____
ROOT
ATOM      1  N   UNL     1       0.033  11.828  20.360  0.00  0.00    +0.000 N 
ATOM      2  C   UNL     1       0.211  11.323  19.072  0.00  0.00    +0.000 C 
ATOM      3  O   UNL     1      -0.396  11.700  18.076  0.00  0.00    +0.000 OA
ATOM      4  C   UNL     1       1.291  10.295  19.074  0.00  0.00    +0.000 C 
ATOM      5  N   UNL     1       1.676   9.732  17.780  0.00  0.00    +0.000 N 
ATOM      6  C   UNL     1       2.217   8.501  18.262  0.00  0.00    +0.000 A 
ATOM      7  C   UNL     1       3.011   7.687  17.475  0.00  0.00    +0.000 A 
ATOM      8  C   UNL     1       3.375   6.450  17.993  0.00  0.00    +0.000 A 
ATOM      9  C   UNL     1       2.900   6.047  19.253  0.00  0.00    +0.000 A 
ATOM     10  C   UNL     1       2.083   6.874  20.032  0.00  0.00    +0.000 A 
ATOM     11  C   UNL     1       1.764   8.134  19.554  0.00  0.00    +0.000 A 
ATOM     12  C   UNL     1       0.820   9.203  20.040  0.00  0.00    +0.000 C 
ATOM     13  N   UNL     1       0.831   9.824  21.368  0.00  0.00    +0.000 N 
ATOM     14  C   UNL     1       1.168   9.119  22.586  0.00  0.00    +0.000 C 
ATOM     15  C   UNL     1       0.252  11.094  21.535  0.00  0.00    +0.000 C 
ATOM     16  O   UNL     1       0.055  11.581  22.648  0.00  0.00    +0.000 OA
ATOM     17  H   UNL     1       0.852   9.538  17.205  0.00  0.00    +0.000 HD
ENDROOT
BRANCH   1  18
ATOM     18  C   UNL     1       0.179  13.275  20.474  0.00  0.00    +0.000 C 
BRANCH  18  19
ATOM     19  C   UNL     1       1.702  13.606  20.413  0.00  0.00    +0.000 C 
BRANCH  19  23
ATOM     20  N   UNL     1       4.925  15.100  19.409  0.00  0.00    +0.000 N 
ATOM     21  C   UNL     1       4.571  14.867  20.816  0.00  0.00    +0.000 C 
ATOM     22  C   UNL     1       3.162  15.447  21.105  0.00  0.00    +0.000 C 
ATOM     23  N   UNL     1       2.072  15.008  20.203  0.00  0.00    +0.000 NA
ATOM     24  C   UNL     1       2.526  15.214  18.799  0.00  0.00    +0.000 C 
ATOM     25  C   UNL     1       3.922  14.638  18.440  0.00  0.00    +0.000 C 
BRANCH  20  31
ATOM     26  C   UNL     1       6.488  16.991  18.991  0.00  0.00    +0.000 A 
ATOM     27  C   UNL     1       7.737  17.418  18.504  0.00  0.00    +0.000 A 
ATOM     28  C   UNL     1       8.701  16.501  18.097  0.00  0.00    +0.000 A 
ATOM     29  C   UNL     1       8.421  15.147  18.163  0.00  0.00    +0.000 A 
ATOM     30  C   UNL     1       7.171  14.716  18.613  0.00  0.00    +0.000 A 
ATOM     31  C   UNL     1       6.160  15.609  19.030  0.00  0.00    +0.000 A 
BRANCH  26  33
ATOM     32  C   UNL     1       5.743  18.460  20.721  0.00  0.00    +0.000 C 
ATOM     33  O   UNL     1       5.542  17.893  19.432  0.00  0.00    +0.000 OA
ENDBRANCH  26  33
ENDBRANCH  20  31
ENDBRANCH  19  23
ENDBRANCH  18  19
ENDBRANCH   1  18
TORSDOF 5
ENDMDL
MODEL 9
REMARK VINA RESULT:      -7.6      1.742      2.248
REMARK  Name = 
REMARK  7 active torsions:
REMARK  status: ('A' for Active; 'I' for Inactive)
REMARK    1  A    between atoms: C_1  and  O_2
REMARK    2  A    between atoms: O_2  and  C_3
REMARK    3  A    between atoms: C_8  and  N_9
REMARK    4  A    between atoms: N_12  and  C_13
REMARK    5  A    between atoms: C_13  and  C_14
REMARK    6  A    between atoms: C_14  and  N_15
REMARK    7  A    between atoms: N_27  and  C_28
REMARK                            x       y       z     vdW  Elec       q    Type
REMARK                         _______ _______ _______ _____ _____    ______ ____
ROOT
ATOM      1  N   UNL     1       1.979   7.502  19.375  0.00  0.00    +0.000 N 
ATOM      2  C   UNL     1       2.529   7.868  18.148  0.00  0.00    +0.000 C 
ATOM      3  O   UNL     1       2.136   8.793  17.446  0.00  0.00    +0.000 OA
ATOM      4  C   UNL     1       3.706   7.006  17.840  0.00  0.00    +0.000 C 
ATOM      5  N   UNL     1       4.465   7.322  16.630  0.00  0.00    +0.000 N 
ATOM      6  C   UNL     1       5.035   6.030  16.420  0.00  0.00    +0.000 A 
ATOM      7  C   UNL     1       6.098   5.824  15.560  0.00  0.00    +0.000 A 
ATOM      8  C   UNL     1       6.490   4.512  15.326  0.00  0.00    +0.000 A 
ATOM      9  C   UNL     1       5.784   3.450  15.916  0.00  0.00    +0.000 A 
ATOM     10  C   UNL     1       4.698   3.671  16.772  0.00  0.00    +0.000 A 
ATOM     11  C   UNL     1       4.337   4.976  17.063  0.00  0.00    +0.000 A 
ATOM     12  C   UNL     1       3.168   5.572  17.803  0.00  0.00    +0.000 C 
ATOM     13  N   UNL     1       2.773   5.266  19.181  0.00  0.00    +0.000 N 
ATOM     14  C   UNL     1       2.899   3.956  19.784  0.00  0.00    +0.000 C 
ATOM     15  C   UNL     1       2.005   6.200  19.897  0.00  0.00    +0.000 C 
ATOM     16  O   UNL     1       1.481   5.925  20.976  0.00  0.00    +0.000 OA
ATOM     17  H   UNL     1       3.838   7.547  15.853  0.00  0.00    +0.000 HD
ENDROOT
BRANCH   1  18
ATOM     18  C   UNL     1       1.896   8.581  20.354  0.00  0.00    +0.000 C 
BRANCH  18  19
ATOM     19  C   UNL     1       0.593   9.388  20.063  0.00  0.00    +0.000 C 
BRANCH  19  23
ATOM     20  N   UNL     1      -1.406  12.385  20.865  0.00  0.00    +0.000 N 
ATOM     21  C   UNL     1      -1.712  11.520  19.718  0.00  0.00    +0.000 C 
ATOM     22  C   UNL     1      -0.427  11.278  18.886  0.00  0.00    +0.000 C 
ATOM     23  N   UNL     1       0.753  10.778  19.628  0.00  0.00    +0.000 NA
ATOM     24  C   UNL     1       0.963  11.663  20.808  0.00  0.00    +0.000 C 
ATOM     25  C   UNL     1      -0.283  11.929  21.695  0.00  0.00    +0.000 C 
BRANCH  20  31
ATOM     26  C   UNL     1      -3.307  13.437  22.080  0.00  0.00    +0.000 A 
ATOM     27  C   UNL     1      -4.103  14.579  22.286  0.00  0.00    +0.000 A 
ATOM     28  C   UNL     1      -3.794  15.790  21.675  0.00  0.00    +0.000 A 
ATOM     29  C   UNL     1      -2.690  15.868  20.842  0.00  0.00    +0.000 A 
ATOM     30  C   UNL     1      -1.915  14.731  20.606  0.00  0.00    +0.000 A 
ATOM     31  C   UNL     1      -2.194  13.480  21.198  0.00  0.00    +0.000 A 
BRANCH  26  33
ATOM     32  C   UNL     1      -3.843  12.298  24.111  0.00  0.00    +0.000 C 
ATOM     33  O   UNL     1      -3.585  12.243  22.712  0.00  0.00    +0.000 OA
ENDBRANCH  26  33
ENDBRANCH  20  31
ENDBRANCH  19  23
ENDBRANCH  18  19
ENDBRANCH   1  18
TORSDOF 5
ENDMDL
