MODEL 1
REMARK VINA RESULT:      -7.4      0.000      0.000
REMARK  Name = 
REMARK  4 active torsions:
REMARK  status: ('A' for Active; 'I' for Inactive)
REMARK    1  A    between atoms: C_6  and  N_7
REMARK    2  A    between atoms: C_8  and  C_10
REMARK    3  A    between atoms: C_14  and  N_15
REMARK    4  A    between atoms: C_16  and  C_18
REMARK                            x       y       z     vdW  Elec       q    Type
REMARK                         _______ _______ _______ _____ _____    ______ ____
ROOT
ATOM      1  C   UNL     1       2.099   7.329  19.629  0.00  0.00    +0.000 A 
ATOM      2  N   UNL     1       1.448   7.282  20.815  0.00  0.00    +0.000 NA
ATOM      3  N   UNL     1       1.790   6.084  21.320  0.00  0.00    +0.000 N 
ATOM      4  C   UNL     1       2.620   5.366  20.519  0.00  0.00    +0.000 A 
ATOM      5  C   UNL     1       2.863   6.137  19.410  0.00  0.00    +0.000 A 
ATOM      6  H   UNL     1       1.427   5.815  22.229  0.00  0.00    +0.000 HD
ENDROOT
BRANCH   1   8
ATOM      7  N   UNL     1       1.133   9.479  19.243  0.00  0.00    +0.000 N 
ATOM      8  C   UNL     1       1.979   8.503  18.748  0.00  0.00    +0.000 C 
ATOM      9  O   UNL     1       2.586   8.595  17.684  0.00  0.00    +0.000 OA
ATOM     10  H   UNL     1       0.773   9.275  20.174  0.00  0.00    +0.000 HD
BRANCH   7  16
ATOM     11  N   UNL     1      -1.293  13.687  19.412  0.00  0.00    +0.000 NA
ATOM     12  S   UNL     1      -1.210  12.421  20.290  0.00  0.00    +0.000 S 
ATOM     13  O   UNL     1      -1.963  12.248  21.513  0.00  0.00    +0.000 OA
ATOM     14  C   UNL     1      -1.565  11.018  19.255  0.00  0.00    +0.000 C 
ATOM     15  C   UNL     1      -0.567  10.877  18.113  0.00  0.00    +0.000 C 
ATOM     16  C   UNL     1       0.895  10.748  18.572  0.00  0.00    +0.000 C 
ATOM     17  C   UNL     1       1.349  11.938  19.430  0.00  0.00    +0.000 C 
ATOM     18  C   UNL     1       0.506  12.141  20.679  0.00  0.00    +0.000 C 
ATOM     19  H   UNL     1      -2.261  13.911  19.171  0.00  0.00    +0.000 HD
ENDBRANCH   7  16
ENDBRANCH   1   8
BRANCH   5  20
ATOM     20  N   UNL     1       3.668   5.824  18.319  0.00  0.00    +0.000 N 
ATOM     21  C   UNL     1       4.998   5.436  18.403  0.00  0.00    +0.000 C 
ATOM     22  O   UNL     1       5.635   5.345  19.447  0.00  0.00    +0.000 OA
ATOM     23  H   UNL     1       3.187   5.792  17.421  0.00  0.00    +0.000 HD
BRANCH  21  24
ATOM     24  C   UNL     1       5.682   5.070  17.124  0.00  0.00    +0.000 A 
ATOM     25  C   UNL     1       5.236   3.959  16.375  0.00  0.00    +0.000 A 
ATOM     26 CL   UNL     1       4.010   2.857  16.911  0.00  0.00    +0.000 Cl
ATOM     27  C   UNL     1       5.808   3.654  15.128  0.00  0.00    +0.000 A 
ATOM     28  C   UNL     1       6.833   4.438  14.611  0.00  0.00    +0.000 A 
ATOM     29  C   UNL     1       7.293   5.527  15.342  0.00  0.00    +0.000 A 
ATOM     30  C   UNL     1       6.725   5.848  16.583  0.00  0.00    +0.000 A 
ATOM     31 CL   UNL     1       7.366   7.270  17.338  0.00  0.00    +0.000 Cl
ENDBRANCH  21  24
ENDBRANCH   5  20
TORSDOF 4
ENDMDL
MODEL 2
REMARK VINA RESULT:      -7.3      3.846      7.743
REMARK  Name = 
REMARK  4 active torsions:
REMARK  status: ('A' for Active; 'I' for Inactive)
REMARK    1  A    between atoms: C_6  and  N_7
REMARK    2  A    between atoms: C_8  and  C_10
REMARK    3  A    between atoms: C_14  and  N_15
REMARK    4  A    between atoms: C_16  and  C_18
REMARK                            x       y       z     vdW  Elec       q    Type
REMARK                         _______ _______ _______ _____ _____    ______ ____
ROOT
ATOM      1  C   UNL     1       2.308   3.848  19.444  0.00  0.00    +0.000 A 
ATOM      2  N   UNL     1       2.611   2.620  19.926  0.00  0.00    +0.000 NA
ATOM      3  N   UNL     1       2.212   2.674  21.210  0.00  0.00    +0.000 N 
ATOM      4  C   UNL     1       1.675   3.869  21.569  0.00  0.00    +0.000 A 
ATOM      5  C   UNL     1       1.702   4.666  20.451  0.00  0.00    +0.000 A 
ATOM      6  H   UNL     1       2.328   1.851  21.793  0.00  0.00    +0.000 HD
ENDROOT
BRANCH   1   8
ATOM      7  N   UNL     1       3.704   5.019  17.900  0.00  0.00    +0.000 N 
ATOM      8  C   UNL     1       2.597   4.202  18.044  0.00  0.00    +0.000 C 
ATOM      9  O   UNL     1       1.918   3.794  17.105  0.00  0.00    +0.000 OA
ATOM     10  H   UNL     1       4.197   5.198  18.773  0.00  0.00    +0.000 HD
BRANCH   7  16
ATOM     11  N   UNL     1       7.632   5.327  15.055  0.00  0.00    +0.000 NA
ATOM     12  S   UNL     1       7.330   4.793  16.470  0.00  0.00    +0.000 S 
ATOM     13  O   UNL     1       8.330   4.195  17.328  0.00  0.00    +0.000 OA
ATOM     14  C   UNL     1       6.568   6.109  17.395  0.00  0.00    +0.000 C 
ATOM     15  C   UNL     1       5.260   6.573  16.766  0.00  0.00    +0.000 C 
ATOM     16  C   UNL     1       4.212   5.459  16.610  0.00  0.00    +0.000 C 
ATOM     17  C   UNL     1       4.728   4.280  15.770  0.00  0.00    +0.000 C 
ATOM     18  C   UNL     1       5.982   3.636  16.339  0.00  0.00    +0.000 C 
ATOM     19  H   UNL     1       8.414   5.985  15.063  0.00  0.00    +0.000 HD
ENDBRANCH   7  16
ENDBRANCH   1   8
BRANCH   5  20
ATOM     20  N   UNL     1       1.245   5.975  20.332  0.00  0.00    +0.000 N 
ATOM     21  C   UNL     1       2.055   7.078  20.104  0.00  0.00    +0.000 C 
ATOM     22  O   UNL     1       3.277   7.039  20.004  0.00  0.00    +0.000 OA
ATOM     23  H   UNL     1       0.231   6.079  20.316  0.00  0.00    +0.000 HD
BRANCH  21  24
ATOM     24  C   UNL     1       1.374   8.399  19.933  0.00  0.00    +0.000 A 
ATOM     25  C   UNL     1       1.419   9.064  18.688  0.00  0.00    +0.000 A 
ATOM     26 CL   UNL     1       2.359   8.525  17.334  0.00  0.00    +0.000 Cl
ATOM     27  C   UNL     1       0.710  10.260  18.483  0.00  0.00    +0.000 A 
ATOM     28  C   UNL     1      -0.044  10.818  19.508  0.00  0.00    +0.000 A 
ATOM     29  C   UNL     1      -0.088  10.183  20.744  0.00  0.00    +0.000 A 
ATOM     30  C   UNL     1       0.606   8.984  20.960  0.00  0.00    +0.000 A 
ATOM     31 CL   UNL     1       0.398   8.287  22.532  0.00  0.00    +0.000 Cl
ENDBRANCH  21  24
ENDBRANCH   5  20
TORSDOF 4
ENDMDL
MODEL 3
REMARK VINA RESULT:      -7.2      1.234      2.203
REMARK  Name = 
REMARK  4 active torsions:
REMARK  status: ('A' for Active; 'I' for Inactive)
REMARK    1  A    between atoms: C_6  and  N_7
REMARK    2  A    between atoms: C_8  and  C_10
REMARK    3  A    between atoms: C_14  and  N_15
REMARK    4  A    between atoms: C_16  and  C_18
REMARK                            x       y       z     vdW  Elec       q    Type
REMARK                         _______ _______ _______ _____ _____    ______ ____
ROOT
ATOM      1  C   UNL     1       1.838   8.045  19.521  0.00  0.00    +0.000 A 
ATOM      2  N   UNL     1       1.192   8.092  20.710  0.00  0.00    +0.000 NA
ATOM      3  N   UNL     1       1.468   6.902  21.271  0.00  0.00    +0.000 N 
ATOM      4  C   UNL     1       2.252   6.101  20.503  0.00  0.00    +0.000 A 
ATOM      5  C   UNL     1       2.532   6.803  19.357  0.00  0.00    +0.000 A 
ATOM      6  H   UNL     1       1.095   6.697  22.193  0.00  0.00    +0.000 HD
ENDROOT
BRANCH   1   8
ATOM      7  N   UNL     1       1.191  10.310  19.125  0.00  0.00    +0.000 N 
ATOM      8  C   UNL     1       1.780   9.180  18.585  0.00  0.00    +0.000 C 
ATOM      9  O   UNL     1       2.225   9.118  17.442  0.00  0.00    +0.000 OA
ATOM     10  H   UNL     1       0.948  10.214  20.109  0.00  0.00    +0.000 HD
BRANCH   7  16
ATOM     11  N   UNL     1       0.738  15.128  19.570  0.00  0.00    +0.000 NA
ATOM     12  S   UNL     1       0.851  13.933  20.538  0.00  0.00    +0.000 S 
ATOM     13  O   UNL     1       0.841  14.069  21.979  0.00  0.00    +0.000 OA
ATOM     14  C   UNL     1      -0.427  12.769  20.115  0.00  0.00    +0.000 C 
ATOM     15  C   UNL     1      -0.284  12.249  18.690  0.00  0.00    +0.000 C 
ATOM     16  C   UNL     1       1.066  11.569  18.406  0.00  0.00    +0.000 C 
ATOM     17  C   UNL     1       2.260  12.497  18.675  0.00  0.00    +0.000 C 
ATOM     18  C   UNL     1       2.314  13.016  20.103  0.00  0.00    +0.000 C 
ATOM     19  H   UNL     1      -0.077  15.707  19.784  0.00  0.00    +0.000 HD
ENDBRANCH   7  16
ENDBRANCH   1   8
BRANCH   5  20
ATOM     20  N   UNL     1       3.313   6.393  18.281  0.00  0.00    +0.000 N 
ATOM     21  C   UNL     1       4.540   5.754  18.391  0.00  0.00    +0.000 C 
ATOM     22  O   UNL     1       5.100   5.495  19.451  0.00  0.00    +0.000 OA
ATOM     23  H   UNL     1       2.875   6.495  17.366  0.00  0.00    +0.000 HD
BRANCH  21  24
ATOM     24  C   UNL     1       5.200   5.324  17.119  0.00  0.00    +0.000 A 
ATOM     25  C   UNL     1       6.367   5.979  16.670  0.00  0.00    +0.000 A 
ATOM     26 CL   UNL     1       7.038   7.390  17.421  0.00  0.00    +0.000 Cl
ATOM     27  C   UNL     1       7.050   5.531  15.526  0.00  0.00    +0.000 A 
ATOM     28  C   UNL     1       6.584   4.435  14.810  0.00  0.00    +0.000 A 
ATOM     29  C   UNL     1       5.429   3.788  15.231  0.00  0.00    +0.000 A 
ATOM     30  C   UNL     1       4.742   4.218  16.375  0.00  0.00    +0.000 A 
ATOM     31 CL   UNL     1       3.359   3.267  16.803  0.00  0.00    +0.000 Cl
ENDBRANCH  21  24
ENDBRANCH   5  20
TORSDOF 4
ENDMDL
MODEL 4
REMARK VINA RESULT:      -7.1      3.851      7.715
REMARK  Name = 
REMARK  4 active torsions:
REMARK  status: ('A' for Active; 'I' for Inactive)
REMARK    1  A    between atoms: C_6  and  N_7
REMARK    2  A    between atoms: C_8  and  C_10
REMARK    3  A    between atoms: C_14  and  N_15
REMARK    4  A    between atoms: C_16  and  C_18
REMARK                            x       y       z     vdW  Elec       q    Type
REMARK                         _______ _______ _______ _____ _____    ______ ____
ROOT
ATOM      1  C   UNL     1       2.202   3.847  19.378  0.00  0.00    +0.000 A 
ATOM      2  N   UNL     1       2.475   2.605  19.844  0.00  0.00    +0.000 NA
ATOM      3  N   UNL     1       2.069   2.649  21.125  0.00  0.00    +0.000 N 
ATOM      4  C   UNL     1       1.555   3.851  21.498  0.00  0.00    +0.000 A 
ATOM      5  C   UNL     1       1.607   4.663  20.393  0.00  0.00    +0.000 A 
ATOM      6  H   UNL     1       2.162   1.815  21.696  0.00  0.00    +0.000 HD
ENDROOT
BRANCH   1   8
ATOM      7  N   UNL     1       3.663   4.967  17.856  0.00  0.00    +0.000 N 
ATOM      8  C   UNL     1       2.509   4.215  17.985  0.00  0.00    +0.000 C 
ATOM      9  O   UNL     1       1.804   3.871  17.040  0.00  0.00    +0.000 OA
ATOM     10  H   UNL     1       4.167   5.096  18.731  0.00  0.00    +0.000 HD
BRANCH   7  16
ATOM     11  N   UNL     1       7.648   5.310  15.096  0.00  0.00    +0.000 NA
ATOM     12  S   UNL     1       7.322   4.781  16.508  0.00  0.00    +0.000 S 
ATOM     13  O   UNL     1       8.311   4.202  17.392  0.00  0.00    +0.000 OA
ATOM     14  C   UNL     1       6.523   6.092  17.406  0.00  0.00    +0.000 C 
ATOM     15  C   UNL     1       5.223   6.534  16.746  0.00  0.00    +0.000 C 
ATOM     16  C   UNL     1       4.193   5.405  16.574  0.00  0.00    +0.000 C 
ATOM     17  C   UNL     1       4.744   4.228  15.754  0.00  0.00    +0.000 C 
ATOM     18  C   UNL     1       5.994   3.604  16.355  0.00  0.00    +0.000 C 
ATOM     19  H   UNL     1       8.421   5.978  15.116  0.00  0.00    +0.000 HD
ENDBRANCH   7  16
ENDBRANCH   1   8
BRANCH   5  20
ATOM     20  N   UNL     1       1.179   5.983  20.290  0.00  0.00    +0.000 N 
ATOM     21  C   UNL     1       2.015   7.072  20.084  0.00  0.00    +0.000 C 
ATOM     22  O   UNL     1       3.236   7.008  19.992  0.00  0.00    +0.000 OA
ATOM     23  H   UNL     1       0.168   6.110  20.269  0.00  0.00    +0.000 HD
BRANCH  21  24
ATOM     24  C   UNL     1       1.364   8.410  19.928  0.00  0.00    +0.000 A 
ATOM     25  C   UNL     1       0.680   8.996  21.014  0.00  0.00    +0.000 A 
ATOM     26 CL   UNL     1       0.395   8.196  22.527  0.00  0.00    +0.000 Cl
ATOM     27  C   UNL     1       0.140  10.290  20.914  0.00  0.00    +0.000 A 
ATOM     28  C   UNL     1       0.263  11.015  19.735  0.00  0.00    +0.000 A 
ATOM     29  C   UNL     1       0.922  10.447  18.651  0.00  0.00    +0.000 A 
ATOM     30  C   UNL     1       1.473   9.161  18.740  0.00  0.00    +0.000 A 
ATOM     31 CL   UNL     1       2.316   8.624  17.326  0.00  0.00    +0.000 Cl
ENDBRANCH  21  24
ENDBRANCH   5  20
TORSDOF 4
ENDMDL
MODEL 5
REMARK VINA RESULT:      -7.1      3.921      7.867
REMARK  Name = 
REMARK  4 active torsions:
REMARK  status: ('A' for Active; 'I' for Inactive)
REMARK    1  A    between atoms: C_6  and  N_7
REMARK    2  A    between atoms: C_8  and  C_10
REMARK    3  A    between atoms: C_14  and  N_15
REMARK    4  A    between atoms: C_16  and  C_18
REMARK                            x       y       z     vdW  Elec       q    Type
REMARK                         _______ _______ _______ _____ _____    ______ ____
ROOT
ATOM      1  C   UNL     1       3.367   3.796  19.349  0.00  0.00    +0.000 A 
ATOM      2  N   UNL     1       3.265   2.466  19.576  0.00  0.00    +0.000 NA
ATOM      3  N   UNL     1       1.946   2.272  19.750  0.00  0.00    +0.000 N 
ATOM      4  C   UNL     1       1.205   3.406  19.649  0.00  0.00    +0.000 A 
ATOM      5  C   UNL     1       2.081   4.427  19.375  0.00  0.00    +0.000 A 
ATOM      6  H   UNL     1       1.610   1.330  19.929  0.00  0.00    +0.000 HD
ENDROOT
BRANCH   1   8
ATOM      7  N   UNL     1       4.866   4.822  17.798  0.00  0.00    +0.000 N 
ATOM      8  C   UNL     1       4.678   4.424  19.110  0.00  0.00    +0.000 C 
ATOM      9  O   UNL     1       5.508   4.580  20.001  0.00  0.00    +0.000 OA
ATOM     10  H   UNL     1       4.047   4.687  17.208  0.00  0.00    +0.000 HD
BRANCH   7  16
ATOM     11  N   UNL     1       7.858   5.514  14.031  0.00  0.00    +0.000 NA
ATOM     12  S   UNL     1       6.585   4.683  14.296  0.00  0.00    +0.000 S 
ATOM     13  O   UNL     1       5.966   3.833  13.302  0.00  0.00    +0.000 OA
ATOM     14  C   UNL     1       6.883   3.677  15.732  0.00  0.00    +0.000 C 
ATOM     15  C   UNL     1       7.177   4.513  16.971  0.00  0.00    +0.000 C 
ATOM     16  C   UNL     1       6.062   5.508  17.334  0.00  0.00    +0.000 C 
ATOM     17  C   UNL     1       5.750   6.483  16.188  0.00  0.00    +0.000 C 
ATOM     18  C   UNL     1       5.329   5.791  14.902  0.00  0.00    +0.000 C 
ATOM     19  H   UNL     1       8.613   4.932  13.660  0.00  0.00    +0.000 HD
ENDBRANCH   7  16
ENDBRANCH   1   8
BRANCH   5  20
ATOM     20  N   UNL     1       1.781   5.770  19.173  0.00  0.00    +0.000 N 
ATOM     21  C   UNL     1       1.844   6.751  20.154  0.00  0.00    +0.000 C 
ATOM     22  O   UNL     1       2.148   6.550  21.324  0.00  0.00    +0.000 OA
ATOM     23  H   UNL     1       1.604   6.033  18.205  0.00  0.00    +0.000 HD
BRANCH  21  24
ATOM     24  C   UNL     1       1.554   8.156  19.730  0.00  0.00    +0.000 A 
ATOM     25  C   UNL     1       2.097   8.661  18.529  0.00  0.00    +0.000 A 
ATOM     26 CL   UNL     1       3.236   7.802  17.543  0.00  0.00    +0.000 Cl
ATOM     27  C   UNL     1       1.763   9.947  18.070  0.00  0.00    +0.000 A 
ATOM     28  C   UNL     1       0.895  10.752  18.798  0.00  0.00    +0.000 A 
ATOM     29  C   UNL     1       0.362  10.275  19.990  0.00  0.00    +0.000 A 
ATOM     30  C   UNL     1       0.678   8.991  20.454  0.00  0.00    +0.000 A 
ATOM     31 CL   UNL     1      -0.117   8.523  21.920  0.00  0.00    +0.000 Cl
ENDBRANCH  21  24
ENDBRANCH   5  20
TORSDOF 4
ENDMDL
MODEL 6
REMARK VINA RESULT:      -7.0      1.431      1.534
REMARK  Name = 
REMARK  4 active torsions:
REMARK  status: ('A' for Active; 'I' for Inactive)
REMARK    1  A    between atoms: C_6  and  N_7
REMARK    2  A    between atoms: C_8  and  C_10
REMARK    3  A    between atoms: C_14  and  N_15
REMARK    4  A    between atoms: C_16  and  C_18
REMARK                            x       y       z     vdW  Elec       q    Type
REMARK                         _______ _______ _______ _____ _____    ______ ____
ROOT
ATOM      1  C   UNL     1       1.775   8.318  19.475  0.00  0.00    +0.000 A 
ATOM      2  N   UNL     1       1.093   8.407  20.641  0.00  0.00    +0.000 NA
ATOM      3  N   UNL     1       1.324   7.223  21.236  0.00  0.00    +0.000 N 
ATOM      4  C   UNL     1       2.113   6.388  20.511  0.00  0.00    +0.000 A 
ATOM      5  C   UNL     1       2.445   7.058  19.360  0.00  0.00    +0.000 A 
ATOM      6  H   UNL     1       0.918   7.048  22.150  0.00  0.00    +0.000 HD
ENDROOT
BRANCH   1   8
ATOM      7  N   UNL     1       1.260  10.609  19.033  0.00  0.00    +0.000 N 
ATOM      8  C   UNL     1       1.773   9.433  18.512  0.00  0.00    +0.000 C 
ATOM      9  O   UNL     1       2.198   9.318  17.366  0.00  0.00    +0.000 OA
ATOM     10  H   UNL     1       1.025  10.550  20.022  0.00  0.00    +0.000 HD
BRANCH   7  16
ATOM     11  N   UNL     1       0.939  15.446  19.368  0.00  0.00    +0.000 NA
ATOM     12  S   UNL     1       0.978  14.268  20.363  0.00  0.00    +0.000 S 
ATOM     13  O   UNL     1       0.918  14.433  21.799  0.00  0.00    +0.000 OA
ATOM     14  C   UNL     1      -0.318  13.135  19.913  0.00  0.00    +0.000 C 
ATOM     15  C   UNL     1      -0.136  12.582  18.505  0.00  0.00    +0.000 C 
ATOM     16  C   UNL     1       1.201  11.856  18.286  0.00  0.00    +0.000 C 
ATOM     17  C   UNL     1       2.412  12.753  18.583  0.00  0.00    +0.000 C 
ATOM     18  C   UNL     1       2.428  13.298  20.002  0.00  0.00    +0.000 C 
ATOM     19  H   UNL     1       0.135  16.053  19.540  0.00  0.00    +0.000 HD
ENDBRANCH   7  16
ENDBRANCH   1   8
BRANCH   5  20
ATOM     20  N   UNL     1       3.250   6.606  18.318  0.00  0.00    +0.000 N 
ATOM     21  C   UNL     1       4.403   5.851  18.479  0.00  0.00    +0.000 C 
ATOM     22  O   UNL     1       4.870   5.510  19.561  0.00  0.00    +0.000 OA
ATOM     23  H   UNL     1       2.881   6.775  17.383  0.00  0.00    +0.000 HD
BRANCH  21  24
ATOM     24  C   UNL     1       5.098   5.397  17.235  0.00  0.00    +0.000 A 
ATOM     25  C   UNL     1       4.574   4.323  16.483  0.00  0.00    +0.000 A 
ATOM     26 CL   UNL     1       3.224   3.356  16.982  0.00  0.00    +0.000 Cl
ATOM     27  C   UNL     1       5.162   3.941  15.265  0.00  0.00    +0.000 A 
ATOM     28  C   UNL     1       6.279   4.610  14.780  0.00  0.00    +0.000 A 
ATOM     29  C   UNL     1       6.816   5.661  15.515  0.00  0.00    +0.000 A 
ATOM     30  C   UNL     1       6.234   6.059  16.727  0.00  0.00    +0.000 A 
ATOM     31 CL   UNL     1       6.982   7.424  17.488  0.00  0.00    +0.000 Cl
ENDBRANCH  21  24
ENDBRANCH   5  20
TORSDOF 4
ENDMDL
MODEL 7
REMARK VINA RESULT:      -7.0      4.870      6.064
REMARK  Name = 
REMARK  4 active torsions:
REMARK  status: ('A' for Active; 'I' for Inactive)
REMARK    1  A    between atoms: C_6  and  N_7
REMARK    2  A    between atoms: C_8  and  C_10
REMARK    3  A    between atoms: C_14  and  N_15
REMARK    4  A    between atoms: C_16  and  C_18
REMARK                            x       y       z     vdW  Elec       q    Type
REMARK                         _______ _______ _______ _____ _____    ______ ____
ROOT
ATOM      1  C   UNL     1       6.505   5.388  18.996  0.00  0.00    +0.000 A 
ATOM      2  N   UNL     1       7.154   5.648  20.155  0.00  0.00    +0.000 NA
ATOM      3  N   UNL     1       8.407   5.220  19.922  0.00  0.00    +0.000 N 
ATOM      4  C   UNL     1       8.588   4.699  18.680  0.00  0.00    +0.000 A 
ATOM      5  C   UNL     1       7.383   4.797  18.031  0.00  0.00    +0.000 A 
ATOM      6  H   UNL     1       9.101   5.318  20.656  0.00  0.00    +0.000 HD
ENDROOT
BRANCH   1   8
ATOM      7  N   UNL     1       4.277   5.170  19.829  0.00  0.00    +0.000 N 
ATOM      8  C   UNL     1       5.077   5.714  18.840  0.00  0.00    +0.000 C 
ATOM      9  O   UNL     1       4.654   6.412  17.922  0.00  0.00    +0.000 OA
ATOM     10  H   UNL     1       4.799   4.684  20.556  0.00  0.00    +0.000 HD
BRANCH   7  16
ATOM     11  N   UNL     1      -0.107   3.087  19.573  0.00  0.00    +0.000 NA
ATOM     12  S   UNL     1       1.355   2.612  19.436  0.00  0.00    +0.000 S 
ATOM     13  O   UNL     1       1.725   1.240  19.164  0.00  0.00    +0.000 OA
ATOM     14  C   UNL     1       2.138   3.619  18.196  0.00  0.00    +0.000 C 
ATOM     15  C   UNL     1       2.147   5.095  18.574  0.00  0.00    +0.000 C 
ATOM     16  C   UNL     1       2.842   5.395  19.912  0.00  0.00    +0.000 C 
ATOM     17  C   UNL     1       2.213   4.627  21.085  0.00  0.00    +0.000 C 
ATOM     18  C   UNL     1       2.232   3.118  20.901  0.00  0.00    +0.000 C 
ATOM     19  H   UNL     1      -0.668   2.807  18.766  0.00  0.00    +0.000 HD
ENDBRANCH   7  16
ENDBRANCH   1   8
BRANCH   5  20
ATOM     20  N   UNL     1       7.087   4.405  16.729  0.00  0.00    +0.000 N 
ATOM     21  C   UNL     1       6.950   5.271  15.653  0.00  0.00    +0.000 C 
ATOM     22  O   UNL     1       7.049   6.492  15.722  0.00  0.00    +0.000 OA
ATOM     23  H   UNL     1       7.076   3.398  16.573  0.00  0.00    +0.000 HD
BRANCH  21  24
ATOM     24  C   UNL     1       6.701   4.657  14.312  0.00  0.00    +0.000 A 
ATOM     25  C   UNL     1       5.533   3.898  14.087  0.00  0.00    +0.000 A 
ATOM     26 CL   UNL     1       4.393   3.480  15.325  0.00  0.00    +0.000 Cl
ATOM     27  C   UNL     1       5.238   3.389  12.810  0.00  0.00    +0.000 A 
ATOM     28  C   UNL     1       6.099   3.618  11.744  0.00  0.00    +0.000 A 
ATOM     29  C   UNL     1       7.261   4.353  11.952  0.00  0.00    +0.000 A 
ATOM     30  C   UNL     1       7.562   4.874  13.218  0.00  0.00    +0.000 A 
ATOM     31 CL   UNL     1       9.012   5.819  13.297  0.00  0.00    +0.000 Cl
ENDBRANCH  21  24
ENDBRANCH   5  20
TORSDOF 4
ENDMDL
MODEL 8
REMARK VINA RESULT:      -7.0      4.134      8.607
REMARK  Name = 
REMARK  4 active torsions:
REMARK  status: ('A' for Active; 'I' for Inactive)
REMARK    1  A    between atoms: C_6  and  N_7
REMARK    2  A    between atoms: C_8  and  C_10
REMARK    3  A    between atoms: C_14  and  N_15
REMARK    4  A    between atoms: C_16  and  C_18
REMARK                            x       y       z     vdW  Elec       q    Type
REMARK                         _______ _______ _______ _____ _____    ______ ____
ROOT
ATOM      1  C   UNL     1       1.224   8.767  20.694  0.00  0.00    +0.000 A 
ATOM      2  N   UNL     1       1.994   8.584  21.793  0.00  0.00    +0.000 NA
ATOM      3  N   UNL     1       1.257   9.108  22.789  0.00  0.00    +0.000 N 
ATOM      4  C   UNL     1       0.064   9.616  22.382  0.00  0.00    +0.000 A 
ATOM      5  C   UNL     1      -0.013   9.407  21.028  0.00  0.00    +0.000 A 
ATOM      6  H   UNL     1       1.625   9.081  23.735  0.00  0.00    +0.000 HD
ENDROOT
BRANCH   1   8
ATOM      7  N   UNL     1       2.208   7.042  19.366  0.00  0.00    +0.000 N 
ATOM      8  C   UNL     1       1.685   8.323  19.367  0.00  0.00    +0.000 C 
ATOM      9  O   UNL     1       1.598   9.030  18.367  0.00  0.00    +0.000 OA
ATOM     10  H   UNL     1       2.133   6.569  20.265  0.00  0.00    +0.000 HD
BRANCH   7  16
ATOM     11  N   UNL     1       4.420   3.085  17.615  0.00  0.00    +0.000 NA
ATOM     12  S   UNL     1       4.014   3.599  19.012  0.00  0.00    +0.000 S 
ATOM     13  O   UNL     1       4.263   2.868  20.236  0.00  0.00    +0.000 OA
ATOM     14  C   UNL     1       4.719   5.220  19.219  0.00  0.00    +0.000 C 
ATOM     15  C   UNL     1       4.210   6.207  18.176  0.00  0.00    +0.000 C 
ATOM     16  C   UNL     1       2.681   6.372  18.164  0.00  0.00    +0.000 C 
ATOM     17  C   UNL     1       1.948   5.042  17.929  0.00  0.00    +0.000 C 
ATOM     18  C   UNL     1       2.274   3.980  18.967  0.00  0.00    +0.000 C 
ATOM     19  H   UNL     1       5.409   2.829  17.585  0.00  0.00    +0.000 HD
ENDBRANCH   7  16
ENDBRANCH   1   8
BRANCH   5  20
ATOM     20  N   UNL     1      -1.058   9.748  20.175  0.00  0.00    +0.000 N 
ATOM     21  C   UNL     1      -1.182  10.966  19.522  0.00  0.00    +0.000 C 
ATOM     22  O   UNL     1      -0.397  11.902  19.634  0.00  0.00    +0.000 OA
ATOM     23  H   UNL     1      -1.706   8.991  19.962  0.00  0.00    +0.000 HD
BRANCH  21  24
ATOM     24  C   UNL     1      -2.340  11.123  18.587  0.00  0.00    +0.000 A 
ATOM     25  C   UNL     1      -2.375  10.401  17.375  0.00  0.00    +0.000 A 
ATOM     26 CL   UNL     1      -1.067   9.423  16.790  0.00  0.00    +0.000 Cl
ATOM     27  C   UNL     1      -3.495  10.466  16.528  0.00  0.00    +0.000 A 
ATOM     28  C   UNL     1      -4.589  11.254  16.866  0.00  0.00    +0.000 A 
ATOM     29  C   UNL     1      -4.565  11.982  18.050  0.00  0.00    +0.000 A 
ATOM     30  C   UNL     1      -3.458  11.918  18.909  0.00  0.00    +0.000 A 
ATOM     31 CL   UNL     1      -3.610  12.833  20.372  0.00  0.00    +0.000 Cl
ENDBRANCH  21  24
ENDBRANCH   5  20
TORSDOF 4
ENDMDL
MODEL 9
REMARK VINA RESULT:      -7.0      3.859      8.475
REMARK  Name = 
REMARK  4 active torsions:
REMARK  status: ('A' for Active; 'I' for Inactive)
REMARK    1  A    between atoms: C_6  and  N_7
REMARK    2  A    between atoms: C_8  and  C_10
REMARK    3  A    between atoms: C_14  and  N_15
REMARK    4  A    between atoms: C_16  and  C_18
REMARK                            x       y       z     vdW  Elec       q    Type
REMARK                         _______ _______ _______ _____ _____    ______ ____
ROOT
ATOM      1  C   UNL     1       2.133   7.676  19.476  0.00  0.00    +0.000 A 
ATOM      2  N   UNL     1       2.148   6.555  20.234  0.00  0.00    +0.000 NA
ATOM      3  N   UNL     1       1.484   6.913  21.347  0.00  0.00    +0.000 N 
ATOM      4  C   UNL     1       1.052   8.201  21.339  0.00  0.00    +0.000 A 
ATOM      5  C   UNL     1       1.437   8.740  20.136  0.00  0.00    +0.000 A 
ATOM      6  H   UNL     1       1.352   6.223  22.081  0.00  0.00    +0.000 HD
ENDROOT
BRANCH   1   8
ATOM      7  N   UNL     1       3.692   6.682  17.964  0.00  0.00    +0.000 N 
ATOM      8  C   UNL     1       2.774   7.700  18.150  0.00  0.00    +0.000 C 
ATOM      9  O   UNL     1       2.501   8.542  17.299  0.00  0.00    +0.000 OA
ATOM     10  H   UNL     1       3.740   6.026  18.742  0.00  0.00    +0.000 HD
BRANCH   7  16
ATOM     11  N   UNL     1       7.683   4.788  15.937  0.00  0.00    +0.000 NA
ATOM     12  S   UNL     1       7.111   4.895  17.366  0.00  0.00    +0.000 S 
ATOM     13  O   UNL     1       7.777   4.359  18.534  0.00  0.00    +0.000 OA
ATOM     14  C   UNL     1       6.786   6.613  17.693  0.00  0.00    +0.000 C 
ATOM     15  C   UNL     1       5.769   7.202  16.723  0.00  0.00    +0.000 C 
ATOM     16  C   UNL     1       4.414   6.474  16.718  0.00  0.00    +0.000 C 
ATOM     17  C   UNL     1       4.552   4.980  16.384  0.00  0.00    +0.000 C 
ATOM     18  C   UNL     1       5.460   4.227  17.343  0.00  0.00    +0.000 C 
ATOM     19  H   UNL     1       8.642   5.140  15.891  0.00  0.00    +0.000 HD
ENDBRANCH   7  16
ENDBRANCH   1   8
BRANCH   5  20
ATOM     20  N   UNL     1       1.204  10.030  19.672  0.00  0.00    +0.000 N 
ATOM     21  C   UNL     1       0.900  11.118  20.478  0.00  0.00    +0.000 C 
ATOM     22  O   UNL     1       0.775  11.072  21.697  0.00  0.00    +0.000 OA
ATOM     23  H   UNL     1       1.375  10.169  18.677  0.00  0.00    +0.000 HD
BRANCH  21  24
ATOM     24  C   UNL     1       0.753  12.445  19.802  0.00  0.00    +0.000 A 
ATOM     25  C   UNL     1      -0.367  12.702  18.982  0.00  0.00    +0.000 A 
ATOM     26 CL   UNL     1      -1.553  11.511  18.558  0.00  0.00    +0.000 Cl
ATOM     27  C   UNL     1      -0.567  13.972  18.412  0.00  0.00    +0.000 A 
ATOM     28  C   UNL     1       0.341  14.998  18.641  0.00  0.00    +0.000 A 
ATOM     29  C   UNL     1       1.456  14.758  19.435  0.00  0.00    +0.000 A 
ATOM     30  C   UNL     1       1.663  13.499  20.017  0.00  0.00    +0.000 A 
ATOM     31 CL   UNL     1       3.063  13.381  21.030  0.00  0.00    +0.000 Cl
ENDBRANCH  21  24
ENDBRANCH   5  20
TORSDOF 4
ENDMDL
