MODEL 1
REMARK VINA RESULT:      -7.4      0.000      0.000
REMARK  Name = 
REMARK  11 active torsions:
REMARK  status: ('A' for Active; 'I' for Inactive)
REMARK    1  A    between atoms: C_1  and  C_2
REMARK    2  A    between atoms: C_2  and  C_3
REMARK    3  A    between atoms: C_3  and  N_4
REMARK    4  A    between atoms: C_6  and  S_7
REMARK    5  A    between atoms: S_7  and  N_10
REMARK    6  A    between atoms: N_10  and  C_11
REMARK    7  A    between atoms: C_11  and  C_12
REMARK    8  A    between atoms: C_14  and  C_15
REMARK    9  A    between atoms: C_15  and  C_16
REMARK   10  A    between atoms: C_16  and  C_17
REMARK   11  A    between atoms: C_16  and  C_18
REMARK                            x       y       z     vdW  Elec       q    Type
REMARK                         _______ _______ _______ _____ _____    ______ ____
ROOT
ATOM      1  N   UNL     1       4.515   3.950  17.246  0.00  0.00    +0.000 NA
ATOM      2  H   UNL     1       3.769   4.497  16.815  0.00  0.00    +0.000 HD
ENDROOT
BRANCH   1   3
ATOM      3  S   UNL     1       4.151   3.467  18.820  0.00  0.00    +0.000 S 
ATOM      4  O   UNL     1       5.368   3.432  19.596  0.00  0.00    +0.000 OA
ATOM      5  O   UNL     1       3.243   2.345  18.734  0.00  0.00    +0.000 OA
BRANCH   3   8
ATOM      6  N   UNL     1       2.225   6.581  20.044  0.00  0.00    +0.000 N 
ATOM      7  C   UNL     1       3.131   6.020  19.189  0.00  0.00    +0.000 A 
ATOM      8  C   UNL     1       3.200   4.691  19.547  0.00  0.00    +0.000 A 
ATOM      9  C   UNL     1       2.300   4.543  20.610  0.00  0.00    +0.000 A 
ATOM     10  N   UNL     1       1.708   5.701  20.926  0.00  0.00    +0.000 NA
BRANCH   6  11
ATOM     11  C   UNL     1       1.828   7.977  20.090  0.00  0.00    +0.000 C 
BRANCH  11  13
ATOM     12  C   UNL     1       1.185   9.194  22.229  0.00  0.00    +0.000 C 
ATOM     13  C   UNL     1       0.728   8.265  21.113  0.00  0.00    +0.000 C 
ENDBRANCH  11  13
ENDBRANCH   6  11
ENDBRANCH   3   8
ENDBRANCH   1   3
BRANCH   1  14
ATOM     14  C   UNL     1       5.862   4.520  17.074  0.00  0.00    +0.000 C 
BRANCH  14  15
ATOM     15  C   UNL     1       6.314   4.479  15.653  0.00  0.00    +0.000 A 
ATOM     16  N   UNL     1       5.915   3.764  14.617  0.00  0.00    +0.000 NA
ATOM     17  C   UNL     1       6.701   4.273  13.603  0.00  0.00    +0.000 A 
ATOM     18  N   UNL     1       7.531   5.256  13.977  0.00  0.00    +0.000 NA
ATOM     19  O   UNL     1       7.276   5.395  15.334  0.00  0.00    +0.000 OA
BRANCH  17  20
ATOM     20  C   UNL     1       6.685   3.783  12.197  0.00  0.00    +0.000 C 
BRANCH  20  21
ATOM     21  C   UNL     1       5.689   2.642  11.920  0.00  0.00    +0.000 C 
ATOM     22  C   UNL     1       4.410   3.128  11.235  0.00  0.00    +0.000 C 
ATOM     23  C   UNL     1       6.354   1.574  11.044  0.00  0.00    +0.000 C 
ENDBRANCH  20  21
ENDBRANCH  17  20
ENDBRANCH  14  15
ENDBRANCH   1  14
TORSDOF 8
ENDMDL
MODEL 2
REMARK VINA RESULT:      -7.4      2.473      2.849
REMARK  Name = 
REMARK  11 active torsions:
REMARK  status: ('A' for Active; 'I' for Inactive)
REMARK    1  A    between atoms: C_1  and  C_2
REMARK    2  A    between atoms: C_2  and  C_3
REMARK    3  A    between atoms: C_3  and  N_4
REMARK    4  A    between atoms: C_6  and  S_7
REMARK    5  A    between atoms: S_7  and  N_10
REMARK    6  A    between atoms: N_10  and  C_11
REMARK    7  A    between atoms: C_11  and  C_12
REMARK    8  A    between atoms: C_14  and  C_15
REMARK    9  A    between atoms: C_15  and  C_16
REMARK   10  A    between atoms: C_16  and  C_17
REMARK   11  A    between atoms: C_16  and  C_18
REMARK                            x       y       z     vdW  Elec       q    Type
REMARK                         _______ _______ _______ _____ _____    ______ ____
ROOT
ATOM      1  N   UNL     1       6.302   6.314  17.530  0.00  0.00    +0.000 NA
ATOM      2  H   UNL     1       7.232   6.662  17.296  0.00  0.00    +0.000 HD
ENDROOT
BRANCH   1   3
ATOM      3  S   UNL     1       6.342   4.960  18.535  0.00  0.00    +0.000 S 
ATOM      4  O   UNL     1       6.600   5.386  19.890  0.00  0.00    +0.000 OA
ATOM      5  O   UNL     1       7.127   3.944  17.869  0.00  0.00    +0.000 OA
BRANCH   3   8
ATOM      6  N   UNL     1       2.662   3.884  18.977  0.00  0.00    +0.000 N 
ATOM      7  C   UNL     1       3.680   4.740  19.283  0.00  0.00    +0.000 A 
ATOM      8  C   UNL     1       4.771   4.282  18.578  0.00  0.00    +0.000 A 
ATOM      9  C   UNL     1       4.315   3.161  17.871  0.00  0.00    +0.000 A 
ATOM     10  N   UNL     1       3.026   2.906  18.122  0.00  0.00    +0.000 NA
BRANCH   6  11
ATOM     11  C   UNL     1       1.307   3.927  19.499  0.00  0.00    +0.000 C 
BRANCH  11  13
ATOM     12  C   UNL     1       2.179   2.898  21.656  0.00  0.00    +0.000 C 
ATOM     13  C   UNL     1       1.056   2.928  20.629  0.00  0.00    +0.000 C 
ENDBRANCH  11  13
ENDBRANCH   6  11
ENDBRANCH   3   8
ENDBRANCH   1   3
BRANCH   1  14
ATOM     14  C   UNL     1       5.390   6.198  16.379  0.00  0.00    +0.000 C 
BRANCH  14  15
ATOM     15  C   UNL     1       6.036   5.529  15.213  0.00  0.00    +0.000 A 
ATOM     16  N   UNL     1       5.545   4.811  14.220  0.00  0.00    +0.000 NA
ATOM     17  C   UNL     1       6.674   4.567  13.464  0.00  0.00    +0.000 A 
ATOM     18  N   UNL     1       7.800   5.110  13.945  0.00  0.00    +0.000 NA
ATOM     19  O   UNL     1       7.380   5.750  15.103  0.00  0.00    +0.000 OA
BRANCH  17  20
ATOM     20  C   UNL     1       6.695   3.746  12.221  0.00  0.00    +0.000 C 
BRANCH  20  21
ATOM     21  C   UNL     1       5.549   2.725  12.100  0.00  0.00    +0.000 C 
ATOM     22  C   UNL     1       4.309   3.307  11.417  0.00  0.00    +0.000 C 
ATOM     23  C   UNL     1       6.028   1.499  11.314  0.00  0.00    +0.000 C 
ENDBRANCH  20  21
ENDBRANCH  17  20
ENDBRANCH  14  15
ENDBRANCH   1  14
TORSDOF 8
ENDMDL
MODEL 3
REMARK VINA RESULT:      -7.3      2.522      8.179
REMARK  Name = 
REMARK  11 active torsions:
REMARK  status: ('A' for Active; 'I' for Inactive)
REMARK    1  A    between atoms: C_1  and  C_2
REMARK    2  A    between atoms: C_2  and  C_3
REMARK    3  A    between atoms: C_3  and  N_4
REMARK    4  A    between atoms: C_6  and  S_7
REMARK    5  A    between atoms: S_7  and  N_10
REMARK    6  A    between atoms: N_10  and  C_11
REMARK    7  A    between atoms: C_11  and  C_12
REMARK    8  A    between atoms: C_14  and  C_15
REMARK    9  A    between atoms: C_15  and  C_16
REMARK   10  A    between atoms: C_16  and  C_17
REMARK   11  A    between atoms: C_16  and  C_18
REMARK                            x       y       z     vdW  Elec       q    Type
REMARK                         _______ _______ _______ _____ _____    ______ ____
ROOT
ATOM      1  N   UNL     1       6.277   4.083  16.757  0.00  0.00    +0.000 NA
ATOM      2  H   UNL     1       7.039   3.406  16.700  0.00  0.00    +0.000 HD
ENDROOT
BRANCH   1   3
ATOM      3  S   UNL     1       6.399   5.308  15.605  0.00  0.00    +0.000 S 
ATOM      4  O   UNL     1       7.697   5.931  15.715  0.00  0.00    +0.000 OA
ATOM      5  O   UNL     1       5.164   6.059  15.632  0.00  0.00    +0.000 OA
BRANCH   3   8
ATOM      6  N   UNL     1       5.833   3.492  12.246  0.00  0.00    +0.000 N 
ATOM      7  C   UNL     1       5.389   3.816  13.496  0.00  0.00    +0.000 A 
ATOM      8  C   UNL     1       6.388   4.584  14.054  0.00  0.00    +0.000 A 
ATOM      9  C   UNL     1       7.380   4.678  13.070  0.00  0.00    +0.000 A 
ATOM     10  N   UNL     1       7.051   4.001  11.964  0.00  0.00    +0.000 NA
BRANCH   6  11
ATOM     11  C   UNL     1       5.147   2.663  11.271  0.00  0.00    +0.000 C 
BRANCH  11  13
ATOM     12  C   UNL     1       3.341   3.953  10.027  0.00  0.00    +0.000 C 
ATOM     13  C   UNL     1       3.654   2.973  11.149  0.00  0.00    +0.000 C 
ENDBRANCH  11  13
ENDBRANCH   6  11
ENDBRANCH   3   8
ENDBRANCH   1   3
BRANCH   1  14
ATOM     14  C   UNL     1       5.981   4.550  18.122  0.00  0.00    +0.000 C 
BRANCH  14  15
ATOM     15  C   UNL     1       4.879   3.771  18.758  0.00  0.00    +0.000 A 
ATOM     16  N   UNL     1       3.594   3.662  18.474  0.00  0.00    +0.000 NA
ATOM     17  C   UNL     1       3.178   2.733  19.407  0.00  0.00    +0.000 A 
ATOM     18  N   UNL     1       4.144   2.277  20.214  0.00  0.00    +0.000 NA
ATOM     19  O   UNL     1       5.273   2.962  19.786  0.00  0.00    +0.000 OA
BRANCH  17  20
ATOM     20  C   UNL     1       1.772   2.265  19.561  0.00  0.00    +0.000 C 
BRANCH  20  21
ATOM     21  C   UNL     1       0.952   3.017  20.625  0.00  0.00    +0.000 C 
ATOM     22  C   UNL     1       1.321   2.607  22.052  0.00  0.00    +0.000 C 
ATOM     23  C   UNL     1       1.158   4.528  20.466  0.00  0.00    +0.000 C 
ENDBRANCH  20  21
ENDBRANCH  17  20
ENDBRANCH  14  15
ENDBRANCH   1  14
TORSDOF 8
ENDMDL
MODEL 4
REMARK VINA RESULT:      -7.3      2.537      3.210
REMARK  Name = 
REMARK  11 active torsions:
REMARK  status: ('A' for Active; 'I' for Inactive)
REMARK    1  A    between atoms: C_1  and  C_2
REMARK    2  A    between atoms: C_2  and  C_3
REMARK    3  A    between atoms: C_3  and  N_4
REMARK    4  A    between atoms: C_6  and  S_7
REMARK    5  A    between atoms: S_7  and  N_10
REMARK    6  A    between atoms: N_10  and  C_11
REMARK    7  A    between atoms: C_11  and  C_12
REMARK    8  A    between atoms: C_14  and  C_15
REMARK    9  A    between atoms: C_15  and  C_16
REMARK   10  A    between atoms: C_16  and  C_17
REMARK   11  A    between atoms: C_16  and  C_18
REMARK                            x       y       z     vdW  Elec       q    Type
REMARK                         _______ _______ _______ _____ _____    ______ ____
ROOT
ATOM      1  N   UNL     1       7.280   6.733  18.191  0.00  0.00    +0.000 NA
ATOM      2  H   UNL     1       8.236   6.933  17.892  0.00  0.00    +0.000 HD
ENDROOT
BRANCH   1   3
ATOM      3  S   UNL     1       7.146   5.278  19.033  0.00  0.00    +0.000 S 
ATOM      4  O   UNL     1       7.595   5.475  20.390  0.00  0.00    +0.000 OA
ATOM      5  O   UNL     1       7.663   4.231  18.180  0.00  0.00    +0.000 OA
BRANCH   3   8
ATOM      6  N   UNL     1       3.567   3.853  19.277  0.00  0.00    +0.000 N 
ATOM      7  C   UNL     1       4.903   3.647  19.081  0.00  0.00    +0.000 A 
ATOM      8  C   UNL     1       5.484   4.893  19.169  0.00  0.00    +0.000 A 
ATOM      9  C   UNL     1       4.430   5.779  19.430  0.00  0.00    +0.000 A 
ATOM     10  N   UNL     1       3.251   5.148  19.486  0.00  0.00    +0.000 NA
BRANCH   6  11
ATOM     11  C   UNL     1       2.522   2.844  19.247  0.00  0.00    +0.000 C 
BRANCH  11  13
ATOM     12  C   UNL     1       1.606   2.674  21.614  0.00  0.00    +0.000 C 
ATOM     13  C   UNL     1       1.356   3.145  20.189  0.00  0.00    +0.000 C 
ENDBRANCH  11  13
ENDBRANCH   6  11
ENDBRANCH   3   8
ENDBRANCH   1   3
BRANCH   1  14
ATOM     14  C   UNL     1       6.262   6.935  17.146  0.00  0.00    +0.000 C 
BRANCH  14  15
ATOM     15  C   UNL     1       6.351   5.907  16.068  0.00  0.00    +0.000 A 
ATOM     16  N   UNL     1       5.474   5.041  15.596  0.00  0.00    +0.000 NA
ATOM     17  C   UNL     1       6.183   4.453  14.568  0.00  0.00    +0.000 A 
ATOM     18  N   UNL     1       7.422   4.933  14.396  0.00  0.00    +0.000 NA
ATOM     19  O   UNL     1       7.536   5.897  15.387  0.00  0.00    +0.000 OA
BRANCH  17  20
ATOM     20  C   UNL     1       5.665   3.351  13.709  0.00  0.00    +0.000 C 
BRANCH  20  21
ATOM     21  C   UNL     1       5.825   3.581  12.195  0.00  0.00    +0.000 C 
ATOM     22  C   UNL     1       6.900   2.687  11.573  0.00  0.00    +0.000 C 
ATOM     23  C   UNL     1       4.488   3.327  11.488  0.00  0.00    +0.000 C 
ENDBRANCH  20  21
ENDBRANCH  17  20
ENDBRANCH  14  15
ENDBRANCH   1  14
TORSDOF 8
ENDMDL
MODEL 5
REMARK VINA RESULT:      -7.0      1.130      1.519
REMARK  Name = 
REMARK  11 active torsions:
REMARK  status: ('A' for Active; 'I' for Inactive)
REMARK    1  A    between atoms: C_1  and  C_2
REMARK    2  A    between atoms: C_2  and  C_3
REMARK    3  A    between atoms: C_3  and  N_4
REMARK    4  A    between atoms: C_6  and  S_7
REMARK    5  A    between atoms: S_7  and  N_10
REMARK    6  A    between atoms: N_10  and  C_11
REMARK    7  A    between atoms: C_11  and  C_12
REMARK    8  A    between atoms: C_14  and  C_15
REMARK    9  A    between atoms: C_15  and  C_16
REMARK   10  A    between atoms: C_16  and  C_17
REMARK   11  A    between atoms: C_16  and  C_18
REMARK                            x       y       z     vdW  Elec       q    Type
REMARK                         _______ _______ _______ _____ _____    ______ ____
ROOT
ATOM      1  N   UNL     1       5.086   5.660  17.372  0.00  0.00    +0.000 NA
ATOM      2  H   UNL     1       5.352   6.592  17.692  0.00  0.00    +0.000 HD
ENDROOT
BRANCH   1   3
ATOM      3  S   UNL     1       3.840   4.983  18.286  0.00  0.00    +0.000 S 
ATOM      4  O   UNL     1       4.408   4.297  19.422  0.00  0.00    +0.000 OA
ATOM      5  O   UNL     1       2.919   4.351  17.367  0.00  0.00    +0.000 OA
BRANCH   3   8
ATOM      6  N   UNL     1       1.692   7.509  20.261  0.00  0.00    +0.000 N 
ATOM      7  C   UNL     1       2.257   6.269  20.165  0.00  0.00    +0.000 A 
ATOM      8  C   UNL     1       2.918   6.259  18.956  0.00  0.00    +0.000 A 
ATOM      9  C   UNL     1       2.708   7.530  18.405  0.00  0.00    +0.000 A 
ATOM     10  N   UNL     1       1.946   8.296  19.196  0.00  0.00    +0.000 NA
BRANCH   6  11
ATOM     11  C   UNL     1       0.860   7.999  21.347  0.00  0.00    +0.000 C 
BRANCH  11  13
ATOM     12  C   UNL     1      -0.069  10.112  22.416  0.00  0.00    +0.000 C 
ATOM     13  C   UNL     1       1.102   9.471  21.684  0.00  0.00    +0.000 C 
ENDBRANCH  11  13
ENDBRANCH   6  11
ENDBRANCH   3   8
ENDBRANCH   1   3
BRANCH   1  14
ATOM     14  C   UNL     1       6.223   4.757  17.119  0.00  0.00    +0.000 C 
BRANCH  14  15
ATOM     15  C   UNL     1       6.557   4.666  15.667  0.00  0.00    +0.000 A 
ATOM     16  N   UNL     1       6.040   3.954  14.683  0.00  0.00    +0.000 NA
ATOM     17  C   UNL     1       6.767   4.403  13.599  0.00  0.00    +0.000 A 
ATOM     18  N   UNL     1       7.672   5.349  13.884  0.00  0.00    +0.000 NA
ATOM     19  O   UNL     1       7.534   5.526  15.253  0.00  0.00    +0.000 OA
BRANCH  17  20
ATOM     20  C   UNL     1       6.614   3.888  12.209  0.00  0.00    +0.000 C 
BRANCH  20  21
ATOM     21  C   UNL     1       5.572   2.767  12.046  0.00  0.00    +0.000 C 
ATOM     22  C   UNL     1       4.298   3.243  11.344  0.00  0.00    +0.000 C 
ATOM     23  C   UNL     1       6.181   1.606  11.251  0.00  0.00    +0.000 C 
ENDBRANCH  20  21
ENDBRANCH  17  20
ENDBRANCH  14  15
ENDBRANCH   1  14
TORSDOF 8
ENDMDL
MODEL 6
REMARK VINA RESULT:      -7.0      4.402      6.422
REMARK  Name = 
REMARK  11 active torsions:
REMARK  status: ('A' for Active; 'I' for Inactive)
REMARK    1  A    between atoms: C_1  and  C_2
REMARK    2  A    between atoms: C_2  and  C_3
REMARK    3  A    between atoms: C_3  and  N_4
REMARK    4  A    between atoms: C_6  and  S_7
REMARK    5  A    between atoms: S_7  and  N_10
REMARK    6  A    between atoms: N_10  and  C_11
REMARK    7  A    between atoms: C_11  and  C_12
REMARK    8  A    between atoms: C_14  and  C_15
REMARK    9  A    between atoms: C_15  and  C_16
REMARK   10  A    between atoms: C_16  and  C_17
REMARK   11  A    between atoms: C_16  and  C_18
REMARK                            x       y       z     vdW  Elec       q    Type
REMARK                         _______ _______ _______ _____ _____    ______ ____
ROOT
ATOM      1  N   UNL     1       7.448   5.114  16.582  0.00  0.00    +0.000 NA
ATOM      2  H   UNL     1       8.048   5.658  15.961  0.00  0.00    +0.000 HD
ENDROOT
BRANCH   1   3
ATOM      3  S   UNL     1       5.935   4.787  15.912  0.00  0.00    +0.000 S 
ATOM      4  O   UNL     1       5.913   3.423  15.440  0.00  0.00    +0.000 OA
ATOM      5  O   UNL     1       5.574   5.912  15.078  0.00  0.00    +0.000 OA
BRANCH   3   8
ATOM      6  N   UNL     1       3.505   4.362  18.881  0.00  0.00    +0.000 N 
ATOM      7  C   UNL     1       4.472   3.840  18.070  0.00  0.00    +0.000 A 
ATOM      8  C   UNL     1       4.774   4.837  17.169  0.00  0.00    +0.000 A 
ATOM      9  C   UNL     1       3.954   5.918  17.519  0.00  0.00    +0.000 A 
ATOM     10  N   UNL     1       3.166   5.628  18.560  0.00  0.00    +0.000 NA
BRANCH   6  11
ATOM     11  C   UNL     1       2.834   3.683  19.976  0.00  0.00    +0.000 C 
BRANCH  11  13
ATOM     12  C   UNL     1       0.902   2.570  18.751  0.00  0.00    +0.000 C 
ATOM     13  C   UNL     1       1.318   3.592  19.800  0.00  0.00    +0.000 C 
ENDBRANCH  11  13
ENDBRANCH   6  11
ENDBRANCH   3   8
ENDBRANCH   1   3
BRANCH   1  14
ATOM     14  C   UNL     1       7.412   5.601  17.972  0.00  0.00    +0.000 C 
BRANCH  14  15
ATOM     15  C   UNL     1       7.764   7.048  18.071  0.00  0.00    +0.000 A 
ATOM     16  N   UNL     1       8.548   7.713  18.898  0.00  0.00    +0.000 NA
ATOM     17  C   UNL     1       8.476   8.993  18.386  0.00  0.00    +0.000 A 
ATOM     18  N   UNL     1       7.707   9.119  17.296  0.00  0.00    +0.000 NA
ATOM     19  O   UNL     1       7.235   7.831  17.084  0.00  0.00    +0.000 OA
BRANCH  17  20
ATOM     20  C   UNL     1       9.158  10.178  18.979  0.00  0.00    +0.000 C 
BRANCH  20  21
ATOM     21  C   UNL     1       9.595  11.249  17.963  0.00  0.00    +0.000 C 
ATOM     22  C   UNL     1       8.785  12.542  18.083  0.00  0.00    +0.000 C 
ATOM     23  C   UNL     1      11.083  11.567  18.153  0.00  0.00    +0.000 C 
ENDBRANCH  20  21
ENDBRANCH  17  20
ENDBRANCH  14  15
ENDBRANCH   1  14
TORSDOF 8
ENDMDL
MODEL 7
REMARK VINA RESULT:      -6.9      1.199      1.344
REMARK  Name = 
REMARK  11 active torsions:
REMARK  status: ('A' for Active; 'I' for Inactive)
REMARK    1  A    between atoms: C_1  and  C_2
REMARK    2  A    between atoms: C_2  and  C_3
REMARK    3  A    between atoms: C_3  and  N_4
REMARK    4  A    between atoms: C_6  and  S_7
REMARK    5  A    between atoms: S_7  and  N_10
REMARK    6  A    between atoms: N_10  and  C_11
REMARK    7  A    between atoms: C_11  and  C_12
REMARK    8  A    between atoms: C_14  and  C_15
REMARK    9  A    between atoms: C_15  and  C_16
REMARK   10  A    between atoms: C_16  and  C_17
REMARK   11  A    between atoms: C_16  and  C_18
REMARK                            x       y       z     vdW  Elec       q    Type
REMARK                         _______ _______ _______ _____ _____    ______ ____
ROOT
ATOM      1  N   UNL     1       4.401   5.425  17.051  0.00  0.00    +0.000 NA
ATOM      2  H   UNL     1       4.222   6.429  17.076  0.00  0.00    +0.000 HD
ENDROOT
BRANCH   1   3
ATOM      3  S   UNL     1       3.495   4.568  18.187  0.00  0.00    +0.000 S 
ATOM      4  O   UNL     1       4.393   3.866  19.073  0.00  0.00    +0.000 OA
ATOM      5  O   UNL     1       2.417   3.912  17.481  0.00  0.00    +0.000 OA
BRANCH   3   8
ATOM      6  N   UNL     1       1.805   7.511  20.026  0.00  0.00    +0.000 N 
ATOM      7  C   UNL     1       2.544   7.052  18.972  0.00  0.00    +0.000 A 
ATOM      8  C   UNL     1       2.685   5.698  19.185  0.00  0.00    +0.000 A 
ATOM      9  C   UNL     1       1.995   5.433  20.375  0.00  0.00    +0.000 A 
ATOM     10  N   UNL     1       1.464   6.543  20.901  0.00  0.00    +0.000 NA
BRANCH   6  11
ATOM     11  C   UNL     1       1.414   8.888  20.274  0.00  0.00    +0.000 C 
BRANCH  11  13
ATOM     12  C   UNL     1       1.504  10.746  18.539  0.00  0.00    +0.000 C 
ATOM     13  C   UNL     1       0.729   9.553  19.079  0.00  0.00    +0.000 C 
ENDBRANCH  11  13
ENDBRANCH   6  11
ENDBRANCH   3   8
ENDBRANCH   1   3
BRANCH   1  14
ATOM     14  C   UNL     1       5.828   5.064  17.004  0.00  0.00    +0.000 C 
BRANCH  14  15
ATOM     15  C   UNL     1       6.309   4.851  15.608  0.00  0.00    +0.000 A 
ATOM     16  N   UNL     1       5.873   4.079  14.629  0.00  0.00    +0.000 NA
ATOM     17  C   UNL     1       6.726   4.422  13.599  0.00  0.00    +0.000 A 
ATOM     18  N   UNL     1       7.629   5.361  13.908  0.00  0.00    +0.000 NA
ATOM     19  O   UNL     1       7.354   5.648  15.238  0.00  0.00    +0.000 OA
BRANCH  17  20
ATOM     20  C   UNL     1       6.701   3.804  12.243  0.00  0.00    +0.000 C 
BRANCH  20  21
ATOM     21  C   UNL     1       5.643   2.703  12.053  0.00  0.00    +0.000 C 
ATOM     22  C   UNL     1       4.360   3.223  11.400  0.00  0.00    +0.000 C 
ATOM     23  C   UNL     1       6.221   1.571  11.195  0.00  0.00    +0.000 C 
ENDBRANCH  20  21
ENDBRANCH  17  20
ENDBRANCH  14  15
ENDBRANCH   1  14
TORSDOF 8
ENDMDL
MODEL 8
REMARK VINA RESULT:      -6.9      2.478      7.601
REMARK  Name = 
REMARK  11 active torsions:
REMARK  status: ('A' for Active; 'I' for Inactive)
REMARK    1  A    between atoms: C_1  and  C_2
REMARK    2  A    between atoms: C_2  and  C_3
REMARK    3  A    between atoms: C_3  and  N_4
REMARK    4  A    between atoms: C_6  and  S_7
REMARK    5  A    between atoms: S_7  and  N_10
REMARK    6  A    between atoms: N_10  and  C_11
REMARK    7  A    between atoms: C_11  and  C_12
REMARK    8  A    between atoms: C_14  and  C_15
REMARK    9  A    between atoms: C_15  and  C_16
REMARK   10  A    between atoms: C_16  and  C_17
REMARK   11  A    between atoms: C_16  and  C_18
REMARK                            x       y       z     vdW  Elec       q    Type
REMARK                         _______ _______ _______ _____ _____    ______ ____
ROOT
ATOM      1  N   UNL     1       7.137   5.131  18.047  0.00  0.00    +0.000 NA
ATOM      2  H   UNL     1       8.134   4.922  18.100  0.00  0.00    +0.000 HD
ENDROOT
BRANCH   1   3
ATOM      3  S   UNL     1       6.746   6.145  16.757  0.00  0.00    +0.000 S 
ATOM      4  O   UNL     1       7.926   6.869  16.352  0.00  0.00    +0.000 OA
ATOM      5  O   UNL     1       5.496   6.798  17.078  0.00  0.00    +0.000 OA
BRANCH   3   8
ATOM      6  N   UNL     1       6.377   4.074  13.521  0.00  0.00    +0.000 N 
ATOM      7  C   UNL     1       7.110   4.932  14.290  0.00  0.00    +0.000 A 
ATOM      8  C   UNL     1       6.346   5.165  15.412  0.00  0.00    +0.000 A 
ATOM      9  C   UNL     1       5.184   4.402  15.238  0.00  0.00    +0.000 A 
ATOM     10  N   UNL     1       5.192   3.740  14.075  0.00  0.00    +0.000 NA
BRANCH   6  11
ATOM     11  C   UNL     1       6.743   3.552  12.216  0.00  0.00    +0.000 C 
BRANCH  11  13
ATOM     12  C   UNL     1       6.461   1.306  11.056  0.00  0.00    +0.000 C 
ATOM     13  C   UNL     1       5.764   2.507  11.679  0.00  0.00    +0.000 C 
ENDBRANCH  11  13
ENDBRANCH   6  11
ENDBRANCH   3   8
ENDBRANCH   1   3
BRANCH   1  14
ATOM     14  C   UNL     1       6.526   5.509  19.333  0.00  0.00    +0.000 C 
BRANCH  14  15
ATOM     15  C   UNL     1       5.251   4.778  19.587  0.00  0.00    +0.000 A 
ATOM     16  N   UNL     1       4.023   5.198  19.830  0.00  0.00    +0.000 NA
ATOM     17  C   UNL     1       3.326   4.008  19.895  0.00  0.00    +0.000 A 
ATOM     18  N   UNL     1       4.068   2.912  19.691  0.00  0.00    +0.000 NA
ATOM     19  O   UNL     1       5.343   3.419  19.485  0.00  0.00    +0.000 OA
BRANCH  17  20
ATOM     20  C   UNL     1       1.871   3.899  20.195  0.00  0.00    +0.000 C 
BRANCH  20  21
ATOM     21  C   UNL     1       0.971   3.684  18.965  0.00  0.00    +0.000 C 
ATOM     22  C   UNL     1       1.573   4.267  17.684  0.00  0.00    +0.000 C 
ATOM     23  C   UNL     1       0.716   2.186  18.764  0.00  0.00    +0.000 C 
ENDBRANCH  20  21
ENDBRANCH  17  20
ENDBRANCH  14  15
ENDBRANCH   1  14
TORSDOF 8
ENDMDL
MODEL 9
REMARK VINA RESULT:      -6.8      1.463      1.626
REMARK  Name = 
REMARK  11 active torsions:
REMARK  status: ('A' for Active; 'I' for Inactive)
REMARK    1  A    between atoms: C_1  and  C_2
REMARK    2  A    between atoms: C_2  and  C_3
REMARK    3  A    between atoms: C_3  and  N_4
REMARK    4  A    between atoms: C_6  and  S_7
REMARK    5  A    between atoms: S_7  and  N_10
REMARK    6  A    between atoms: N_10  and  C_11
REMARK    7  A    between atoms: C_11  and  C_12
REMARK    8  A    between atoms: C_14  and  C_15
REMARK    9  A    between atoms: C_15  and  C_16
REMARK   10  A    between atoms: C_16  and  C_17
REMARK   11  A    between atoms: C_16  and  C_18
REMARK                            x       y       z     vdW  Elec       q    Type
REMARK                         _______ _______ _______ _____ _____    ______ ____
ROOT
ATOM      1  N   UNL     1       4.591   2.979  17.714  0.00  0.00    +0.000 NA
ATOM      2  H   UNL     1       4.336   2.589  16.806  0.00  0.00    +0.000 HD
ENDROOT
BRANCH   1   3
ATOM      3  S   UNL     1       3.262   3.217  18.724  0.00  0.00    +0.000 S 
ATOM      4  O   UNL     1       3.612   2.820  20.066  0.00  0.00    +0.000 OA
ATOM      5  O   UNL     1       2.094   2.712  18.035  0.00  0.00    +0.000 OA
BRANCH   3   8
ATOM      6  N   UNL     1       2.552   6.995  18.368  0.00  0.00    +0.000 N 
ATOM      7  C   UNL     1       2.773   5.780  17.783  0.00  0.00    +0.000 A 
ATOM      8  C   UNL     1       2.965   4.900  18.825  0.00  0.00    +0.000 A 
ATOM      9  C   UNL     1       2.830   5.665  19.991  0.00  0.00    +0.000 A 
ATOM     10  N   UNL     1       2.588   6.952  19.716  0.00  0.00    +0.000 NA
BRANCH   6  11
ATOM     11  C   UNL     1       2.327   8.256  17.684  0.00  0.00    +0.000 C 
BRANCH  11  13
ATOM     12  C   UNL     1       1.798  10.700  18.153  0.00  0.00    +0.000 C 
ATOM     13  C   UNL     1       1.491   9.248  18.494  0.00  0.00    +0.000 C 
ENDBRANCH  11  13
ENDBRANCH   6  11
ENDBRANCH   3   8
ENDBRANCH   1   3
BRANCH   1  14
ATOM     14  C   UNL     1       5.523   4.118  17.646  0.00  0.00    +0.000 C 
BRANCH  14  15
ATOM     15  C   UNL     1       6.083   4.306  16.276  0.00  0.00    +0.000 A 
ATOM     16  N   UNL     1       5.734   3.814  15.102  0.00  0.00    +0.000 NA
ATOM     17  C   UNL     1       6.621   4.450  14.256  0.00  0.00    +0.000 A 
ATOM     18  N   UNL     1       7.462   5.299  14.860  0.00  0.00    +0.000 NA
ATOM     19  O   UNL     1       7.108   5.206  16.199  0.00  0.00    +0.000 OA
BRANCH  17  20
ATOM     20  C   UNL     1       6.693   4.222  12.785  0.00  0.00    +0.000 C 
BRANCH  20  21
ATOM     21  C   UNL     1       5.917   2.992  12.282  0.00  0.00    +0.000 C 
ATOM     22  C   UNL     1       4.631   3.367  11.542  0.00  0.00    +0.000 C 
ATOM     23  C   UNL     1       6.809   2.162  11.350  0.00  0.00    +0.000 C 
ENDBRANCH  20  21
ENDBRANCH  17  20
ENDBRANCH  14  15
ENDBRANCH   1  14
TORSDOF 8
ENDMDL
