MODEL 1
REMARK VINA RESULT:      -8.9      0.000      0.000
REMARK  Name = 
REMARK  5 active torsions:
REMARK  status: ('A' for Active; 'I' for Inactive)
REMARK    1  A    between atoms: C_2  and  C_3
REMARK    2  A    between atoms: C_3  and  N_4
REMARK    3  A    between atoms: N_15  and  C_16
REMARK    4  A    between atoms: C_16  and  C_17
REMARK    5  A    between atoms: C_17  and  C_18
REMARK                            x       y       z     vdW  Elec       q    Type
REMARK                         _______ _______ _______ _____ _____    ______ ____
ROOT
ATOM      1  O   UNL     1       7.077   7.656  17.192  0.00  0.00    +0.000 OA
ATOM      2  C   UNL     1       7.795   7.334  18.133  0.00  0.00    +0.000 C 
ATOM      3  N   UNL     1       8.616   8.231  18.793  0.00  0.00    +0.000 N 
ATOM      4  H   UNL     1       8.895   7.991  19.743  0.00  0.00    +0.000 HD
ENDROOT
BRANCH   2   5
ATOM      5  C   UNL     1       7.809   5.923  18.719  0.00  0.00    +0.000 C 
BRANCH   5   6
ATOM      6  N   UNL     1       6.743   5.140  18.139  0.00  0.00    +0.000 N 
ATOM      7  C   UNL     1       6.828   4.454  16.971  0.00  0.00    +0.000 C 
ATOM      8  O   UNL     1       7.782   4.376  16.218  0.00  0.00    +0.000 OA
ATOM      9  N   UNL     1       5.636   3.798  16.761  0.00  0.00    +0.000 N 
ATOM     10  C   UNL     1       4.675   4.048  17.806  0.00  0.00    +0.000 C 
ATOM     11  C   UNL     1       3.400   4.724  17.294  0.00  0.00    +0.000 C 
ATOM     12  C   UNL     1       2.284   3.719  17.564  0.00  0.00    +0.000 C 
ATOM     13  C   UNL     1       2.758   2.959  18.791  0.00  0.00    +0.000 C 
ATOM     14  C   UNL     1       4.247   2.768  18.530  0.00  0.00    +0.000 C 
ATOM     15  C   UNL     1       5.509   4.979  18.705  0.00  0.00    +0.000 C 
ATOM     16  O   UNL     1       5.137   5.501  19.749  0.00  0.00    +0.000 OA
ATOM     17  H   UNL     1       5.491   3.242  15.928  0.00  0.00    +0.000 HD
ENDBRANCH   5   6
ENDBRANCH   2   5
BRANCH   3  18
ATOM     18  C   UNL     1       8.660   9.627  18.384  0.00  0.00    +0.000 C 
BRANCH  18  19
ATOM     19  C   UNL     1       9.418  10.494  19.391  0.00  0.00    +0.000 C 
BRANCH  19  20
ATOM     20  C   UNL     1       9.909  11.800  18.805  0.00  0.00    +0.000 A 
ATOM     21  C   UNL     1      10.688  11.766  17.634  0.00  0.00    +0.000 A 
ATOM     22  C   UNL     1      11.185  12.944  17.069  0.00  0.00    +0.000 A 
ATOM     23  C   UNL     1      10.904  14.170  17.667  0.00  0.00    +0.000 A 
ATOM     24 CL   UNL     1      11.526  15.618  16.977  0.00  0.00    +0.000 Cl
ATOM     25  C   UNL     1      10.122  14.230  18.815  0.00  0.00    +0.000 A 
ATOM     26  C   UNL     1       9.623  13.052  19.380  0.00  0.00    +0.000 A 
ATOM     27 CL   UNL     1       8.657  13.197  20.805  0.00  0.00    +0.000 Cl
ENDBRANCH  19  20
ENDBRANCH  18  19
ENDBRANCH   3  18
TORSDOF 5
ENDMDL
MODEL 2
REMARK VINA RESULT:      -8.5      2.049      2.655
REMARK  Name = 
REMARK  5 active torsions:
REMARK  status: ('A' for Active; 'I' for Inactive)
REMARK    1  A    between atoms: C_2  and  C_3
REMARK    2  A    between atoms: C_3  and  N_4
REMARK    3  A    between atoms: N_15  and  C_16
REMARK    4  A    between atoms: C_16  and  C_17
REMARK    5  A    between atoms: C_17  and  C_18
REMARK                            x       y       z     vdW  Elec       q    Type
REMARK                         _______ _______ _______ _____ _____    ______ ____
ROOT
ATOM      1  O   UNL     1       7.548   5.877  19.378  0.00  0.00    +0.000 OA
ATOM      2  C   UNL     1       7.134   6.118  18.249  0.00  0.00    +0.000 C 
ATOM      3  N   UNL     1       7.464   7.271  17.558  0.00  0.00    +0.000 N 
ATOM      4  H   UNL     1       7.386   7.240  16.543  0.00  0.00    +0.000 HD
ENDROOT
BRANCH   2   5
ATOM      5  C   UNL     1       6.264   5.142  17.460  0.00  0.00    +0.000 C 
BRANCH   5   6
ATOM      6  N   UNL     1       4.886   5.267  17.874  0.00  0.00    +0.000 N 
ATOM      7  C   UNL     1       4.064   6.294  17.540  0.00  0.00    +0.000 C 
ATOM      8  O   UNL     1       4.325   7.270  16.859  0.00  0.00    +0.000 OA
ATOM      9  N   UNL     1       2.821   6.053  18.080  0.00  0.00    +0.000 N 
ATOM     10  C   UNL     1       2.773   4.826  18.834  0.00  0.00    +0.000 C 
ATOM     11  C   UNL     1       2.418   5.044  20.308  0.00  0.00    +0.000 C 
ATOM     12  C   UNL     1       1.091   4.318  20.506  0.00  0.00    +0.000 C 
ATOM     13  C   UNL     1       1.136   3.181  19.501  0.00  0.00    +0.000 C 
ATOM     14  C   UNL     1       1.759   3.826  18.269  0.00  0.00    +0.000 C 
ATOM     15  C   UNL     1       4.227   4.353  18.648  0.00  0.00    +0.000 C 
ATOM     16  O   UNL     1       4.724   3.336  19.117  0.00  0.00    +0.000 OA
ATOM     17  H   UNL     1       2.066   6.716  17.960  0.00  0.00    +0.000 HD
ENDBRANCH   5   6
ENDBRANCH   2   5
BRANCH   3  18
ATOM     18  C   UNL     1       8.338   8.266  18.162  0.00  0.00    +0.000 C 
BRANCH  18  19
ATOM     19  C   UNL     1       7.924   9.691  17.787  0.00  0.00    +0.000 C 
BRANCH  19  20
ATOM     20  C   UNL     1       8.880  10.746  18.302  0.00  0.00    +0.000 A 
ATOM     21  C   UNL     1       9.939  10.349  19.137  0.00  0.00    +0.000 A 
ATOM     22  C   UNL     1      10.834  11.288  19.657  0.00  0.00    +0.000 A 
ATOM     23  C   UNL     1      10.680  12.637  19.342  0.00  0.00    +0.000 A 
ATOM     24 CL   UNL     1      11.775  13.794  19.992  0.00  0.00    +0.000 Cl
ATOM     25  C   UNL     1       9.651  13.051  18.505  0.00  0.00    +0.000 A 
ATOM     26  C   UNL     1       8.757  12.110  17.983  0.00  0.00    +0.000 A 
ATOM     27 CL   UNL     1       7.502  12.691  16.947  0.00  0.00    +0.000 Cl
ENDBRANCH  19  20
ENDBRANCH  18  19
ENDBRANCH   3  18
TORSDOF 5
ENDMDL
MODEL 3
REMARK VINA RESULT:      -8.5      1.095      1.959
REMARK  Name = 
REMARK  5 active torsions:
REMARK  status: ('A' for Active; 'I' for Inactive)
REMARK    1  A    between atoms: C_2  and  C_3
REMARK    2  A    between atoms: C_3  and  N_4
REMARK    3  A    between atoms: N_15  and  C_16
REMARK    4  A    between atoms: C_16  and  C_17
REMARK    5  A    between atoms: C_17  and  C_18
REMARK                            x       y       z     vdW  Elec       q    Type
REMARK                         _______ _______ _______ _____ _____    ______ ____
ROOT
ATOM      1  O   UNL     1       7.108   7.705  17.133  0.00  0.00    +0.000 OA
ATOM      2  C   UNL     1       7.800   7.424  18.106  0.00  0.00    +0.000 C 
ATOM      3  N   UNL     1       8.533   8.368  18.805  0.00  0.00    +0.000 N 
ATOM      4  H   UNL     1       8.782   8.141  19.766  0.00  0.00    +0.000 HD
ENDROOT
BRANCH   2   5
ATOM      5  C   UNL     1       7.875   6.014  18.690  0.00  0.00    +0.000 C 
BRANCH   5   6
ATOM      6  N   UNL     1       6.805   5.204  18.155  0.00  0.00    +0.000 N 
ATOM      7  C   UNL     1       6.879   4.473  17.013  0.00  0.00    +0.000 C 
ATOM      8  O   UNL     1       7.823   4.372  16.251  0.00  0.00    +0.000 OA
ATOM      9  N   UNL     1       5.688   3.805  16.846  0.00  0.00    +0.000 N 
ATOM     10  C   UNL     1       4.740   4.089  17.893  0.00  0.00    +0.000 C 
ATOM     11  C   UNL     1       3.454   4.739  17.373  0.00  0.00    +0.000 C 
ATOM     12  C   UNL     1       2.347   3.739  17.697  0.00  0.00    +0.000 C 
ATOM     13  C   UNL     1       2.842   3.029  18.945  0.00  0.00    +0.000 C 
ATOM     14  C   UNL     1       4.329   2.836  18.672  0.00  0.00    +0.000 C 
ATOM     15  C   UNL     1       5.580   5.058  18.744  0.00  0.00    +0.000 C 
ATOM     16  O   UNL     1       5.220   5.618  19.773  0.00  0.00    +0.000 OA
ATOM     17  H   UNL     1       5.534   3.216  16.037  0.00  0.00    +0.000 HD
ENDBRANCH   5   6
ENDBRANCH   2   5
BRANCH   3  18
ATOM     18  C   UNL     1       8.508   9.765  18.400  0.00  0.00    +0.000 C 
BRANCH  18  19
ATOM     19  C   UNL     1       9.906  10.387  18.408  0.00  0.00    +0.000 C 
BRANCH  19  20
ATOM     20  C   UNL     1      10.022  11.585  19.324  0.00  0.00    +0.000 A 
ATOM     21  C   UNL     1       9.689  11.434  20.682  0.00  0.00    +0.000 A 
ATOM     22  C   UNL     1       9.756  12.517  21.563  0.00  0.00    +0.000 A 
ATOM     23  C   UNL     1      10.164  13.764  21.095  0.00  0.00    +0.000 A 
ATOM     24 CL   UNL     1      10.235  15.099  22.177  0.00  0.00    +0.000 Cl
ATOM     25  C   UNL     1      10.515  13.935  19.761  0.00  0.00    +0.000 A 
ATOM     26  C   UNL     1      10.449  12.850  18.880  0.00  0.00    +0.000 A 
ATOM     27 CL   UNL     1      10.901  13.129  17.236  0.00  0.00    +0.000 Cl
ENDBRANCH  19  20
ENDBRANCH  18  19
ENDBRANCH   3  18
TORSDOF 5
ENDMDL
MODEL 4
REMARK VINA RESULT:      -8.1      5.359      7.975
REMARK  Name = 
REMARK  5 active torsions:
REMARK  status: ('A' for Active; 'I' for Inactive)
REMARK    1  A    between atoms: C_2  and  C_3
REMARK    2  A    between atoms: C_3  and  N_4
REMARK    3  A    between atoms: N_15  and  C_16
REMARK    4  A    between atoms: C_16  and  C_17
REMARK    5  A    between atoms: C_17  and  C_18
REMARK                            x       y       z     vdW  Elec       q    Type
REMARK                         _______ _______ _______ _____ _____    ______ ____
ROOT
ATOM      1  O   UNL     1       0.675   4.059  20.327  0.00  0.00    +0.000 OA
ATOM      2  C   UNL     1       1.850   4.412  20.328  0.00  0.00    +0.000 C 
ATOM      3  N   UNL     1       2.251   5.687  20.689  0.00  0.00    +0.000 N 
ATOM      4  H   UNL     1       3.215   5.797  21.000  0.00  0.00    +0.000 HD
ENDROOT
BRANCH   2   5
ATOM      5  C   UNL     1       3.000   3.463  19.995  0.00  0.00    +0.000 C 
BRANCH   5   6
ATOM      6  N   UNL     1       3.681   3.917  18.805  0.00  0.00    +0.000 N 
ATOM      7  C   UNL     1       3.315   3.610  17.534  0.00  0.00    +0.000 C 
ATOM      8  O   UNL     1       2.382   2.916  17.173  0.00  0.00    +0.000 OA
ATOM      9  N   UNL     1       4.170   4.250  16.667  0.00  0.00    +0.000 N 
ATOM     10  C   UNL     1       5.181   5.017  17.349  0.00  0.00    +0.000 C 
ATOM     11  C   UNL     1       6.603   4.542  17.035  0.00  0.00    +0.000 C 
ATOM     12  C   UNL     1       7.270   5.724  16.337  0.00  0.00    +0.000 C 
ATOM     13  C   UNL     1       6.578   6.941  16.927  0.00  0.00    +0.000 C 
ATOM     14  C   UNL     1       5.119   6.509  17.009  0.00  0.00    +0.000 C 
ATOM     15  C   UNL     1       4.780   4.730  18.807  0.00  0.00    +0.000 C 
ATOM     16  O   UNL     1       5.347   5.148  19.810  0.00  0.00    +0.000 OA
ATOM     17  H   UNL     1       4.075   4.133  15.666  0.00  0.00    +0.000 HD
ENDBRANCH   5   6
ENDBRANCH   2   5
BRANCH   3  18
ATOM     18  C   UNL     1       1.268   6.682  21.091  0.00  0.00    +0.000 C 
BRANCH  18  19
ATOM     19  C   UNL     1       1.636   8.081  20.594  0.00  0.00    +0.000 C 
BRANCH  19  20
ATOM     20  C   UNL     1       0.772   9.172  21.186  0.00  0.00    +0.000 A 
ATOM     21  C   UNL     1       0.338   9.044  22.518  0.00  0.00    +0.000 A 
ATOM     22  C   UNL     1      -0.481  10.014  23.103  0.00  0.00    +0.000 A 
ATOM     23  C   UNL     1      -0.873  11.126  22.361  0.00  0.00    +0.000 A 
ATOM     24 CL   UNL     1      -1.892  12.313  23.078  0.00  0.00    +0.000 Cl
ATOM     25  C   UNL     1      -0.444  11.283  21.048  0.00  0.00    +0.000 A 
ATOM     26  C   UNL     1       0.378  10.314  20.464  0.00  0.00    +0.000 A 
ATOM     27 CL   UNL     1       0.879  10.572  18.831  0.00  0.00    +0.000 Cl
ENDBRANCH  19  20
ENDBRANCH  18  19
ENDBRANCH   3  18
TORSDOF 5
ENDMDL
MODEL 5
REMARK VINA RESULT:      -8.1      1.689      2.169
REMARK  Name = 
REMARK  5 active torsions:
REMARK  status: ('A' for Active; 'I' for Inactive)
REMARK    1  A    between atoms: C_2  and  C_3
REMARK    2  A    between atoms: C_3  and  N_4
REMARK    3  A    between atoms: N_15  and  C_16
REMARK    4  A    between atoms: C_16  and  C_17
REMARK    5  A    between atoms: C_17  and  C_18
REMARK                            x       y       z     vdW  Elec       q    Type
REMARK                         _______ _______ _______ _____ _____    ______ ____
ROOT
ATOM      1  O   UNL     1       6.800   8.545  17.097  0.00  0.00    +0.000 OA
ATOM      2  C   UNL     1       7.562   7.709  17.573  0.00  0.00    +0.000 C 
ATOM      3  N   UNL     1       8.516   8.019  18.526  0.00  0.00    +0.000 N 
ATOM      4  H   UNL     1       8.850   7.255  19.111  0.00  0.00    +0.000 HD
ENDROOT
BRANCH   2   5
ATOM      5  C   UNL     1       7.493   6.226  17.213  0.00  0.00    +0.000 C 
BRANCH   5   6
ATOM      6  N   UNL     1       6.356   5.616  17.861  0.00  0.00    +0.000 N 
ATOM      7  C   UNL     1       6.298   5.275  19.174  0.00  0.00    +0.000 C 
ATOM      8  O   UNL     1       7.165   5.409  20.019  0.00  0.00    +0.000 OA
ATOM      9  N   UNL     1       5.049   4.759  19.437  0.00  0.00    +0.000 N 
ATOM     10  C   UNL     1       4.209   4.719  18.267  0.00  0.00    +0.000 C 
ATOM     11  C   UNL     1       3.769   3.299  17.898  0.00  0.00    +0.000 C 
ATOM     12  C   UNL     1       2.250   3.304  18.046  0.00  0.00    +0.000 C 
ATOM     13  C   UNL     1       1.853   4.738  17.738  0.00  0.00    +0.000 C 
ATOM     14  C   UNL     1       2.937   5.557  18.427  0.00  0.00    +0.000 C 
ATOM     15  C   UNL     1       5.179   5.317  17.233  0.00  0.00    +0.000 C 
ATOM     16  O   UNL     1       4.950   5.491  16.041  0.00  0.00    +0.000 OA
ATOM     17  H   UNL     1       4.812   4.426  20.362  0.00  0.00    +0.000 HD
ENDBRANCH   5   6
ENDBRANCH   2   5
BRANCH   3  18
ATOM     18  C   UNL     1       8.655   9.384  19.012  0.00  0.00    +0.000 C 
BRANCH  18  19
ATOM     19  C   UNL     1       9.502  10.241  18.069  0.00  0.00    +0.000 C 
BRANCH  19  20
ATOM     20  C   UNL     1       9.887  11.580  18.662  0.00  0.00    +0.000 A 
ATOM     21  C   UNL     1      10.980  11.640  19.544  0.00  0.00    +0.000 A 
ATOM     22  C   UNL     1      11.359  12.848  20.136  0.00  0.00    +0.000 A 
ATOM     23  C   UNL     1      10.650  14.011  19.847  0.00  0.00    +0.000 A 
ATOM     24 CL   UNL     1      11.110  15.496  20.585  0.00  0.00    +0.000 Cl
ATOM     25  C   UNL     1       9.576  13.980  18.965  0.00  0.00    +0.000 A 
ATOM     26  C   UNL     1       9.198  12.771  18.371  0.00  0.00    +0.000 A 
ATOM     27 CL   UNL     1       7.857  12.802  17.282  0.00  0.00    +0.000 Cl
ENDBRANCH  19  20
ENDBRANCH  18  19
ENDBRANCH   3  18
TORSDOF 5
ENDMDL
MODEL 6
REMARK VINA RESULT:      -8.1      1.503      2.051
REMARK  Name = 
REMARK  5 active torsions:
REMARK  status: ('A' for Active; 'I' for Inactive)
REMARK    1  A    between atoms: C_2  and  C_3
REMARK    2  A    between atoms: C_3  and  N_4
REMARK    3  A    between atoms: N_15  and  C_16
REMARK    4  A    between atoms: C_16  and  C_17
REMARK    5  A    between atoms: C_17  and  C_18
REMARK                            x       y       z     vdW  Elec       q    Type
REMARK                         _______ _______ _______ _____ _____    ______ ____
ROOT
ATOM      1  O   UNL     1       5.995   7.889  16.984  0.00  0.00    +0.000 OA
ATOM      2  C   UNL     1       7.056   7.364  17.308  0.00  0.00    +0.000 C 
ATOM      3  N   UNL     1       8.130   8.085  17.800  0.00  0.00    +0.000 N 
ATOM      4  H   UNL     1       8.812   7.574  18.359  0.00  0.00    +0.000 HD
ENDROOT
BRANCH   2   5
ATOM      5  C   UNL     1       7.281   5.854  17.264  0.00  0.00    +0.000 C 
BRANCH   5   6
ATOM      6  N   UNL     1       6.165   5.174  17.878  0.00  0.00    +0.000 N 
ATOM      7  C   UNL     1       6.043   4.924  19.207  0.00  0.00    +0.000 C 
ATOM      8  O   UNL     1       6.824   5.210  20.097  0.00  0.00    +0.000 OA
ATOM      9  N   UNL     1       4.837   4.297  19.424  0.00  0.00    +0.000 N 
ATOM     10  C   UNL     1       4.096   4.083  18.208  0.00  0.00    +0.000 C 
ATOM     11  C   UNL     1       3.832   2.602  17.922  0.00  0.00    +0.000 C 
ATOM     12  C   UNL     1       2.314   2.455  17.966  0.00  0.00    +0.000 C 
ATOM     13  C   UNL     1       1.797   3.812  17.519  0.00  0.00    +0.000 C 
ATOM     14  C   UNL     1       2.737   4.790  18.213  0.00  0.00    +0.000 C 
ATOM     15  C   UNL     1       5.076   4.706  17.197  0.00  0.00    +0.000 C 
ATOM     16  O   UNL     1       4.922   4.769  15.983  0.00  0.00    +0.000 OA
ATOM     17  H   UNL     1       4.564   4.008  20.355  0.00  0.00    +0.000 HD
ENDBRANCH   5   6
ENDBRANCH   2   5
BRANCH   3  18
ATOM     18  C   UNL     1       8.039   9.529  17.957  0.00  0.00    +0.000 C 
BRANCH  18  19
ATOM     19  C   UNL     1       9.269  10.106  18.661  0.00  0.00    +0.000 C 
BRANCH  19  20
ATOM     20  C   UNL     1       9.400  11.605  18.502  0.00  0.00    +0.000 A 
ATOM     21  C   UNL     1       8.470  12.284  17.695  0.00  0.00    +0.000 A 
ATOM     22  C   UNL     1       8.564  13.664  17.497  0.00  0.00    +0.000 A 
ATOM     23  C   UNL     1       9.589  14.381  18.110  0.00  0.00    +0.000 A 
ATOM     24 CL   UNL     1       9.710  16.079  17.857  0.00  0.00    +0.000 Cl
ATOM     25  C   UNL     1      10.510  13.735  18.926  0.00  0.00    +0.000 A 
ATOM     26  C   UNL     1      10.414  12.354  19.125  0.00  0.00    +0.000 A 
ATOM     27 CL   UNL     1      11.589  11.614  20.153  0.00  0.00    +0.000 Cl
ENDBRANCH  19  20
ENDBRANCH  18  19
ENDBRANCH   3  18
TORSDOF 5
ENDMDL
MODEL 7
REMARK VINA RESULT:      -8.1      1.681      1.870
REMARK  Name = 
REMARK  5 active torsions:
REMARK  status: ('A' for Active; 'I' for Inactive)
REMARK    1  A    between atoms: C_2  and  C_3
REMARK    2  A    between atoms: C_3  and  N_4
REMARK    3  A    between atoms: N_15  and  C_16
REMARK    4  A    between atoms: C_16  and  C_17
REMARK    5  A    between atoms: C_17  and  C_18
REMARK                            x       y       z     vdW  Elec       q    Type
REMARK                         _______ _______ _______ _____ _____    ______ ____
ROOT
ATOM      1  O   UNL     1       8.270   7.092  18.859  0.00  0.00    +0.000 OA
ATOM      2  C   UNL     1       7.888   7.683  17.854  0.00  0.00    +0.000 C 
ATOM      3  N   UNL     1       8.078   9.041  17.664  0.00  0.00    +0.000 N 
ATOM      4  H   UNL     1       8.062   9.380  16.703  0.00  0.00    +0.000 HD
ENDROOT
BRANCH   2   5
ATOM      5  C   UNL     1       7.222   6.973  16.678  0.00  0.00    +0.000 C 
BRANCH   5   6
ATOM      6  N   UNL     1       6.438   5.859  17.158  0.00  0.00    +0.000 N 
ATOM      7  C   UNL     1       6.915   4.606  17.370  0.00  0.00    +0.000 C 
ATOM      8  O   UNL     1       8.050   4.199  17.197  0.00  0.00    +0.000 OA
ATOM      9  N   UNL     1       5.893   3.827  17.864  0.00  0.00    +0.000 N 
ATOM     10  C   UNL     1       4.653   4.551  17.985  0.00  0.00    +0.000 C 
ATOM     11  C   UNL     1       3.531   3.959  17.127  0.00  0.00    +0.000 C 
ATOM     12  C   UNL     1       2.470   3.501  18.124  0.00  0.00    +0.000 C 
ATOM     13  C   UNL     1       2.628   4.454  19.296  0.00  0.00    +0.000 C 
ATOM     14  C   UNL     1       4.139   4.602  19.427  0.00  0.00    +0.000 C 
ATOM     15  C   UNL     1       5.110   5.930  17.476  0.00  0.00    +0.000 C 
ATOM     16  O   UNL     1       4.409   6.929  17.362  0.00  0.00    +0.000 OA
ATOM     17  H   UNL     1       6.042   2.848  18.070  0.00  0.00    +0.000 HD
ENDBRANCH   5   6
ENDBRANCH   2   5
BRANCH   3  18
ATOM     18  C   UNL     1       8.756   9.838  18.676  0.00  0.00    +0.000 C 
BRANCH  18  19
ATOM     19  C   UNL     1       9.771  10.802  18.058  0.00  0.00    +0.000 C 
BRANCH  19  20
ATOM     20  C   UNL     1       9.554  12.242  18.467  0.00  0.00    +0.000 A 
ATOM     21  C   UNL     1       8.550  12.986  17.821  0.00  0.00    +0.000 A 
ATOM     22  C   UNL     1       8.328  14.326  18.147  0.00  0.00    +0.000 A 
ATOM     23  C   UNL     1       9.105  14.937  19.128  0.00  0.00    +0.000 A 
ATOM     24 CL   UNL     1       8.839  16.591  19.521  0.00  0.00    +0.000 Cl
ATOM     25  C   UNL     1      10.092  14.218  19.793  0.00  0.00    +0.000 A 
ATOM     26  C   UNL     1      10.313  12.876  19.468  0.00  0.00    +0.000 A 
ATOM     27 CL   UNL     1      11.552  12.039  20.334  0.00  0.00    +0.000 Cl
ENDBRANCH  19  20
ENDBRANCH  18  19
ENDBRANCH   3  18
TORSDOF 5
ENDMDL
MODEL 8
REMARK VINA RESULT:      -8.0      1.810      2.068
REMARK  Name = 
REMARK  5 active torsions:
REMARK  status: ('A' for Active; 'I' for Inactive)
REMARK    1  A    between atoms: C_2  and  C_3
REMARK    2  A    between atoms: C_3  and  N_4
REMARK    3  A    between atoms: N_15  and  C_16
REMARK    4  A    between atoms: C_16  and  C_17
REMARK    5  A    between atoms: C_17  and  C_18
REMARK                            x       y       z     vdW  Elec       q    Type
REMARK                         _______ _______ _______ _____ _____    ______ ____
ROOT
ATOM      1  O   UNL     1       8.231   6.505  19.177  0.00  0.00    +0.000 OA
ATOM      2  C   UNL     1       7.763   6.780  18.076  0.00  0.00    +0.000 C 
ATOM      3  N   UNL     1       7.829   8.049  17.528  0.00  0.00    +0.000 N 
ATOM      4  H   UNL     1       7.749   8.119  16.515  0.00  0.00    +0.000 HD
ENDROOT
BRANCH   2   5
ATOM      5  C   UNL     1       7.116   5.736  17.167  0.00  0.00    +0.000 C 
BRANCH   5   6
ATOM      6  N   UNL     1       5.722   5.584  17.510  0.00  0.00    +0.000 N 
ATOM      7  C   UNL     1       4.697   6.245  16.913  0.00  0.00    +0.000 C 
ATOM      8  O   UNL     1       4.760   7.065  16.014  0.00  0.00    +0.000 OA
ATOM      9  N   UNL     1       3.515   5.816  17.472  0.00  0.00    +0.000 N 
ATOM     10  C   UNL     1       3.717   4.835  18.508  0.00  0.00    +0.000 C 
ATOM     11  C   UNL     1       3.193   5.293  19.873  0.00  0.00    +0.000 C 
ATOM     12  C   UNL     1       2.082   4.308  20.221  0.00  0.00    +0.000 C 
ATOM     13  C   UNL     1       2.499   3.019  19.534  0.00  0.00    +0.000 C 
ATOM     14  C   UNL     1       3.041   3.497  18.192  0.00  0.00    +0.000 C 
ATOM     15  C   UNL     1       5.253   4.738  18.475  0.00  0.00    +0.000 C 
ATOM     16  O   UNL     1       5.949   4.030  19.194  0.00  0.00    +0.000 OA
ATOM     17  H   UNL     1       2.630   6.206  17.175  0.00  0.00    +0.000 HD
ENDBRANCH   5   6
ENDBRANCH   2   5
BRANCH   3  18
ATOM     18  C   UNL     1       8.474   9.132  18.255  0.00  0.00    +0.000 C 
BRANCH  18  19
ATOM     19  C   UNL     1       8.289  10.480  17.554  0.00  0.00    +0.000 C 
BRANCH  19  20
ATOM     20  C   UNL     1       9.267  11.535  18.019  0.00  0.00    +0.000 A 
ATOM     21  C   UNL     1      10.532  11.129  18.481  0.00  0.00    +0.000 A 
ATOM     22  C   UNL     1      11.462  12.064  18.945  0.00  0.00    +0.000 A 
ATOM     23  C   UNL     1      11.137  13.419  18.946  0.00  0.00    +0.000 A 
ATOM     24 CL   UNL     1      12.278  14.568  19.527  0.00  0.00    +0.000 Cl
ATOM     25  C   UNL     1       9.900  13.846  18.478  0.00  0.00    +0.000 A 
ATOM     26  C   UNL     1       8.970  12.910  18.012  0.00  0.00    +0.000 A 
ATOM     27 CL   UNL     1       7.453  13.509  17.442  0.00  0.00    +0.000 Cl
ENDBRANCH  19  20
ENDBRANCH  18  19
ENDBRANCH   3  18
TORSDOF 5
ENDMDL
MODEL 9
REMARK VINA RESULT:      -8.0      1.512      2.595
REMARK  Name = 
REMARK  5 active torsions:
REMARK  status: ('A' for Active; 'I' for Inactive)
REMARK    1  A    between atoms: C_2  and  C_3
REMARK    2  A    between atoms: C_3  and  N_4
REMARK    3  A    between atoms: N_15  and  C_16
REMARK    4  A    between atoms: C_16  and  C_17
REMARK    5  A    between atoms: C_17  and  C_18
REMARK                            x       y       z     vdW  Elec       q    Type
REMARK                         _______ _______ _______ _____ _____    ______ ____
ROOT
ATOM      1  O   UNL     1       6.426   8.066  16.665  0.00  0.00    +0.000 OA
ATOM      2  C   UNL     1       7.301   7.458  17.275  0.00  0.00    +0.000 C 
ATOM      3  N   UNL     1       8.221   8.089  18.094  0.00  0.00    +0.000 N 
ATOM      4  H   UNL     1       8.665   7.521  18.814  0.00  0.00    +0.000 HD
ENDROOT
BRANCH   2   5
ATOM      5  C   UNL     1       7.427   5.937  17.245  0.00  0.00    +0.000 C 
BRANCH   5   6
ATOM      6  N   UNL     1       6.273   5.337  17.872  0.00  0.00    +0.000 N 
ATOM      7  C   UNL     1       6.150   5.090  19.202  0.00  0.00    +0.000 C 
ATOM      8  O   UNL     1       6.961   5.316  20.082  0.00  0.00    +0.000 OA
ATOM      9  N   UNL     1       4.904   4.553  19.433  0.00  0.00    +0.000 N 
ATOM     10  C   UNL     1       4.134   4.398  18.226  0.00  0.00    +0.000 C 
ATOM     11  C   UNL     1       3.759   2.940  17.940  0.00  0.00    +0.000 C 
ATOM     12  C   UNL     1       2.235   2.904  18.002  0.00  0.00    +0.000 C 
ATOM     13  C   UNL     1       1.813   4.297  17.566  0.00  0.00    +0.000 C 
ATOM     14  C   UNL     1       2.830   5.202  18.251  0.00  0.00    +0.000 C 
ATOM     15  C   UNL     1       5.144   4.952  17.204  0.00  0.00    +0.000 C 
ATOM     16  O   UNL     1       4.979   5.031  15.992  0.00  0.00    +0.000 OA
ATOM     17  H   UNL     1       4.623   4.280  20.367  0.00  0.00    +0.000 HD
ENDBRANCH   5   6
ENDBRANCH   2   5
BRANCH   3  18
ATOM     18  C   UNL     1       8.183   9.534  18.268  0.00  0.00    +0.000 C 
BRANCH  18  19
ATOM     19  C   UNL     1       9.585  10.147  18.257  0.00  0.00    +0.000 C 
BRANCH  19  20
ATOM     20  C   UNL     1       9.736  11.310  19.212  0.00  0.00    +0.000 A 
ATOM     21  C   UNL     1       9.354  11.137  20.555  0.00  0.00    +0.000 A 
ATOM     22  C   UNL     1       9.452  12.189  21.470  0.00  0.00    +0.000 A 
ATOM     23  C   UNL     1       9.939  13.425  21.052  0.00  0.00    +0.000 A 
ATOM     24 CL   UNL     1      10.048  14.723  22.177  0.00  0.00    +0.000 Cl
ATOM     25  C   UNL     1      10.339  13.616  19.735  0.00  0.00    +0.000 A 
ATOM     26  C   UNL     1      10.243  12.562  18.819  0.00  0.00    +0.000 A 
ATOM     27 CL   UNL     1      10.760  12.864  17.198  0.00  0.00    +0.000 Cl
ENDBRANCH  19  20
ENDBRANCH  18  19
ENDBRANCH   3  18
TORSDOF 5
ENDMDL
