MODEL 1
REMARK VINA RESULT:      -7.0      0.000      0.000
REMARK  Name = 
REMARK  7 active torsions:
REMARK  status: ('A' for Active; 'I' for Inactive)
REMARK    1  A    between atoms: C_1  and  O_2
REMARK    2  A    between atoms: O_2  and  C_3
REMARK    3  A    between atoms: C_5  and  C_6
REMARK    4  A    between atoms: C_7  and  C_8
REMARK    5  A    between atoms: C_8  and  C_10
REMARK    6  A    between atoms: C_17  and  O_18
REMARK    7  A    between atoms: O_18  and  C_19
REMARK                            x       y       z     vdW  Elec       q    Type
REMARK                         _______ _______ _______ _____ _____    ______ ____
ROOT
ATOM      1  C   UNL     1       6.999   5.567  15.731  0.00  0.00    +0.000 A 
ATOM      2  C   UNL     1       5.824   5.157  16.372  0.00  0.00    +0.000 A 
ATOM      3  C   UNL     1       4.961   4.228  15.774  0.00  0.00    +0.000 A 
ATOM      4  C   UNL     1       5.296   3.731  14.508  0.00  0.00    +0.000 A 
ATOM      5  C   UNL     1       6.469   4.127  13.859  0.00  0.00    +0.000 A 
ATOM      6  C   UNL     1       7.320   5.046  14.475  0.00  0.00    +0.000 A 
ENDROOT
BRANCH   1   8
ATOM      7  C   UNL     1       7.220   6.946  17.657  0.00  0.00    +0.000 C 
ATOM      8  O   UNL     1       7.763   6.465  16.431  0.00  0.00    +0.000 OA
ENDBRANCH   1   8
BRANCH   3   9
ATOM      9  C   UNL     1       3.796   3.728  16.526  0.00  0.00    +0.000 C 
ATOM     10  C   UNL     1       3.086   4.477  17.383  0.00  0.00    +0.000 C 
BRANCH  10  11
ATOM     11  C   UNL     1       1.896   3.928  18.094  0.00  0.00    +0.000 C 
ATOM     12  O   UNL     1       0.776   3.927  17.606  0.00  0.00    +0.000 OA
BRANCH  11  13
ATOM     13  C   UNL     1       2.131   3.410  19.469  0.00  0.00    +0.000 A 
ATOM     14  C   UNL     1       3.388   2.914  19.818  0.00  0.00    +0.000 A 
ATOM     15  C   UNL     1       3.557   2.434  21.104  0.00  0.00    +0.000 A 
ATOM     16  N   UNL     1       2.578   2.427  22.039  0.00  0.00    +0.000 NA
ATOM     17  C   UNL     1       1.384   2.938  21.680  0.00  0.00    +0.000 A 
ATOM     18  C   UNL     1       1.113   3.441  20.423  0.00  0.00    +0.000 A 
ENDBRANCH  11  13
ENDBRANCH  10  11
ENDBRANCH   3   9
BRANCH   5  19
ATOM     19  O   UNL     1       6.681   3.531  12.646  0.00  0.00    +0.000 OA
ATOM     20  C   UNL     1       5.531   3.116  11.918  0.00  0.00    +0.000 C 
ENDBRANCH   5  19
TORSDOF 5
ENDMDL
MODEL 2
REMARK VINA RESULT:      -6.9      0.692      2.937
REMARK  Name = 
REMARK  7 active torsions:
REMARK  status: ('A' for Active; 'I' for Inactive)
REMARK    1  A    between atoms: C_1  and  O_2
REMARK    2  A    between atoms: O_2  and  C_3
REMARK    3  A    between atoms: C_5  and  C_6
REMARK    4  A    between atoms: C_7  and  C_8
REMARK    5  A    between atoms: C_8  and  C_10
REMARK    6  A    between atoms: C_17  and  O_18
REMARK    7  A    between atoms: O_18  and  C_19
REMARK                            x       y       z     vdW  Elec       q    Type
REMARK                         _______ _______ _______ _____ _____    ______ ____
ROOT
ATOM      1  C   UNL     1       6.327   4.310  14.419  0.00  0.00    +0.000 A 
ATOM      2  C   UNL     1       5.211   4.087  15.236  0.00  0.00    +0.000 A 
ATOM      3  C   UNL     1       5.032   4.807  16.426  0.00  0.00    +0.000 A 
ATOM      4  C   UNL     1       6.008   5.745  16.787  0.00  0.00    +0.000 A 
ATOM      5  C   UNL     1       7.123   5.982  15.978  0.00  0.00    +0.000 A 
ATOM      6  C   UNL     1       7.279   5.262  14.793  0.00  0.00    +0.000 A 
ENDROOT
BRANCH   1   8
ATOM      7  C   UNL     1       6.995   4.150  12.142  0.00  0.00    +0.000 C 
ATOM      8  O   UNL     1       6.373   3.554  13.276  0.00  0.00    +0.000 OA
ENDBRANCH   1   8
BRANCH   3   9
ATOM      9  C   UNL     1       3.791   4.634  17.200  0.00  0.00    +0.000 C 
ATOM     10  C   UNL     1       3.085   3.493  17.232  0.00  0.00    +0.000 C 
BRANCH  10  11
ATOM     11  C   UNL     1       1.850   3.365  18.058  0.00  0.00    +0.000 C 
ATOM     12  O   UNL     1       0.731   3.545  17.605  0.00  0.00    +0.000 OA
BRANCH  11  13
ATOM     13  C   UNL     1       2.050   3.044  19.497  0.00  0.00    +0.000 A 
ATOM     14  C   UNL     1       3.270   2.525  19.930  0.00  0.00    +0.000 A 
ATOM     15  C   UNL     1       3.406   2.232  21.275  0.00  0.00    +0.000 A 
ATOM     16  N   UNL     1       2.429   2.430  22.190  0.00  0.00    +0.000 NA
ATOM     17  C   UNL     1       1.272   2.960  21.746  0.00  0.00    +0.000 A 
ATOM     18  C   UNL     1       1.035   3.286  20.425  0.00  0.00    +0.000 A 
ENDBRANCH  11  13
ENDBRANCH  10  11
ENDBRANCH   3   9
BRANCH   5  19
ATOM     19  O   UNL     1       7.970   6.951  16.441  0.00  0.00    +0.000 OA
ATOM     20  C   UNL     1       7.586   7.634  17.629  0.00  0.00    +0.000 C 
ENDBRANCH   5  19
TORSDOF 5
ENDMDL
MODEL 3
REMARK VINA RESULT:      -6.7      0.564      3.163
REMARK  Name = 
REMARK  7 active torsions:
REMARK  status: ('A' for Active; 'I' for Inactive)
REMARK    1  A    between atoms: C_1  and  O_2
REMARK    2  A    between atoms: O_2  and  C_3
REMARK    3  A    between atoms: C_5  and  C_6
REMARK    4  A    between atoms: C_7  and  C_8
REMARK    5  A    between atoms: C_8  and  C_10
REMARK    6  A    between atoms: C_17  and  O_18
REMARK    7  A    between atoms: O_18  and  C_19
REMARK                            x       y       z     vdW  Elec       q    Type
REMARK                         _______ _______ _______ _____ _____    ______ ____
ROOT
ATOM      1  C   UNL     1       6.694   4.593  14.368  0.00  0.00    +0.000 A 
ATOM      2  C   UNL     1       5.637   3.973  15.048  0.00  0.00    +0.000 A 
ATOM      3  C   UNL     1       5.237   4.415  16.316  0.00  0.00    +0.000 A 
ATOM      4  C   UNL     1       5.931   5.485  16.895  0.00  0.00    +0.000 A 
ATOM      5  C   UNL     1       6.982   6.117  16.225  0.00  0.00    +0.000 A 
ATOM      6  C   UNL     1       7.360   5.668  14.959  0.00  0.00    +0.000 A 
ENDROOT
BRANCH   1   8
ATOM      7  C   UNL     1       5.935   3.331  12.499  0.00  0.00    +0.000 C 
ATOM      8  O   UNL     1       6.973   4.076  13.128  0.00  0.00    +0.000 OA
ENDBRANCH   1   8
BRANCH   3   9
ATOM      9  C   UNL     1       4.048   3.820  16.952  0.00  0.00    +0.000 C 
ATOM     10  C   UNL     1       3.126   4.530  17.619  0.00  0.00    +0.000 C 
BRANCH  10  11
ATOM     11  C   UNL     1       1.926   3.878  18.219  0.00  0.00    +0.000 C 
ATOM     12  O   UNL     1       0.851   3.816  17.642  0.00  0.00    +0.000 OA
BRANCH  11  13
ATOM     13  C   UNL     1       2.089   3.334  19.593  0.00  0.00    +0.000 A 
ATOM     14  C   UNL     1       1.011   3.348  20.478  0.00  0.00    +0.000 A 
ATOM     15  C   UNL     1       1.212   2.840  21.749  0.00  0.00    +0.000 A 
ATOM     16  N   UNL     1       2.389   2.326  22.175  0.00  0.00    +0.000 NA
ATOM     17  C   UNL     1       3.404   2.300  21.289  0.00  0.00    +0.000 A 
ATOM     18  C   UNL     1       3.306   2.782  19.998  0.00  0.00    +0.000 A 
ENDBRANCH  11  13
ENDBRANCH  10  11
ENDBRANCH   3   9
BRANCH   5  19
ATOM     19  O   UNL     1       7.541   7.169  16.900  0.00  0.00    +0.000 OA
ATOM     20  C   UNL     1       7.905   6.947  18.258  0.00  0.00    +0.000 C 
ENDBRANCH   5  19
TORSDOF 5
ENDMDL
MODEL 4
REMARK VINA RESULT:      -6.7      4.911      6.149
REMARK  Name = 
REMARK  7 active torsions:
REMARK  status: ('A' for Active; 'I' for Inactive)
REMARK    1  A    between atoms: C_1  and  O_2
REMARK    2  A    between atoms: O_2  and  C_3
REMARK    3  A    between atoms: C_5  and  C_6
REMARK    4  A    between atoms: C_7  and  C_8
REMARK    5  A    between atoms: C_8  and  C_10
REMARK    6  A    between atoms: C_17  and  O_18
REMARK    7  A    between atoms: O_18  and  C_19
REMARK                            x       y       z     vdW  Elec       q    Type
REMARK                         _______ _______ _______ _____ _____    ______ ____
ROOT
ATOM      1  C   UNL     1       3.018   4.379  17.902  0.00  0.00    +0.000 A 
ATOM      2  C   UNL     1       2.373   5.588  18.192  0.00  0.00    +0.000 A 
ATOM      3  C   UNL     1       2.984   6.818  17.913  0.00  0.00    +0.000 A 
ATOM      4  C   UNL     1       4.267   6.809  17.350  0.00  0.00    +0.000 A 
ATOM      5  C   UNL     1       4.920   5.610  17.050  0.00  0.00    +0.000 A 
ATOM      6  C   UNL     1       4.291   4.396  17.327  0.00  0.00    +0.000 A 
ENDROOT
BRANCH   1   8
ATOM      7  C   UNL     1       2.923   2.003  17.902  0.00  0.00    +0.000 C 
ATOM      8  O   UNL     1       2.304   3.249  18.206  0.00  0.00    +0.000 OA
ENDBRANCH   1   8
BRANCH   3   9
ATOM      9  C   UNL     1       2.231   8.068  18.119  0.00  0.00    +0.000 C 
ATOM     10  C   UNL     1       1.777   8.475  19.315  0.00  0.00    +0.000 C 
BRANCH  10  11
ATOM     11  C   UNL     1       1.046   9.765  19.471  0.00  0.00    +0.000 C 
ATOM     12  O   UNL     1       0.928  10.572  18.561  0.00  0.00    +0.000 OA
BRANCH  11  13
ATOM     13  C   UNL     1       0.493  10.050  20.822  0.00  0.00    +0.000 A 
ATOM     14  C   UNL     1      -0.242  11.216  21.040  0.00  0.00    +0.000 A 
ATOM     15  C   UNL     1      -0.728  11.443  22.315  0.00  0.00    +0.000 A 
ATOM     16  N   UNL     1      -0.540  10.596  23.354  0.00  0.00    +0.000 NA
ATOM     17  C   UNL     1       0.150   9.465  23.105  0.00  0.00    +0.000 A 
ATOM     18  C   UNL     1       0.677   9.145  21.869  0.00  0.00    +0.000 A 
ENDBRANCH  11  13
ENDBRANCH  10  11
ENDBRANCH   3   9
BRANCH   5  19
ATOM     19  O   UNL     1       6.151   5.759  16.472  0.00  0.00    +0.000 OA
ATOM     20  C   UNL     1       7.077   4.690  16.635  0.00  0.00    +0.000 C 
ENDBRANCH   5  19
TORSDOF 5
ENDMDL
MODEL 5
REMARK VINA RESULT:      -6.7      5.155      6.792
REMARK  Name = 
REMARK  7 active torsions:
REMARK  status: ('A' for Active; 'I' for Inactive)
REMARK    1  A    between atoms: C_1  and  O_2
REMARK    2  A    between atoms: O_2  and  C_3
REMARK    3  A    between atoms: C_5  and  C_6
REMARK    4  A    between atoms: C_7  and  C_8
REMARK    5  A    between atoms: C_8  and  C_10
REMARK    6  A    between atoms: C_17  and  O_18
REMARK    7  A    between atoms: O_18  and  C_19
REMARK                            x       y       z     vdW  Elec       q    Type
REMARK                         _______ _______ _______ _____ _____    ______ ____
ROOT
ATOM      1  C   UNL     1       2.506   3.992  18.044  0.00  0.00    +0.000 A 
ATOM      2  C   UNL     1       2.227   5.360  17.923  0.00  0.00    +0.000 A 
ATOM      3  C   UNL     1       3.240   6.318  18.064  0.00  0.00    +0.000 A 
ATOM      4  C   UNL     1       4.539   5.875  18.347  0.00  0.00    +0.000 A 
ATOM      5  C   UNL     1       4.832   4.513  18.464  0.00  0.00    +0.000 A 
ATOM      6  C   UNL     1       3.812   3.574  18.310  0.00  0.00    +0.000 A 
ENDROOT
BRANCH   1   8
ATOM      7  C   UNL     1       1.281   2.101  18.806  0.00  0.00    +0.000 C 
ATOM      8  O   UNL     1       1.431   3.160  17.866  0.00  0.00    +0.000 OA
ENDBRANCH   1   8
BRANCH   3   9
ATOM      9  C   UNL     1       2.938   7.738  17.815  0.00  0.00    +0.000 C 
ATOM     10  C   UNL     1       1.909   8.391  18.376  0.00  0.00    +0.000 C 
BRANCH  10  11
ATOM     11  C   UNL     1       1.667   9.838  18.110  0.00  0.00    +0.000 C 
ATOM     12  O   UNL     1       2.497  10.560  17.580  0.00  0.00    +0.000 OA
BRANCH  11  13
ATOM     13  C   UNL     1       0.360  10.383  18.568  0.00  0.00    +0.000 A 
ATOM     14  C   UNL     1      -0.798  10.113  17.839  0.00  0.00    +0.000 A 
ATOM     15  C   UNL     1      -1.988  10.648  18.297  0.00  0.00    +0.000 A 
ATOM     16  N   UNL     1      -2.091  11.409  19.412  0.00  0.00    +0.000 NA
ATOM     17  C   UNL     1      -0.959  11.629  20.110  0.00  0.00    +0.000 A 
ATOM     18  C   UNL     1       0.278  11.140  19.738  0.00  0.00    +0.000 A 
ENDBRANCH  11  13
ENDBRANCH  10  11
ENDBRANCH   3   9
BRANCH   5  19
ATOM     19  O   UNL     1       6.149   4.230  18.705  0.00  0.00    +0.000 OA
ATOM     20  C   UNL     1       7.103   4.760  17.791  0.00  0.00    +0.000 C 
ENDBRANCH   5  19
TORSDOF 5
ENDMDL
MODEL 6
REMARK VINA RESULT:      -6.6      4.829      5.905
REMARK  Name = 
REMARK  7 active torsions:
REMARK  status: ('A' for Active; 'I' for Inactive)
REMARK    1  A    between atoms: C_1  and  O_2
REMARK    2  A    between atoms: O_2  and  C_3
REMARK    3  A    between atoms: C_5  and  C_6
REMARK    4  A    between atoms: C_7  and  C_8
REMARK    5  A    between atoms: C_8  and  C_10
REMARK    6  A    between atoms: C_17  and  O_18
REMARK    7  A    between atoms: O_18  and  C_19
REMARK                            x       y       z     vdW  Elec       q    Type
REMARK                         _______ _______ _______ _____ _____    ______ ____
ROOT
ATOM      1  C   UNL     1       5.195   5.470  17.721  0.00  0.00    +0.000 A 
ATOM      2  C   UNL     1       4.405   6.627  17.746  0.00  0.00    +0.000 A 
ATOM      3  C   UNL     1       3.019   6.551  17.935  0.00  0.00    +0.000 A 
ATOM      4  C   UNL     1       2.437   5.285  18.083  0.00  0.00    +0.000 A 
ATOM      5  C   UNL     1       3.214   4.123  18.066  0.00  0.00    +0.000 A 
ATOM      6  C   UNL     1       4.594   4.220  17.886  0.00  0.00    +0.000 A 
ENDROOT
BRANCH   1   8
ATOM      7  C   UNL     1       7.297   4.592  17.039  0.00  0.00    +0.000 C 
ATOM      8  O   UNL     1       6.538   5.684  17.548  0.00  0.00    +0.000 OA
ENDBRANCH   1   8
BRANCH   3   9
ATOM      9  C   UNL     1       2.235   7.791  18.074  0.00  0.00    +0.000 C 
ATOM     10  C   UNL     1       1.841   8.295  19.254  0.00  0.00    +0.000 C 
BRANCH  10  11
ATOM     11  C   UNL     1       1.074   9.571  19.338  0.00  0.00    +0.000 C 
ATOM     12  O   UNL     1       0.906  10.305  18.376  0.00  0.00    +0.000 OA
BRANCH  11  13
ATOM     13  C   UNL     1       0.548   9.937  20.681  0.00  0.00    +0.000 A 
ATOM     14  C   UNL     1       0.646   9.029  21.735  0.00  0.00    +0.000 A 
ATOM     15  C   UNL     1       0.135   9.410  22.963  0.00  0.00    +0.000 A 
ATOM     16  N   UNL     1      -0.444  10.611  23.198  0.00  0.00    +0.000 NA
ATOM     17  C   UNL     1      -0.497  11.477  22.166  0.00  0.00    +0.000 A 
ATOM     18  C   UNL     1      -0.017  11.194  20.903  0.00  0.00    +0.000 A 
ENDBRANCH  11  13
ENDBRANCH  10  11
ENDBRANCH   3   9
BRANCH   5  19
ATOM     19  O   UNL     1       2.513   2.964  18.259  0.00  0.00    +0.000 OA
ATOM     20  C   UNL     1       3.269   1.769  18.420  0.00  0.00    +0.000 C 
ENDBRANCH   5  19
TORSDOF 5
ENDMDL
MODEL 7
REMARK VINA RESULT:      -6.6      1.656      1.869
REMARK  Name = 
REMARK  7 active torsions:
REMARK  status: ('A' for Active; 'I' for Inactive)
REMARK    1  A    between atoms: C_1  and  O_2
REMARK    2  A    between atoms: O_2  and  C_3
REMARK    3  A    between atoms: C_5  and  C_6
REMARK    4  A    between atoms: C_7  and  C_8
REMARK    5  A    between atoms: C_8  and  C_10
REMARK    6  A    between atoms: C_17  and  O_18
REMARK    7  A    between atoms: O_18  and  C_19
REMARK                            x       y       z     vdW  Elec       q    Type
REMARK                         _______ _______ _______ _____ _____    ______ ____
ROOT
ATOM      1  C   UNL     1       6.985   6.176  16.234  0.00  0.00    +0.000 A 
ATOM      2  C   UNL     1       5.875   6.206  17.088  0.00  0.00    +0.000 A 
ATOM      3  C   UNL     1       4.806   5.316  16.915  0.00  0.00    +0.000 A 
ATOM      4  C   UNL     1       4.868   4.403  15.854  0.00  0.00    +0.000 A 
ATOM      5  C   UNL     1       5.973   4.358  14.999  0.00  0.00    +0.000 A 
ATOM      6  C   UNL     1       7.031   5.246  15.193  0.00  0.00    +0.000 A 
ENDROOT
BRANCH   1   8
ATOM      7  C   UNL     1       7.677   8.038  17.542  0.00  0.00    +0.000 C 
ATOM      8  O   UNL     1       7.969   7.087  16.524  0.00  0.00    +0.000 OA
ENDBRANCH   1   8
BRANCH   3   9
ATOM      9  C   UNL     1       3.711   5.294  17.900  0.00  0.00    +0.000 C 
ATOM     10  C   UNL     1       3.489   6.274  18.789  0.00  0.00    +0.000 C 
BRANCH  10  11
ATOM     11  C   UNL     1       2.346   6.214  19.745  0.00  0.00    +0.000 C 
ATOM     12  O   UNL     1       1.760   7.211  20.137  0.00  0.00    +0.000 OA
BRANCH  11  13
ATOM     13  C   UNL     1       1.971   4.862  20.240  0.00  0.00    +0.000 A 
ATOM     14  C   UNL     1       2.507   4.388  21.437  0.00  0.00    +0.000 A 
ATOM     15  C   UNL     1       2.138   3.122  21.853  0.00  0.00    +0.000 A 
ATOM     16  N   UNL     1       1.283   2.326  21.171  0.00  0.00    +0.000 NA
ATOM     17  C   UNL     1       0.759   2.822  20.032  0.00  0.00    +0.000 A 
ATOM     18  C   UNL     1       1.064   4.073  19.531  0.00  0.00    +0.000 A 
ENDBRANCH  11  13
ENDBRANCH  10  11
ENDBRANCH   3   9
BRANCH   5  19
ATOM     19  O   UNL     1       5.909   3.391  14.032  0.00  0.00    +0.000 OA
ATOM     20  C   UNL     1       6.439   3.719  12.752  0.00  0.00    +0.000 C 
ENDBRANCH   5  19
TORSDOF 5
ENDMDL
MODEL 8
REMARK VINA RESULT:      -6.6      4.448      5.682
REMARK  Name = 
REMARK  7 active torsions:
REMARK  status: ('A' for Active; 'I' for Inactive)
REMARK    1  A    between atoms: C_1  and  O_2
REMARK    2  A    between atoms: O_2  and  C_3
REMARK    3  A    between atoms: C_5  and  C_6
REMARK    4  A    between atoms: C_7  and  C_8
REMARK    5  A    between atoms: C_8  and  C_10
REMARK    6  A    between atoms: C_17  and  O_18
REMARK    7  A    between atoms: O_18  and  C_19
REMARK                            x       y       z     vdW  Elec       q    Type
REMARK                         _______ _______ _______ _____ _____    ______ ____
ROOT
ATOM      1  C   UNL     1       3.100   3.478  18.380  0.00  0.00    +0.000 A 
ATOM      2  C   UNL     1       2.874   4.851  18.542  0.00  0.00    +0.000 A 
ATOM      3  C   UNL     1       3.593   5.794  17.795  0.00  0.00    +0.000 A 
ATOM      4  C   UNL     1       4.558   5.330  16.892  0.00  0.00    +0.000 A 
ATOM      5  C   UNL     1       4.789   3.962  16.716  0.00  0.00    +0.000 A 
ATOM      6  C   UNL     1       4.057   3.038  17.462  0.00  0.00    +0.000 A 
ENDROOT
BRANCH   1   8
ATOM      7  C   UNL     1       0.973   2.471  18.726  0.00  0.00    +0.000 C 
ATOM      8  O   UNL     1       2.317   2.662  19.156  0.00  0.00    +0.000 OA
ENDBRANCH   1   8
BRANCH   3   9
ATOM      9  C   UNL     1       3.249   7.223  17.903  0.00  0.00    +0.000 C 
ATOM     10  C   UNL     1       2.024   7.672  18.215  0.00  0.00    +0.000 C 
BRANCH  10  11
ATOM     11  C   UNL     1       1.739   9.130  18.340  0.00  0.00    +0.000 C 
ATOM     12  O   UNL     1       1.925   9.920  17.427  0.00  0.00    +0.000 OA
BRANCH  11  13
ATOM     13  C   UNL     1       1.247   9.595  19.665  0.00  0.00    +0.000 A 
ATOM     14  C   UNL     1       1.274   8.730  20.758  0.00  0.00    +0.000 A 
ATOM     15  C   UNL     1       0.798   9.203  21.968  0.00  0.00    +0.000 A 
ATOM     16  N   UNL     1       0.318  10.455  22.149  0.00  0.00    +0.000 NA
ATOM     17  C   UNL     1       0.331  11.277  21.081  0.00  0.00    +0.000 A 
ATOM     18  C   UNL     1       0.785  10.902  19.832  0.00  0.00    +0.000 A 
ENDBRANCH  11  13
ENDBRANCH  10  11
ENDBRANCH   3   9
BRANCH   5  19
ATOM     19  O   UNL     1       5.736   3.659  15.775  0.00  0.00    +0.000 OA
ATOM     20  C   UNL     1       6.083   4.685  14.851  0.00  0.00    +0.000 C 
ENDBRANCH   5  19
TORSDOF 5
ENDMDL
MODEL 9
REMARK VINA RESULT:      -6.5      4.584      5.504
REMARK  Name = 
REMARK  7 active torsions:
REMARK  status: ('A' for Active; 'I' for Inactive)
REMARK    1  A    between atoms: C_1  and  O_2
REMARK    2  A    between atoms: O_2  and  C_3
REMARK    3  A    between atoms: C_5  and  C_6
REMARK    4  A    between atoms: C_7  and  C_8
REMARK    5  A    between atoms: C_8  and  C_10
REMARK    6  A    between atoms: C_17  and  O_18
REMARK    7  A    between atoms: O_18  and  C_19
REMARK                            x       y       z     vdW  Elec       q    Type
REMARK                         _______ _______ _______ _____ _____    ______ ____
ROOT
ATOM      1  C   UNL     1       4.752   4.296  18.519  0.00  0.00    +0.000 A 
ATOM      2  C   UNL     1       3.695   5.172  18.796  0.00  0.00    +0.000 A 
ATOM      3  C   UNL     1       3.472   6.308  18.005  0.00  0.00    +0.000 A 
ATOM      4  C   UNL     1       4.345   6.555  16.938  0.00  0.00    +0.000 A 
ATOM      5  C   UNL     1       5.400   5.685  16.646  0.00  0.00    +0.000 A 
ATOM      6  C   UNL     1       5.600   4.555  17.439  0.00  0.00    +0.000 A 
ENDROOT
BRANCH   1   8
ATOM      7  C   UNL     1       3.661   2.834  20.045  0.00  0.00    +0.000 C 
ATOM      8  O   UNL     1       4.848   3.214  19.356  0.00  0.00    +0.000 OA
ENDBRANCH   1   8
BRANCH   3   9
ATOM      9  C   UNL     1       2.284   7.144  18.251  0.00  0.00    +0.000 C 
ATOM     10  C   UNL     1       2.336   8.466  18.471  0.00  0.00    +0.000 C 
BRANCH  10  11
ATOM     11  C   UNL     1       1.097   9.269  18.684  0.00  0.00    +0.000 C 
ATOM     12  O   UNL     1       0.384   9.639  17.765  0.00  0.00    +0.000 OA
BRANCH  11  13
ATOM     13  C   UNL     1       0.786   9.640  20.091  0.00  0.00    +0.000 A 
ATOM     14  C   UNL     1       0.129  10.839  20.363  0.00  0.00    +0.000 A 
ATOM     15  C   UNL     1      -0.130  11.147  21.687  0.00  0.00    +0.000 A 
ATOM     16  N   UNL     1       0.209  10.348  22.725  0.00  0.00    +0.000 NA
ATOM     17  C   UNL     1       0.818   9.183  22.428  0.00  0.00    +0.000 A 
ATOM     18  C   UNL     1       1.122   8.783  21.142  0.00  0.00    +0.000 A 
ENDBRANCH  11  13
ENDBRANCH  10  11
ENDBRANCH   3   9
BRANCH   5  19
ATOM     19  O   UNL     1       6.145   6.036  15.553  0.00  0.00    +0.000 OA
ATOM     20  C   UNL     1       6.856   4.995  14.893  0.00  0.00    +0.000 C 
ENDBRANCH   5  19
TORSDOF 5
ENDMDL
