MODEL 1
REMARK VINA RESULT:      -6.9      0.000      0.000
REMARK  Name = 
REMARK  5 active torsions:
REMARK  status: ('A' for Active; 'I' for Inactive)
REMARK    1  A    between atoms: C_1  and  N_2
REMARK    2  A    between atoms: N_2  and  C_19
REMARK    3  A    between atoms: C_3  and  C_5
REMARK    4  A    between atoms: N_9  and  C_10
REMARK    5  A    between atoms: C_10  and  C_11
REMARK                            x       y       z     vdW  Elec       q    Type
REMARK                         _______ _______ _______ _____ _____    ______ ____
ROOT
ATOM      1  C   UNL     1       0.689   9.494  19.220  0.00  0.00    +0.000 A 
ATOM      2  C   UNL     1       1.342   9.858  18.098  0.00  0.00    +0.000 A 
ATOM      3  C   UNL     1       2.320   9.002  17.471  0.00  0.00    +0.000 A 
ATOM      4  C   UNL     1       2.760   7.915  18.108  0.00  0.00    +0.000 A 
ATOM      5  N   UNL     1       2.276   7.584  19.359  0.00  0.00    +0.000 N 
ATOM      6  C   UNL     1       1.227   8.291  19.969  0.00  0.00    +0.000 A 
ATOM      7  O   UNL     1       0.767   7.952  21.057  0.00  0.00    +0.000 OA
ENDROOT
BRANCH   1  10
ATOM      8  C   UNL     1       1.306  11.836  21.003  0.00  0.00    +0.000 C 
ATOM      9  N   UNL     1      -0.071  11.414  20.710  0.00  0.00    +0.000 N 
ATOM     10  C   UNL     1      -0.392  10.349  19.827  0.00  0.00    +0.000 C 
ATOM     11  O   UNL     1      -1.548  10.088  19.483  0.00  0.00    +0.000 OA
BRANCH   9  12
ATOM     12  C   UNL     1      -1.126  12.158  21.396  0.00  0.00    +0.000 A 
ATOM     13  C   UNL     1      -1.642  11.749  22.637  0.00  0.00    +0.000 A 
ATOM     14  C   UNL     1      -2.677  12.446  23.278  0.00  0.00    +0.000 A 
ATOM     15  C   UNL     1      -3.216  13.586  22.699  0.00  0.00    +0.000 A 
ATOM     16  C   UNL     1      -2.713  14.033  21.488  0.00  0.00    +0.000 A 
ATOM     17  C   UNL     1      -1.678  13.333  20.851  0.00  0.00    +0.000 A 
ENDBRANCH   9  12
ENDBRANCH   1  10
BRANCH   5  18
ATOM     18  C   UNL     1       2.821   6.403  20.045  0.00  0.00    +0.000 C 
BRANCH  18  19
ATOM     19  C   UNL     1       2.082   5.145  19.652  0.00  0.00    +0.000 A 
ATOM     20  C   UNL     1       1.349   4.416  20.597  0.00  0.00    +0.000 A 
ATOM     21  C   UNL     1       0.788   3.184  20.259  0.00  0.00    +0.000 A 
ATOM     22  C   UNL     1       0.945   2.675  18.969  0.00  0.00    +0.000 A 
ATOM     23  C   UNL     1       1.637   3.411  18.011  0.00  0.00    +0.000 A 
ATOM     24  C   UNL     1       2.201   4.641  18.348  0.00  0.00    +0.000 A 
ENDBRANCH  18  19
ENDBRANCH   5  18
TORSDOF 4
ENDMDL
MODEL 2
REMARK VINA RESULT:      -6.9      4.171      6.044
REMARK  Name = 
REMARK  5 active torsions:
REMARK  status: ('A' for Active; 'I' for Inactive)
REMARK    1  A    between atoms: C_1  and  N_2
REMARK    2  A    between atoms: N_2  and  C_19
REMARK    3  A    between atoms: C_3  and  C_5
REMARK    4  A    between atoms: N_9  and  C_10
REMARK    5  A    between atoms: C_10  and  C_11
REMARK                            x       y       z     vdW  Elec       q    Type
REMARK                         _______ _______ _______ _____ _____    ______ ____
ROOT
ATOM      1  C   UNL     1       3.349   5.859  17.895  0.00  0.00    +0.000 A 
ATOM      2  C   UNL     1       2.580   4.778  17.654  0.00  0.00    +0.000 A 
ATOM      3  C   UNL     1       3.140   3.527  17.205  0.00  0.00    +0.000 A 
ATOM      4  C   UNL     1       4.414   3.470  16.811  0.00  0.00    +0.000 A 
ATOM      5  N   UNL     1       5.215   4.594  16.845  0.00  0.00    +0.000 N 
ATOM      6  C   UNL     1       4.779   5.810  17.397  0.00  0.00    +0.000 A 
ATOM      7  O   UNL     1       5.521   6.787  17.473  0.00  0.00    +0.000 OA
ENDROOT
BRANCH   1  10
ATOM      8  C   UNL     1       2.063   6.006  20.610  0.00  0.00    +0.000 C 
ATOM      9  N   UNL     1       2.125   7.163  19.707  0.00  0.00    +0.000 N 
ATOM     10  C   UNL     1       2.776   7.138  18.445  0.00  0.00    +0.000 C 
ATOM     11  O   UNL     1       2.938   8.148  17.754  0.00  0.00    +0.000 OA
BRANCH   9  12
ATOM     12  C   UNL     1       1.458   8.376  20.179  0.00  0.00    +0.000 A 
ATOM     13  C   UNL     1       0.998   9.367  19.295  0.00  0.00    +0.000 A 
ATOM     14  C   UNL     1       0.389  10.545  19.751  0.00  0.00    +0.000 A 
ATOM     15  C   UNL     1       0.207  10.758  21.110  0.00  0.00    +0.000 A 
ATOM     16  C   UNL     1       0.625   9.790  22.009  0.00  0.00    +0.000 A 
ATOM     17  C   UNL     1       1.234   8.613  21.548  0.00  0.00    +0.000 A 
ENDBRANCH   9  12
ENDBRANCH   1  10
BRANCH   5  18
ATOM     18  C   UNL     1       6.600   4.499  16.359  0.00  0.00    +0.000 C 
BRANCH  18  19
ATOM     19  C   UNL     1       6.657   4.484  14.849  0.00  0.00    +0.000 A 
ATOM     20  C   UNL     1       5.835   3.625  14.107  0.00  0.00    +0.000 A 
ATOM     21  C   UNL     1       5.993   3.517  12.725  0.00  0.00    +0.000 A 
ATOM     22  C   UNL     1       6.965   4.273  12.071  0.00  0.00    +0.000 A 
ATOM     23  C   UNL     1       7.758   5.160  12.794  0.00  0.00    +0.000 A 
ATOM     24  C   UNL     1       7.605   5.268  14.176  0.00  0.00    +0.000 A 
ENDBRANCH  18  19
ENDBRANCH   5  18
TORSDOF 4
ENDMDL
MODEL 3
REMARK VINA RESULT:      -6.8      2.418      8.167
REMARK  Name = 
REMARK  5 active torsions:
REMARK  status: ('A' for Active; 'I' for Inactive)
REMARK    1  A    between atoms: C_1  and  N_2
REMARK    2  A    between atoms: N_2  and  C_19
REMARK    3  A    between atoms: C_3  and  C_5
REMARK    4  A    between atoms: N_9  and  C_10
REMARK    5  A    between atoms: C_10  and  C_11
REMARK                            x       y       z     vdW  Elec       q    Type
REMARK                         _______ _______ _______ _____ _____    ______ ____
ROOT
ATOM      1  C   UNL     1       1.903   7.555  19.931  0.00  0.00    +0.000 A 
ATOM      2  C   UNL     1       1.845   7.826  21.250  0.00  0.00    +0.000 A 
ATOM      3  C   UNL     1       1.159   8.986  21.763  0.00  0.00    +0.000 A 
ATOM      4  C   UNL     1       0.743   9.939  20.925  0.00  0.00    +0.000 A 
ATOM      5  N   UNL     1       0.944   9.821  19.564  0.00  0.00    +0.000 N 
ATOM      6  C   UNL     1       1.481   8.660  18.983  0.00  0.00    +0.000 A 
ATOM      7  O   UNL     1       1.603   8.544  17.766  0.00  0.00    +0.000 OA
ENDROOT
BRANCH   1  10
ATOM      8  C   UNL     1       0.700   4.832  20.358  0.00  0.00    +0.000 C 
ATOM      9  N   UNL     1       1.983   5.024  19.668  0.00  0.00    +0.000 N 
ATOM     10  C   UNL     1       2.546   6.301  19.402  0.00  0.00    +0.000 C 
ATOM     11  O   UNL     1       3.554   6.458  18.708  0.00  0.00    +0.000 OA
BRANCH   9  12
ATOM     12  C   UNL     1       2.679   3.803  19.263  0.00  0.00    +0.000 A 
ATOM     13  C   UNL     1       2.410   3.161  18.042  0.00  0.00    +0.000 A 
ATOM     14  C   UNL     1       3.055   1.972  17.670  0.00  0.00    +0.000 A 
ATOM     15  C   UNL     1       4.001   1.399  18.506  0.00  0.00    +0.000 A 
ATOM     16  C   UNL     1       4.309   2.018  19.707  0.00  0.00    +0.000 A 
ATOM     17  C   UNL     1       3.663   3.207  20.074  0.00  0.00    +0.000 A 
ENDBRANCH   9  12
ENDBRANCH   1  10
BRANCH   5  18
ATOM     18  C   UNL     1       0.512  10.913  18.681  0.00  0.00    +0.000 C 
BRANCH  18  19
ATOM     19  C   UNL     1      -0.976  10.856  18.418  0.00  0.00    +0.000 A 
ATOM     20  C   UNL     1      -1.503   9.982  17.458  0.00  0.00    +0.000 A 
ATOM     21  C   UNL     1      -2.857  10.034  17.123  0.00  0.00    +0.000 A 
ATOM     22  C   UNL     1      -3.696  10.953  17.752  0.00  0.00    +0.000 A 
ATOM     23  C   UNL     1      -3.190  11.798  18.736  0.00  0.00    +0.000 A 
ATOM     24  C   UNL     1      -1.838  11.749  19.070  0.00  0.00    +0.000 A 
ENDBRANCH  18  19
ENDBRANCH   5  18
TORSDOF 4
ENDMDL
MODEL 4
REMARK VINA RESULT:      -6.8      0.952      1.214
REMARK  Name = 
REMARK  5 active torsions:
REMARK  status: ('A' for Active; 'I' for Inactive)
REMARK    1  A    between atoms: C_1  and  N_2
REMARK    2  A    between atoms: N_2  and  C_19
REMARK    3  A    between atoms: C_3  and  C_5
REMARK    4  A    between atoms: N_9  and  C_10
REMARK    5  A    between atoms: C_10  and  C_11
REMARK                            x       y       z     vdW  Elec       q    Type
REMARK                         _______ _______ _______ _____ _____    ______ ____
ROOT
ATOM      1  C   UNL     1       1.104   9.638  19.658  0.00  0.00    +0.000 A 
ATOM      2  C   UNL     1       1.501   9.847  18.387  0.00  0.00    +0.000 A 
ATOM      3  C   UNL     1       2.120   8.810  17.598  0.00  0.00    +0.000 A 
ATOM      4  C   UNL     1       2.509   7.673  18.180  0.00  0.00    +0.000 A 
ATOM      5  N   UNL     1       2.311   7.467  19.531  0.00  0.00    +0.000 N 
ATOM      6  C   UNL     1       1.595   8.372  20.332  0.00  0.00    +0.000 A 
ATOM      7  O   UNL     1       1.376   8.150  21.520  0.00  0.00    +0.000 OA
ENDROOT
BRANCH   1  10
ATOM      8  C   UNL     1      -1.693  10.517  18.989  0.00  0.00    +0.000 C 
ATOM      9  N   UNL     1      -0.917  11.128  20.077  0.00  0.00    +0.000 N 
ATOM     10  C   UNL     1       0.382  10.694  20.452  0.00  0.00    +0.000 C 
ATOM     11  O   UNL     1       0.971  11.122  21.449  0.00  0.00    +0.000 OA
BRANCH   9  12
ATOM     12  C   UNL     1      -1.561  12.242  20.773  0.00  0.00    +0.000 A 
ATOM     13  C   UNL     1      -2.206  12.076  22.010  0.00  0.00    +0.000 A 
ATOM     14  C   UNL     1      -2.852  13.139  22.659  0.00  0.00    +0.000 A 
ATOM     15  C   UNL     1      -2.856  14.405  22.094  0.00  0.00    +0.000 A 
ATOM     16  C   UNL     1      -2.207  14.610  20.886  0.00  0.00    +0.000 A 
ATOM     17  C   UNL     1      -1.562  13.545  20.241  0.00  0.00    +0.000 A 
ENDBRANCH   9  12
ENDBRANCH   1  10
BRANCH   5  18
ATOM     18  C   UNL     1       2.796   6.220  20.141  0.00  0.00    +0.000 C 
BRANCH  18  19
ATOM     19  C   UNL     1       2.062   5.016  19.598  0.00  0.00    +0.000 A 
ATOM     20  C   UNL     1       1.163   4.300  20.399  0.00  0.00    +0.000 A 
ATOM     21  C   UNL     1       0.597   3.111  19.937  0.00  0.00    +0.000 A 
ATOM     22  C   UNL     1       0.917   2.633  18.666  0.00  0.00    +0.000 A 
ATOM     23  C   UNL     1       1.778   3.359  17.847  0.00  0.00    +0.000 A 
ATOM     24  C   UNL     1       2.346   4.546  18.308  0.00  0.00    +0.000 A 
ENDBRANCH  18  19
ENDBRANCH   5  18
TORSDOF 4
ENDMDL
MODEL 5
REMARK VINA RESULT:      -6.8      0.110      1.391
REMARK  Name = 
REMARK  5 active torsions:
REMARK  status: ('A' for Active; 'I' for Inactive)
REMARK    1  A    between atoms: C_1  and  N_2
REMARK    2  A    between atoms: N_2  and  C_19
REMARK    3  A    between atoms: C_3  and  C_5
REMARK    4  A    between atoms: N_9  and  C_10
REMARK    5  A    between atoms: C_10  and  C_11
REMARK                            x       y       z     vdW  Elec       q    Type
REMARK                         _______ _______ _______ _____ _____    ______ ____
ROOT
ATOM      1  C   UNL     1       0.713   9.408  19.226  0.00  0.00    +0.000 A 
ATOM      2  C   UNL     1       1.343   9.736  18.080  0.00  0.00    +0.000 A 
ATOM      3  C   UNL     1       2.322   8.870  17.470  0.00  0.00    +0.000 A 
ATOM      4  C   UNL     1       2.786   7.813  18.140  0.00  0.00    +0.000 A 
ATOM      5  N   UNL     1       2.327   7.524  19.410  0.00  0.00    +0.000 N 
ATOM      6  C   UNL     1       1.278   8.241  20.010  0.00  0.00    +0.000 A 
ATOM      7  O   UNL     1       0.840   7.938  21.118  0.00  0.00    +0.000 OA
ENDROOT
BRANCH   1  10
ATOM      8  C   UNL     1       1.326  11.787  20.961  0.00  0.00    +0.000 C 
ATOM      9  N   UNL     1      -0.049  11.354  20.678  0.00  0.00    +0.000 N 
ATOM     10  C   UNL     1      -0.369  10.271  19.817  0.00  0.00    +0.000 C 
ATOM     11  O   UNL     1      -1.525  10.001  19.481  0.00  0.00    +0.000 OA
BRANCH   9  12
ATOM     12  C   UNL     1      -1.106  12.110  21.351  0.00  0.00    +0.000 A 
ATOM     13  C   UNL     1      -1.682  13.258  20.781  0.00  0.00    +0.000 A 
ATOM     14  C   UNL     1      -2.672  13.999  21.442  0.00  0.00    +0.000 A 
ATOM     15  C   UNL     1      -3.126  13.602  22.691  0.00  0.00    +0.000 A 
ATOM     16  C   UNL     1      -2.599  12.459  23.272  0.00  0.00    +0.000 A 
ATOM     17  C   UNL     1      -1.609  11.721  22.607  0.00  0.00    +0.000 A 
ENDBRANCH   9  12
ENDBRANCH   1  10
BRANCH   5  18
ATOM     18  C   UNL     1       2.898   6.377  20.132  0.00  0.00    +0.000 C 
BRANCH  18  19
ATOM     19  C   UNL     1       2.250   5.079  19.708  0.00  0.00    +0.000 A 
ATOM     20  C   UNL     1       2.355   4.620  18.388  0.00  0.00    +0.000 A 
ATOM     21  C   UNL     1       1.640   3.496  17.973  0.00  0.00    +0.000 A 
ATOM     22  C   UNL     1       0.823   2.815  18.876  0.00  0.00    +0.000 A 
ATOM     23  C   UNL     1       0.746   3.238  20.199  0.00  0.00    +0.000 A 
ATOM     24  C   UNL     1       1.457   4.363  20.616  0.00  0.00    +0.000 A 
ENDBRANCH  18  19
ENDBRANCH   5  18
TORSDOF 4
ENDMDL
MODEL 6
REMARK VINA RESULT:      -6.8      0.449      1.068
REMARK  Name = 
REMARK  5 active torsions:
REMARK  status: ('A' for Active; 'I' for Inactive)
REMARK    1  A    between atoms: C_1  and  N_2
REMARK    2  A    between atoms: N_2  and  C_19
REMARK    3  A    between atoms: C_3  and  C_5
REMARK    4  A    between atoms: N_9  and  C_10
REMARK    5  A    between atoms: C_10  and  C_11
REMARK                            x       y       z     vdW  Elec       q    Type
REMARK                         _______ _______ _______ _____ _____    ______ ____
ROOT
ATOM      1  C   UNL     1       0.842   9.553  19.266  0.00  0.00    +0.000 A 
ATOM      2  C   UNL     1       1.454   9.835  18.098  0.00  0.00    +0.000 A 
ATOM      3  C   UNL     1       2.342   8.898  17.454  0.00  0.00    +0.000 A 
ATOM      4  C   UNL     1       2.748   7.807  18.109  0.00  0.00    +0.000 A 
ATOM      5  N   UNL     1       2.313   7.551  19.395  0.00  0.00    +0.000 N 
ATOM      6  C   UNL     1       1.345   8.345  20.031  0.00  0.00    +0.000 A 
ATOM      7  O   UNL     1       0.924   8.074  21.154  0.00  0.00    +0.000 OA
ENDROOT
BRANCH   1  10
ATOM      8  C   UNL     1       1.679  12.143  20.546  0.00  0.00    +0.000 C 
ATOM      9  N   UNL     1       0.283  11.684  20.541  0.00  0.00    +0.000 N 
ATOM     10  C   UNL     1      -0.149  10.496  19.895  0.00  0.00    +0.000 C 
ATOM     11  O   UNL     1      -1.339  10.188  19.782  0.00  0.00    +0.000 OA
BRANCH   9  12
ATOM     12  C   UNL     1      -0.669  12.530  21.260  0.00  0.00    +0.000 A 
ATOM     13  C   UNL     1      -1.303  13.626  20.650  0.00  0.00    +0.000 A 
ATOM     14  C   UNL     1      -2.191  14.456  21.351  0.00  0.00    +0.000 A 
ATOM     15  C   UNL     1      -2.481  14.202  22.683  0.00  0.00    +0.000 A 
ATOM     16  C   UNL     1      -1.893  13.114  23.310  0.00  0.00    +0.000 A 
ATOM     17  C   UNL     1      -1.007  12.287  22.605  0.00  0.00    +0.000 A 
ENDBRANCH   9  12
ENDBRANCH   1  10
BRANCH   5  18
ATOM     18  C   UNL     1       2.820   6.363  20.096  0.00  0.00    +0.000 C 
BRANCH  18  19
ATOM     19  C   UNL     1       2.071   5.116  19.686  0.00  0.00    +0.000 A 
ATOM     20  C   UNL     1       1.319   4.389  20.618  0.00  0.00    +0.000 A 
ATOM     21  C   UNL     1       0.747   3.166  20.264  0.00  0.00    +0.000 A 
ATOM     22  C   UNL     1       0.912   2.666  18.973  0.00  0.00    +0.000 A 
ATOM     23  C   UNL     1       1.623   3.400  18.028  0.00  0.00    +0.000 A 
ATOM     24  C   UNL     1       2.198   4.621  18.380  0.00  0.00    +0.000 A 
ENDBRANCH  18  19
ENDBRANCH   5  18
TORSDOF 4
ENDMDL
MODEL 7
REMARK VINA RESULT:      -6.7      3.102      8.333
REMARK  Name = 
REMARK  5 active torsions:
REMARK  status: ('A' for Active; 'I' for Inactive)
REMARK    1  A    between atoms: C_1  and  N_2
REMARK    2  A    between atoms: N_2  and  C_19
REMARK    3  A    between atoms: C_3  and  C_5
REMARK    4  A    between atoms: N_9  and  C_10
REMARK    5  A    between atoms: C_10  and  C_11
REMARK                            x       y       z     vdW  Elec       q    Type
REMARK                         _______ _______ _______ _____ _____    ______ ____
ROOT
ATOM      1  C   UNL     1       2.214   7.955  18.938  0.00  0.00    +0.000 A 
ATOM      2  C   UNL     1       1.934   7.559  20.196  0.00  0.00    +0.000 A 
ATOM      3  C   UNL     1       0.890   8.176  20.977  0.00  0.00    +0.000 A 
ATOM      4  C   UNL     1       0.313   9.301  20.548  0.00  0.00    +0.000 A 
ATOM      5  N   UNL     1       0.691   9.877  19.351  0.00  0.00    +0.000 N 
ATOM      6  C   UNL     1       1.600   9.261  18.476  0.00  0.00    +0.000 A 
ATOM      7  O   UNL     1       1.885   9.756  17.387  0.00  0.00    +0.000 OA
ENDROOT
BRANCH   1  10
ATOM      8  C   UNL     1       3.368   5.283  19.697  0.00  0.00    +0.000 C 
ATOM      9  N   UNL     1       3.813   6.022  18.507  0.00  0.00    +0.000 N 
ATOM     10  C   UNL     1       3.246   7.256  18.093  0.00  0.00    +0.000 C 
ATOM     11  O   UNL     1       3.533   7.801  17.024  0.00  0.00    +0.000 OA
BRANCH   9  12
ATOM     12  C   UNL     1       4.905   5.411  17.750  0.00  0.00    +0.000 A 
ATOM     13  C   UNL     1       6.254   5.611  18.092  0.00  0.00    +0.000 A 
ATOM     14  C   UNL     1       7.301   5.052  17.345  0.00  0.00    +0.000 A 
ATOM     15  C   UNL     1       7.026   4.260  16.239  0.00  0.00    +0.000 A 
ATOM     16  C   UNL     1       5.707   4.020  15.889  0.00  0.00    +0.000 A 
ATOM     17  C   UNL     1       4.663   4.581  16.639  0.00  0.00    +0.000 A 
ENDBRANCH   9  12
ENDBRANCH   1  10
BRANCH   5  18
ATOM     18  C   UNL     1       0.063  11.140  18.938  0.00  0.00    +0.000 C 
BRANCH  18  19
ATOM     19  C   UNL     1      -1.357  10.925  18.466  0.00  0.00    +0.000 A 
ATOM     20  C   UNL     1      -1.646  10.000  17.454  0.00  0.00    +0.000 A 
ATOM     21  C   UNL     1      -2.936   9.908  16.929  0.00  0.00    +0.000 A 
ATOM     22  C   UNL     1      -3.950  10.731  17.419  0.00  0.00    +0.000 A 
ATOM     23  C   UNL     1      -3.682  11.624  18.453  0.00  0.00    +0.000 A 
ATOM     24  C   UNL     1      -2.393  11.720  18.977  0.00  0.00    +0.000 A 
ENDBRANCH  18  19
ENDBRANCH   5  18
TORSDOF 4
ENDMDL
MODEL 8
REMARK VINA RESULT:      -6.7      3.164      5.345
REMARK  Name = 
REMARK  5 active torsions:
REMARK  status: ('A' for Active; 'I' for Inactive)
REMARK    1  A    between atoms: C_1  and  N_2
REMARK    2  A    between atoms: N_2  and  C_19
REMARK    3  A    between atoms: C_3  and  C_5
REMARK    4  A    between atoms: N_9  and  C_10
REMARK    5  A    between atoms: C_10  and  C_11
REMARK                            x       y       z     vdW  Elec       q    Type
REMARK                         _______ _______ _______ _____ _____    ______ ____
ROOT
ATOM      1  C   UNL     1       2.577   5.286  18.947  0.00  0.00    +0.000 A 
ATOM      2  C   UNL     1       1.981   4.632  17.929  0.00  0.00    +0.000 A 
ATOM      3  C   UNL     1       2.681   3.652  17.136  0.00  0.00    +0.000 A 
ATOM      4  C   UNL     1       4.005   3.521  17.255  0.00  0.00    +0.000 A 
ATOM      5  N   UNL     1       4.716   4.302  18.145  0.00  0.00    +0.000 N 
ATOM      6  C   UNL     1       4.085   5.177  19.044  0.00  0.00    +0.000 A 
ATOM      7  O   UNL     1       4.725   5.825  19.870  0.00  0.00    +0.000 OA
ENDROOT
BRANCH   1  10
ATOM      8  C   UNL     1       2.351   8.215  18.305  0.00  0.00    +0.000 C 
ATOM      9  N   UNL     1       1.782   7.633  19.528  0.00  0.00    +0.000 N 
ATOM     10  C   UNL     1       1.823   6.246  19.829  0.00  0.00    +0.000 C 
ATOM     11  O   UNL     1       1.228   5.749  20.789  0.00  0.00    +0.000 OA
BRANCH   9  12
ATOM     12  C   UNL     1       1.158   8.579  20.454  0.00  0.00    +0.000 A 
ATOM     13  C   UNL     1       1.385   8.526  21.840  0.00  0.00    +0.000 A 
ATOM     14  C   UNL     1       0.760   9.413  22.729  0.00  0.00    +0.000 A 
ATOM     15  C   UNL     1      -0.100  10.391  22.252  0.00  0.00    +0.000 A 
ATOM     16  C   UNL     1      -0.327  10.489  20.888  0.00  0.00    +0.000 A 
ATOM     17  C   UNL     1       0.301   9.600  20.003  0.00  0.00    +0.000 A 
ENDBRANCH   9  12
ENDBRANCH   1  10
BRANCH   5  18
ATOM     18  C   UNL     1       6.177   4.157  18.211  0.00  0.00    +0.000 C 
BRANCH  18  19
ATOM     19  C   UNL     1       6.874   5.482  18.002  0.00  0.00    +0.000 A 
ATOM     20  C   UNL     1       7.814   5.954  18.928  0.00  0.00    +0.000 A 
ATOM     21  C   UNL     1       8.347   7.237  18.801  0.00  0.00    +0.000 A 
ATOM     22  C   UNL     1       7.955   8.055  17.741  0.00  0.00    +0.000 A 
ATOM     23  C   UNL     1       7.054   7.579  16.793  0.00  0.00    +0.000 A 
ATOM     24  C   UNL     1       6.517   6.299  16.920  0.00  0.00    +0.000 A 
ENDBRANCH  18  19
ENDBRANCH   5  18
TORSDOF 4
ENDMDL
MODEL 9
REMARK VINA RESULT:      -6.7      3.020      8.239
REMARK  Name = 
REMARK  5 active torsions:
REMARK  status: ('A' for Active; 'I' for Inactive)
REMARK    1  A    between atoms: C_1  and  N_2
REMARK    2  A    between atoms: N_2  and  C_19
REMARK    3  A    between atoms: C_3  and  C_5
REMARK    4  A    between atoms: N_9  and  C_10
REMARK    5  A    between atoms: C_10  and  C_11
REMARK                            x       y       z     vdW  Elec       q    Type
REMARK                         _______ _______ _______ _____ _____    ______ ____
ROOT
ATOM      1  C   UNL     1       2.169   8.023  19.021  0.00  0.00    +0.000 A 
ATOM      2  C   UNL     1       1.844   7.632  20.270  0.00  0.00    +0.000 A 
ATOM      3  C   UNL     1       0.793   8.273  21.022  0.00  0.00    +0.000 A 
ATOM      4  C   UNL     1       0.256   9.412  20.579  0.00  0.00    +0.000 A 
ATOM      5  N   UNL     1       0.681   9.980  19.395  0.00  0.00    +0.000 N 
ATOM      6  C   UNL     1       1.600   9.344  18.544  0.00  0.00    +0.000 A 
ATOM      7  O   UNL     1       1.928   9.833  17.466  0.00  0.00    +0.000 OA
ENDROOT
BRANCH   1  10
ATOM      8  C   UNL     1       3.228   5.318  19.801  0.00  0.00    +0.000 C 
ATOM      9  N   UNL     1       3.729   6.049  18.629  0.00  0.00    +0.000 N 
ATOM     10  C   UNL     1       3.208   7.301  18.205  0.00  0.00    +0.000 C 
ATOM     11  O   UNL     1       3.542   7.842  17.148  0.00  0.00    +0.000 OA
BRANCH   9  12
ATOM     12  C   UNL     1       4.828   5.414  17.903  0.00  0.00    +0.000 A 
ATOM     13  C   UNL     1       6.164   5.528  18.321  0.00  0.00    +0.000 A 
ATOM     14  C   UNL     1       7.220   4.945  17.605  0.00  0.00    +0.000 A 
ATOM     15  C   UNL     1       6.964   4.214  16.454  0.00  0.00    +0.000 A 
ATOM     16  C   UNL     1       5.655   4.059  16.026  0.00  0.00    +0.000 A 
ATOM     17  C   UNL     1       4.603   4.644  16.746  0.00  0.00    +0.000 A 
ENDBRANCH   9  12
ENDBRANCH   1  10
BRANCH   5  18
ATOM     18  C   UNL     1       0.095  11.259  18.966  0.00  0.00    +0.000 C 
BRANCH  18  19
ATOM     19  C   UNL     1      -1.314  11.077  18.450  0.00  0.00    +0.000 A 
ATOM     20  C   UNL     1      -2.371  11.843  18.959  0.00  0.00    +0.000 A 
ATOM     21  C   UNL     1      -3.686  11.573  18.579  0.00  0.00    +0.000 A 
ATOM     22  C   UNL     1      -3.954  10.542  17.679  0.00  0.00    +0.000 A 
ATOM     23  C   UNL     1      -2.907   9.802  17.136  0.00  0.00    +0.000 A 
ATOM     24  C   UNL     1      -1.593  10.069  17.516  0.00  0.00    +0.000 A 
ENDBRANCH  18  19
ENDBRANCH   5  18
TORSDOF 4
ENDMDL
