MODEL 1
REMARK VINA RESULT:      -7.5      0.000      0.000
REMARK  Name = 
REMARK  6 active torsions:
REMARK  status: ('A' for Active; 'I' for Inactive)
REMARK    1  A    between atoms: C_1  and  C_2
REMARK    2  A    between atoms: C_2  and  C_3
REMARK    3  A    between atoms: C_2  and  N_4
REMARK    4  A    between atoms: C_2  and  C_18
REMARK    5  A    between atoms: C_5  and  C_7
REMARK    6  A    between atoms: C_10  and  C_11
REMARK                            x       y       z     vdW  Elec       q    Type
REMARK                         _______ _______ _______ _____ _____    ______ ____
ROOT
ATOM      1  N   UNL     1       3.129   5.474  18.992  0.00  0.00    +0.000 N 
ATOM      2  C   UNL     1       3.208   6.648  18.272  0.00  0.00    +0.000 C 
ATOM      3  O   UNL     1       3.965   6.752  17.306  0.00  0.00    +0.000 OA
ATOM      4  H   UNL     1       2.500   5.464  19.786  0.00  0.00    +0.000 HD
ENDROOT
BRANCH   2   5
ATOM      5  C   UNL     1       2.374   7.737  18.725  0.00  0.00    +0.000 A 
ATOM      6  C   UNL     1       1.935   8.816  17.988  0.00  0.00    +0.000 A 
ATOM      7  N   UNL     1       1.115   9.706  18.651  0.00  0.00    +0.000 NA
ATOM      8  C   UNL     1       0.945   9.320  19.906  0.00  0.00    +0.000 A 
ATOM      9  S   UNL     1       1.774   7.859  20.318  0.00  0.00    +0.000 S 
BRANCH   8  10
ATOM     10  C   UNL     1       0.112   9.986  20.922  0.00  0.00    +0.000 A 
ATOM     11  N   UNL     1       0.079   9.433  22.151  0.00  0.00    +0.000 NA
ATOM     12  C   UNL     1      -0.642  10.093  23.075  0.00  0.00    +0.000 A 
ATOM     13  C   UNL     1      -1.324  11.259  22.817  0.00  0.00    +0.000 A 
ATOM     14  C   UNL     1      -1.233  11.733  21.530  0.00  0.00    +0.000 A 
ATOM     15  N   UNL     1      -0.521  11.126  20.566  0.00  0.00    +0.000 NA
ENDBRANCH   8  10
ENDBRANCH   2   5
BRANCH   1  17
ATOM     16  C   UNL     1       3.505   3.190  19.771  0.00  0.00    +0.000 C 
ATOM     17  C   UNL     1       3.855   4.230  18.684  0.00  0.00    +0.000 C 
ATOM     18  C   UNL     1       3.408   3.650  17.330  0.00  0.00    +0.000 C 
BRANCH  17  19
ATOM     19  C   UNL     1       5.336   4.486  18.703  0.00  0.00    +0.000 A 
ATOM     20  N   UNL     1       6.079   4.971  19.680  0.00  0.00    +0.000 NA
ATOM     21  N   UNL     1       7.370   4.993  19.210  0.00  0.00    +0.000 NA
ATOM     22  N   UNL     1       7.432   4.536  17.967  0.00  0.00    +0.000 NA
ATOM     23  N   UNL     1       6.170   4.222  17.651  0.00  0.00    +0.000 N 
ATOM     24  H   UNL     1       5.932   3.893  16.719  0.00  0.00    +0.000 HD
ENDBRANCH  17  19
ENDBRANCH   1  17
TORSDOF 4
ENDMDL
MODEL 2
REMARK VINA RESULT:      -7.4      0.159      1.018
REMARK  Name = 
REMARK  6 active torsions:
REMARK  status: ('A' for Active; 'I' for Inactive)
REMARK    1  A    between atoms: C_1  and  C_2
REMARK    2  A    between atoms: C_2  and  C_3
REMARK    3  A    between atoms: C_2  and  N_4
REMARK    4  A    between atoms: C_2  and  C_18
REMARK    5  A    between atoms: C_5  and  C_7
REMARK    6  A    between atoms: C_10  and  C_11
REMARK                            x       y       z     vdW  Elec       q    Type
REMARK                         _______ _______ _______ _____ _____    ______ ____
ROOT
ATOM      1  N   UNL     1       3.261   5.488  19.007  0.00  0.00    +0.000 N 
ATOM      2  C   UNL     1       3.222   6.633  18.238  0.00  0.00    +0.000 C 
ATOM      3  O   UNL     1       3.878   6.725  17.200  0.00  0.00    +0.000 OA
ATOM      4  H   UNL     1       2.712   5.488  19.859  0.00  0.00    +0.000 HD
ENDROOT
BRANCH   2   5
ATOM      5  C   UNL     1       2.391   7.709  18.729  0.00  0.00    +0.000 A 
ATOM      6  C   UNL     1       1.874   8.761  18.005  0.00  0.00    +0.000 A 
ATOM      7  N   UNL     1       1.075   9.642  18.708  0.00  0.00    +0.000 NA
ATOM      8  C   UNL     1       1.001   9.275  19.978  0.00  0.00    +0.000 A 
ATOM      9  S   UNL     1       1.896   7.843  20.357  0.00  0.00    +0.000 S 
BRANCH   8  10
ATOM     10  C   UNL     1       0.220   9.937  21.036  0.00  0.00    +0.000 A 
ATOM     11  N   UNL     1      -0.362  11.114  20.727  0.00  0.00    +0.000 NA
ATOM     12  C   UNL     1      -1.116  11.669  21.692  0.00  0.00    +0.000 A 
ATOM     13  C   UNL     1      -1.301  11.104  22.933  0.00  0.00    +0.000 A 
ATOM     14  C   UNL     1      -0.656   9.910  23.148  0.00  0.00    +0.000 A 
ATOM     15  N   UNL     1       0.102   9.300  22.222  0.00  0.00    +0.000 NA
ENDBRANCH   8  10
ENDBRANCH   2   5
BRANCH   1  17
ATOM     16  C   UNL     1       3.663   3.194  19.741  0.00  0.00    +0.000 C 
ATOM     17  C   UNL     1       4.005   4.261  18.677  0.00  0.00    +0.000 C 
ATOM     18  C   UNL     1       3.574   3.703  17.309  0.00  0.00    +0.000 C 
BRANCH  17  19
ATOM     19  C   UNL     1       5.483   4.536  18.711  0.00  0.00    +0.000 A 
ATOM     20  N   UNL     1       6.191   5.138  19.648  0.00  0.00    +0.000 NA
ATOM     21  N   UNL     1       7.495   5.122  19.217  0.00  0.00    +0.000 NA
ATOM     22  N   UNL     1       7.600   4.528  18.036  0.00  0.00    +0.000 NA
ATOM     23  N   UNL     1       6.350   4.165  17.721  0.00  0.00    +0.000 N 
ATOM     24  H   UNL     1       6.145   3.729  16.825  0.00  0.00    +0.000 HD
ENDBRANCH  17  19
ENDBRANCH   1  17
TORSDOF 4
ENDMDL
MODEL 3
REMARK VINA RESULT:      -7.4      1.847      2.167
REMARK  Name = 
REMARK  6 active torsions:
REMARK  status: ('A' for Active; 'I' for Inactive)
REMARK    1  A    between atoms: C_1  and  C_2
REMARK    2  A    between atoms: C_2  and  C_3
REMARK    3  A    between atoms: C_2  and  N_4
REMARK    4  A    between atoms: C_2  and  C_18
REMARK    5  A    between atoms: C_5  and  C_7
REMARK    6  A    between atoms: C_10  and  C_11
REMARK                            x       y       z     vdW  Elec       q    Type
REMARK                         _______ _______ _______ _____ _____    ______ ____
ROOT
ATOM      1  N   UNL     1       3.507   5.171  18.912  0.00  0.00    +0.000 N 
ATOM      2  C   UNL     1       3.496   6.355  18.204  0.00  0.00    +0.000 C 
ATOM      3  O   UNL     1       4.206   6.507  17.210  0.00  0.00    +0.000 OA
ATOM      4  H   UNL     1       2.912   5.121  19.732  0.00  0.00    +0.000 HD
ENDROOT
BRANCH   2   5
ATOM      5  C   UNL     1       2.626   7.395  18.702  0.00  0.00    +0.000 A 
ATOM      6  C   UNL     1       2.066   7.484  19.958  0.00  0.00    +0.000 A 
ATOM      7  N   UNL     1       1.293   8.604  20.195  0.00  0.00    +0.000 NA
ATOM      8  C   UNL     1       1.243   9.361  19.111  0.00  0.00    +0.000 A 
ATOM      9  S   UNL     1       2.139   8.738  17.768  0.00  0.00    +0.000 S 
BRANCH   8  10
ATOM     10  C   UNL     1       0.549  10.653  18.976  0.00  0.00    +0.000 A 
ATOM     11  N   UNL     1       1.314  11.762  18.942  0.00  0.00    +0.000 NA
ATOM     12  C   UNL     1       0.660  12.923  18.760  0.00  0.00    +0.000 A 
ATOM     13  C   UNL     1      -0.706  13.014  18.620  0.00  0.00    +0.000 A 
ATOM     14  C   UNL     1      -1.392  11.824  18.680  0.00  0.00    +0.000 A 
ATOM     15  N   UNL     1      -0.796  10.632  18.848  0.00  0.00    +0.000 NA
ENDBRANCH   8  10
ENDBRANCH   2   5
BRANCH   1  17
ATOM     16  C   UNL     1       4.130   2.949  19.711  0.00  0.00    +0.000 C 
ATOM     17  C   UNL     1       4.282   3.969  18.561  0.00  0.00    +0.000 C 
ATOM     18  C   UNL     1       3.732   3.310  17.284  0.00  0.00    +0.000 C 
BRANCH  17  19
ATOM     19  C   UNL     1       5.734   4.327  18.406  0.00  0.00    +0.000 A 
ATOM     20  N   UNL     1       6.563   4.828  19.303  0.00  0.00    +0.000 NA
ATOM     21  N   UNL     1       7.779   4.955  18.676  0.00  0.00    +0.000 NA
ATOM     22  N   UNL     1       7.711   4.547  17.417  0.00  0.00    +0.000 NA
ATOM     23  N   UNL     1       6.441   4.158  17.248  0.00  0.00    +0.000 N 
ATOM     24  H   UNL     1       6.109   3.845  16.339  0.00  0.00    +0.000 HD
ENDBRANCH  17  19
ENDBRANCH   1  17
TORSDOF 4
ENDMDL
MODEL 4
REMARK VINA RESULT:      -7.1      1.804      2.129
REMARK  Name = 
REMARK  6 active torsions:
REMARK  status: ('A' for Active; 'I' for Inactive)
REMARK    1  A    between atoms: C_1  and  C_2
REMARK    2  A    between atoms: C_2  and  C_3
REMARK    3  A    between atoms: C_2  and  N_4
REMARK    4  A    between atoms: C_2  and  C_18
REMARK    5  A    between atoms: C_5  and  C_7
REMARK    6  A    between atoms: C_10  and  C_11
REMARK                            x       y       z     vdW  Elec       q    Type
REMARK                         _______ _______ _______ _____ _____    ______ ____
ROOT
ATOM      1  N   UNL     1       1.850   4.744  18.959  0.00  0.00    +0.000 N 
ATOM      2  C   UNL     1       2.741   5.794  19.056  0.00  0.00    +0.000 C 
ATOM      3  O   UNL     1       3.949   5.619  18.900  0.00  0.00    +0.000 OA
ATOM      4  H   UNL     1       0.872   4.956  19.118  0.00  0.00    +0.000 HD
ENDROOT
BRANCH   2   5
ATOM      5  C   UNL     1       2.177   7.088  19.365  0.00  0.00    +0.000 A 
ATOM      6  C   UNL     1       2.154   8.203  18.555  0.00  0.00    +0.000 A 
ATOM      7  N   UNL     1       1.520   9.314  19.077  0.00  0.00    +0.000 NA
ATOM      8  C   UNL     1       1.079   9.055  20.298  0.00  0.00    +0.000 A 
ATOM      9  S   UNL     1       1.417   7.450  20.849  0.00  0.00    +0.000 S 
BRANCH   8  10
ATOM     10  C   UNL     1       0.325   9.972  21.169  0.00  0.00    +0.000 A 
ATOM     11  N   UNL     1      -0.240   9.446  22.274  0.00  0.00    +0.000 NA
ATOM     12  C   UNL     1      -0.874  10.314  23.082  0.00  0.00    +0.000 A 
ATOM     13  C   UNL     1      -0.968  11.663  22.825  0.00  0.00    +0.000 A 
ATOM     14  C   UNL     1      -0.366  12.094  21.667  0.00  0.00    +0.000 A 
ATOM     15  N   UNL     1       0.291  11.279  20.826  0.00  0.00    +0.000 NA
ENDBRANCH   8  10
ENDBRANCH   2   5
BRANCH   1  17
ATOM     16  C   UNL     1       0.906   2.511  18.670  0.00  0.00    +0.000 C 
ATOM     17  C   UNL     1       2.198   3.356  18.614  0.00  0.00    +0.000 C 
ATOM     18  C   UNL     1       2.748   3.263  17.179  0.00  0.00    +0.000 C 
BRANCH  17  19
ATOM     19  C   UNL     1       3.186   2.815  19.610  0.00  0.00    +0.000 A 
ATOM     20  N   UNL     1       3.011   2.559  20.893  0.00  0.00    +0.000 NA
ATOM     21  N   UNL     1       4.206   2.062  21.354  0.00  0.00    +0.000 NA
ATOM     22  N   UNL     1       5.107   2.012  20.384  0.00  0.00    +0.000 NA
ATOM     23  N   UNL     1       4.476   2.481  19.301  0.00  0.00    +0.000 N 
ATOM     24  H   UNL     1       4.969   2.597  18.419  0.00  0.00    +0.000 HD
ENDBRANCH  17  19
ENDBRANCH   1  17
TORSDOF 4
ENDMDL
MODEL 5
REMARK VINA RESULT:      -7.0      1.832      2.354
REMARK  Name = 
REMARK  6 active torsions:
REMARK  status: ('A' for Active; 'I' for Inactive)
REMARK    1  A    between atoms: C_1  and  C_2
REMARK    2  A    between atoms: C_2  and  C_3
REMARK    3  A    between atoms: C_2  and  N_4
REMARK    4  A    between atoms: C_2  and  C_18
REMARK    5  A    between atoms: C_5  and  C_7
REMARK    6  A    between atoms: C_10  and  C_11
REMARK                            x       y       z     vdW  Elec       q    Type
REMARK                         _______ _______ _______ _____ _____    ______ ____
ROOT
ATOM      1  N   UNL     1       1.852   4.726  18.971  0.00  0.00    +0.000 N 
ATOM      2  C   UNL     1       2.752   5.755  19.156  0.00  0.00    +0.000 C 
ATOM      3  O   UNL     1       3.965   5.562  19.077  0.00  0.00    +0.000 OA
ATOM      4  H   UNL     1       0.869   4.952  19.069  0.00  0.00    +0.000 HD
ENDROOT
BRANCH   2   5
ATOM      5  C   UNL     1       2.191   7.052  19.459  0.00  0.00    +0.000 A 
ATOM      6  C   UNL     1       2.181   8.168  18.651  0.00  0.00    +0.000 A 
ATOM      7  N   UNL     1       1.547   9.281  19.167  0.00  0.00    +0.000 NA
ATOM      8  C   UNL     1       1.093   9.023  20.383  0.00  0.00    +0.000 A 
ATOM      9  S   UNL     1       1.417   7.417  20.937  0.00  0.00    +0.000 S 
BRANCH   8  10
ATOM     10  C   UNL     1       0.334   9.943  21.247  0.00  0.00    +0.000 A 
ATOM     11  N   UNL     1       0.059  11.167  20.753  0.00  0.00    +0.000 NA
ATOM     12  C   UNL     1      -0.684  11.966  21.537  0.00  0.00    +0.000 A 
ATOM     13  C   UNL     1      -1.149  11.596  22.778  0.00  0.00    +0.000 A 
ATOM     14  C   UNL     1      -0.805  10.331  23.192  0.00  0.00    +0.000 A 
ATOM     15  N   UNL     1      -0.075   9.482  22.450  0.00  0.00    +0.000 NA
ENDBRANCH   8  10
ENDBRANCH   2   5
BRANCH   1  17
ATOM     16  C   UNL     1       0.906   2.495  18.668  0.00  0.00    +0.000 C 
ATOM     17  C   UNL     1       2.198   3.340  18.614  0.00  0.00    +0.000 C 
ATOM     18  C   UNL     1       2.742   3.259  17.176  0.00  0.00    +0.000 C 
BRANCH  17  19
ATOM     19  C   UNL     1       3.190   2.791  19.601  0.00  0.00    +0.000 A 
ATOM     20  N   UNL     1       3.039   2.582  20.896  0.00  0.00    +0.000 NA
ATOM     21  N   UNL     1       4.225   2.053  21.343  0.00  0.00    +0.000 NA
ATOM     22  N   UNL     1       5.098   1.937  20.352  0.00  0.00    +0.000 NA
ATOM     23  N   UNL     1       4.457   2.397  19.271  0.00  0.00    +0.000 N 
ATOM     24  H   UNL     1       4.931   2.466  18.374  0.00  0.00    +0.000 HD
ENDBRANCH  17  19
ENDBRANCH   1  17
TORSDOF 4
ENDMDL
MODEL 6
REMARK VINA RESULT:      -7.0      1.623      2.340
REMARK  Name = 
REMARK  6 active torsions:
REMARK  status: ('A' for Active; 'I' for Inactive)
REMARK    1  A    between atoms: C_1  and  C_2
REMARK    2  A    between atoms: C_2  and  C_3
REMARK    3  A    between atoms: C_2  and  N_4
REMARK    4  A    between atoms: C_2  and  C_18
REMARK    5  A    between atoms: C_5  and  C_7
REMARK    6  A    between atoms: C_10  and  C_11
REMARK                            x       y       z     vdW  Elec       q    Type
REMARK                         _______ _______ _______ _____ _____    ______ ____
ROOT
ATOM      1  N   UNL     1       4.403   6.052  18.172  0.00  0.00    +0.000 N 
ATOM      2  C   UNL     1       3.023   6.066  18.171  0.00  0.00    +0.000 C 
ATOM      3  O   UNL     1       2.378   5.109  17.743  0.00  0.00    +0.000 OA
ATOM      4  H   UNL     1       4.870   6.881  18.521  0.00  0.00    +0.000 HD
ENDROOT
BRANCH   2   5
ATOM      5  C   UNL     1       2.392   7.262  18.681  0.00  0.00    +0.000 A 
ATOM      6  C   UNL     1       2.159   8.438  18.002  0.00  0.00    +0.000 A 
ATOM      7  N   UNL     1       1.505   9.425  18.711  0.00  0.00    +0.000 NA
ATOM      8  C   UNL     1       1.258   9.012  19.945  0.00  0.00    +0.000 A 
ATOM      9  S   UNL     1       1.809   7.406  20.279  0.00  0.00    +0.000 S 
BRANCH   8  10
ATOM     10  C   UNL     1       0.548   9.762  20.994  0.00  0.00    +0.000 A 
ATOM     11  N   UNL     1       0.248  11.050  20.733  0.00  0.00    +0.000 NA
ATOM     12  C   UNL     1      -0.451  11.696  21.683  0.00  0.00    +0.000 A 
ATOM     13  C   UNL     1      -0.847  11.114  22.865  0.00  0.00    +0.000 A 
ATOM     14  C   UNL     1      -0.481   9.800  23.035  0.00  0.00    +0.000 A 
ATOM     15  N   UNL     1       0.206   9.098  22.120  0.00  0.00    +0.000 NA
ENDBRANCH   8  10
ENDBRANCH   2   5
BRANCH   1  17
ATOM     16  C   UNL     1       5.121   4.795  16.205  0.00  0.00    +0.000 C 
ATOM     17  C   UNL     1       5.248   4.927  17.739  0.00  0.00    +0.000 C 
ATOM     18  C   UNL     1       6.730   5.193  18.058  0.00  0.00    +0.000 C 
BRANCH  17  19
ATOM     19  C   UNL     1       4.773   3.655  18.385  0.00  0.00    +0.000 A 
ATOM     20  N   UNL     1       4.898   3.268  19.641  0.00  0.00    +0.000 NA
ATOM     21  N   UNL     1       4.283   2.043  19.732  0.00  0.00    +0.000 NA
ATOM     22  N   UNL     1       3.788   1.671  18.560  0.00  0.00    +0.000 NA
ATOM     23  N   UNL     1       4.093   2.670  17.723  0.00  0.00    +0.000 N 
ATOM     24  H   UNL     1       3.868   2.608  16.733  0.00  0.00    +0.000 HD
ENDBRANCH  17  19
ENDBRANCH   1  17
TORSDOF 4
ENDMDL
MODEL 7
REMARK VINA RESULT:      -7.0      1.543      2.047
REMARK  Name = 
REMARK  6 active torsions:
REMARK  status: ('A' for Active; 'I' for Inactive)
REMARK    1  A    between atoms: C_1  and  C_2
REMARK    2  A    between atoms: C_2  and  C_3
REMARK    3  A    between atoms: C_2  and  N_4
REMARK    4  A    between atoms: C_2  and  C_18
REMARK    5  A    between atoms: C_5  and  C_7
REMARK    6  A    between atoms: C_10  and  C_11
REMARK                            x       y       z     vdW  Elec       q    Type
REMARK                         _______ _______ _______ _____ _____    ______ ____
ROOT
ATOM      1  N   UNL     1       4.422   6.132  18.169  0.00  0.00    +0.000 N 
ATOM      2  C   UNL     1       3.042   6.116  18.177  0.00  0.00    +0.000 C 
ATOM      3  O   UNL     1       2.416   5.138  17.768  0.00  0.00    +0.000 OA
ATOM      4  H   UNL     1       4.873   6.977  18.502  0.00  0.00    +0.000 HD
ENDROOT
BRANCH   2   5
ATOM      5  C   UNL     1       2.388   7.305  18.672  0.00  0.00    +0.000 A 
ATOM      6  C   UNL     1       2.184   8.489  17.997  0.00  0.00    +0.000 A 
ATOM      7  N   UNL     1       1.498   9.467  18.689  0.00  0.00    +0.000 NA
ATOM      8  C   UNL     1       1.196   9.039  19.905  0.00  0.00    +0.000 A 
ATOM      9  S   UNL     1       1.735   7.430  20.245  0.00  0.00    +0.000 S 
BRANCH   8  10
ATOM     10  C   UNL     1       0.440   9.776  20.930  0.00  0.00    +0.000 A 
ATOM     11  N   UNL     1       0.218   9.149  22.103  0.00  0.00    +0.000 NA
ATOM     12  C   UNL     1      -0.424   9.865  23.043  0.00  0.00    +0.000 A 
ATOM     13  C   UNL     1      -0.850  11.159  22.854  0.00  0.00    +0.000 A 
ATOM     14  C   UNL     1      -0.583  11.702  21.620  0.00  0.00    +0.000 A 
ATOM     15  N   UNL     1       0.064  11.043  20.644  0.00  0.00    +0.000 NA
ENDBRANCH   8  10
ENDBRANCH   2   5
BRANCH   1  17
ATOM     16  C   UNL     1       5.064   4.782  16.238  0.00  0.00    +0.000 C 
ATOM     17  C   UNL     1       5.289   5.019  17.748  0.00  0.00    +0.000 C 
ATOM     18  C   UNL     1       6.775   5.371  17.943  0.00  0.00    +0.000 C 
BRANCH  17  19
ATOM     19  C   UNL     1       4.923   3.773  18.504  0.00  0.00    +0.000 A 
ATOM     20  N   UNL     1       5.212   3.446  19.750  0.00  0.00    +0.000 NA
ATOM     21  N   UNL     1       4.635   2.220  19.972  0.00  0.00    +0.000 NA
ATOM     22  N   UNL     1       4.002   1.788  18.890  0.00  0.00    +0.000 NA
ATOM     23  N   UNL     1       4.182   2.751  17.978  0.00  0.00    +0.000 N 
ATOM     24  H   UNL     1       3.835   2.641  17.029  0.00  0.00    +0.000 HD
ENDBRANCH  17  19
ENDBRANCH   1  17
TORSDOF 4
ENDMDL
MODEL 8
REMARK VINA RESULT:      -6.9      1.801      2.438
REMARK  Name = 
REMARK  6 active torsions:
REMARK  status: ('A' for Active; 'I' for Inactive)
REMARK    1  A    between atoms: C_1  and  C_2
REMARK    2  A    between atoms: C_2  and  C_3
REMARK    3  A    between atoms: C_2  and  N_4
REMARK    4  A    between atoms: C_2  and  C_18
REMARK    5  A    between atoms: C_5  and  C_7
REMARK    6  A    between atoms: C_10  and  C_11
REMARK                            x       y       z     vdW  Elec       q    Type
REMARK                         _______ _______ _______ _____ _____    ______ ____
ROOT
ATOM      1  N   UNL     1       2.793   4.784  18.265  0.00  0.00    +0.000 N 
ATOM      2  C   UNL     1       3.425   5.834  18.898  0.00  0.00    +0.000 C 
ATOM      3  O   UNL     1       4.529   5.688  19.424  0.00  0.00    +0.000 OA
ATOM      4  H   UNL     1       1.878   4.969  17.870  0.00  0.00    +0.000 HD
ENDROOT
BRANCH   2   5
ATOM      5  C   UNL     1       2.716   7.093  18.919  0.00  0.00    +0.000 A 
ATOM      6  C   UNL     1       2.642   8.026  17.908  0.00  0.00    +0.000 A 
ATOM      7  N   UNL     1       1.866   9.139  18.169  0.00  0.00    +0.000 NA
ATOM      8  C   UNL     1       1.365   9.066  19.393  0.00  0.00    +0.000 A 
ATOM      9  S   UNL     1       1.818   7.641  20.263  0.00  0.00    +0.000 S 
BRANCH   8  10
ATOM     10  C   UNL     1       0.462  10.041  20.027  0.00  0.00    +0.000 A 
ATOM     11  N   UNL     1      -0.465  10.625  19.242  0.00  0.00    +0.000 NA
ATOM     12  C   UNL     1      -1.313  11.467  19.857  0.00  0.00    +0.000 A 
ATOM     13  C   UNL     1      -1.266  11.746  21.204  0.00  0.00    +0.000 A 
ATOM     14  C   UNL     1      -0.277  11.106  21.912  0.00  0.00    +0.000 A 
ATOM     15  N   UNL     1       0.593  10.246  21.357  0.00  0.00    +0.000 NA
ENDBRANCH   8  10
ENDBRANCH   2   5
BRANCH   1  17
ATOM     16  C   UNL     1       2.256   2.546  17.448  0.00  0.00    +0.000 C 
ATOM     17  C   UNL     1       3.347   3.431  18.089  0.00  0.00    +0.000 C 
ATOM     18  C   UNL     1       4.551   3.447  17.130  0.00  0.00    +0.000 C 
BRANCH  17  19
ATOM     19  C   UNL     1       3.726   2.858  19.426  0.00  0.00    +0.000 A 
ATOM     20  N   UNL     1       2.966   2.659  20.487  0.00  0.00    +0.000 NA
ATOM     21  N   UNL     1       3.775   2.097  21.443  0.00  0.00    +0.000 NA
ATOM     22  N   UNL     1       5.014   1.950  20.993  0.00  0.00    +0.000 NA
ATOM     23  N   UNL     1       4.984   2.424  19.742  0.00  0.00    +0.000 N 
ATOM     24  H   UNL     1       5.833   2.475  19.184  0.00  0.00    +0.000 HD
ENDBRANCH  17  19
ENDBRANCH   1  17
TORSDOF 4
ENDMDL
MODEL 9
REMARK VINA RESULT:      -6.9      2.483      3.376
REMARK  Name = 
REMARK  6 active torsions:
REMARK  status: ('A' for Active; 'I' for Inactive)
REMARK    1  A    between atoms: C_1  and  C_2
REMARK    2  A    between atoms: C_2  and  C_3
REMARK    3  A    between atoms: C_2  and  N_4
REMARK    4  A    between atoms: C_2  and  C_18
REMARK    5  A    between atoms: C_5  and  C_7
REMARK    6  A    between atoms: C_10  and  C_11
REMARK                            x       y       z     vdW  Elec       q    Type
REMARK                         _______ _______ _______ _____ _____    ______ ____
ROOT
ATOM      1  N   UNL     1       3.701   6.185  18.111  0.00  0.00    +0.000 N 
ATOM      2  C   UNL     1       2.968   6.252  19.279  0.00  0.00    +0.000 C 
ATOM      3  O   UNL     1       2.960   5.317  20.079  0.00  0.00    +0.000 OA
ATOM      4  H   UNL     1       3.647   6.983  17.489  0.00  0.00    +0.000 HD
ENDROOT
BRANCH   2   5
ATOM      5  C   UNL     1       2.210   7.463  19.493  0.00  0.00    +0.000 A 
ATOM      6  C   UNL     1       1.595   7.868  20.657  0.00  0.00    +0.000 A 
ATOM      7  N   UNL     1       0.957   9.093  20.608  0.00  0.00    +0.000 NA
ATOM      8  C   UNL     1       1.065   9.614  19.396  0.00  0.00    +0.000 A 
ATOM      9  S   UNL     1       1.949   8.633  18.277  0.00  0.00    +0.000 S 
BRANCH   8  10
ATOM     10  C   UNL     1       0.548  10.920  18.955  0.00  0.00    +0.000 A 
ATOM     11  N   UNL     1      -0.762  10.990  18.642  0.00  0.00    +0.000 NA
ATOM     12  C   UNL     1      -1.221  12.207  18.299  0.00  0.00    +0.000 A 
ATOM     13  C   UNL     1      -0.432  13.333  18.252  0.00  0.00    +0.000 A 
ATOM     14  C   UNL     1       0.890  13.150  18.581  0.00  0.00    +0.000 A 
ATOM     15  N   UNL     1       1.407  11.964  18.942  0.00  0.00    +0.000 NA
ENDBRANCH   8  10
ENDBRANCH   2   5
BRANCH   1  17
ATOM     16  C   UNL     1       5.054   5.330  16.267  0.00  0.00    +0.000 C 
ATOM     17  C   UNL     1       4.574   5.069  17.712  0.00  0.00    +0.000 C 
ATOM     18  C   UNL     1       5.825   4.997  18.607  0.00  0.00    +0.000 C 
BRANCH  17  19
ATOM     19  C   UNL     1       3.804   3.779  17.751  0.00  0.00    +0.000 A 
ATOM     20  N   UNL     1       2.692   3.459  17.115  0.00  0.00    +0.000 NA
ATOM     21  N   UNL     1       2.403   2.164  17.468  0.00  0.00    +0.000 NA
ATOM     22  N   UNL     1       3.310   1.685  18.308  0.00  0.00    +0.000 NA
ATOM     23  N   UNL     1       4.179   2.688  18.486  0.00  0.00    +0.000 N 
ATOM     24  H   UNL     1       4.955   2.595  19.137  0.00  0.00    +0.000 HD
ENDBRANCH  17  19
ENDBRANCH   1  17
TORSDOF 4
ENDMDL
