MODEL 1
REMARK VINA RESULT:      -9.5      0.000      0.000
REMARK  Name = 
REMARK  11 active torsions:
REMARK  status: ('A' for Active; 'I' for Inactive)
REMARK    1  A    between atoms: CB_1  and  CA_2
REMARK    2  A    between atoms: CA_2  and  C_3
REMARK    3  A    between atoms: CA_2  and  N_5
REMARK    4  A    between atoms: C_3  and  O_4
REMARK    5  A    between atoms: C_8  and  C_9
REMARK    6  A    between atoms: C_9  and  C_10
REMARK    7  A    between atoms: C_9  and  C_11
REMARK    8  A    between atoms: C_11  and  C_12
REMARK    9  A    between atoms: N_16  and  C_17
REMARK   10  A    between atoms: C_19  and  N_20
REMARK   11  A    between atoms: C_27  and  C_28
REMARK                            x       y       z     vdW  Elec       q    Type
REMARK                         _______ _______ _______ _____ _____    ______ ____
ROOT
ATOM      1  N   ALA A   1       2.921   3.520  19.729  0.00  0.00    +0.000 N 
ATOM      2  C   UNK A   0       3.107   4.703  18.988  0.00  0.00    +0.000 A 
ATOM      3  C   UNK A   0       4.128   4.744  18.034  0.00  0.00    +0.000 A 
ATOM      4  C   UNK A   0       4.447   5.943  17.379  0.00  0.00    +0.000 A 
ATOM      5  C   UNK A   0       3.747   7.083  17.789  0.00  0.00    +0.000 A 
ATOM      6  C   UNK A   0       2.721   6.970  18.722  0.00  0.00    +0.000 A 
ATOM      7  N   UNK A   0       2.376   5.792  19.276  0.00  0.00    +0.000 NA
ATOM      8  H   ALA A   1       3.013   2.724  19.097  0.00  0.00    +0.000 HD
ENDROOT
BRANCH   6   9
ATOM      9  N   UNK A   0       1.969   8.089  19.097  0.00  0.00    +0.000 N 
ATOM     10  C   UNK A   0       1.450   8.209  20.444  0.00  0.00    +0.000 C 
ATOM     11  C   UNK A   0       0.779   9.547  20.421  0.00  0.00    +0.000 A 
ATOM     12  C   UNK A   0       0.997  10.151  19.179  0.00  0.00    +0.000 A 
ATOM     13  C   UNK A   0       0.569  11.430  18.883  0.00  0.00    +0.000 A 
ATOM     14  C   UNK A   0      -0.143  12.113  19.868  0.00  0.00    +0.000 A 
ATOM     15  C   UNK A   0      -0.419  11.500  21.104  0.00  0.00    +0.000 A 
ATOM     16  C   UNK A   0       0.037  10.200  21.402  0.00  0.00    +0.000 A 
ATOM     17  C   UNK A   0       1.722   9.206  18.322  0.00  0.00    +0.000 C 
ATOM     18  O   UNK A   0       2.039   9.451  17.168  0.00  0.00    +0.000 OA
BRANCH  16  19
ATOM     19  C   UNK A   0      -0.303   9.572  22.730  0.00  0.00    +0.000 C 
ATOM     20  F   UNK A   0      -1.113  10.339  23.510  0.00  0.00    +0.000 F 
ATOM     21  F   UNK A   0      -0.940   8.378  22.593  0.00  0.00    +0.000 F 
ATOM     22  F   UNK A   0       0.806   9.322  23.481  0.00  0.00    +0.000 F 
ENDBRANCH  16  19
ENDBRANCH   6   9
BRANCH   1  24
ATOM     23  CB  ALA A   1       1.836   2.676  21.751  0.00  0.00    +0.000 C 
ATOM     24  CA  ALA A   1       1.628   3.431  20.434  0.00  0.00    +0.000 C 
BRANCH  24  25
ATOM     25  C   ALA A   1       0.628   2.692  19.520  0.00  0.00    +0.000 C 
BRANCH  25  26
ATOM     26  O   ALA A   1       1.297   1.716  18.712  0.00  0.00    +0.000 OA
ATOM     27  H   ALA A   1       0.616   1.197  18.250  0.00  0.00    +0.000 HD
ENDBRANCH  25  26
ENDBRANCH  24  25
ENDBRANCH   1  24
BRANCH   4  28
ATOM     28  C   UNK A   0       5.470   5.953  16.230  0.00  0.00    +0.000 C 
ATOM     29  C   UNK A   0       5.056   4.980  15.117  0.00  0.00    +0.000 C 
BRANCH  28  30
ATOM     30  C   UNK A   0       6.921   5.674  16.683  0.00  0.00    +0.000 C 
BRANCH  30  31
ATOM     31  C   UNK A   0       7.587   6.812  17.383  0.00  0.00    +0.000 A 
ATOM     32  N   UNK A   0       7.733   8.036  16.917  0.00  0.00    +0.000 NA
ATOM     33  N   UNK A   0       8.249   8.820  17.923  0.00  0.00    +0.000 NA
ATOM     34  C   UNK A   0       8.410   8.057  18.979  0.00  0.00    +0.000 A 
ATOM     35  N   UNK A   0       8.059   6.781  18.671  0.00  0.00    +0.000 N 
ATOM     36  C   UNK A   0       8.169   5.641  19.540  0.00  0.00    +0.000 C 
ENDBRANCH  30  31
ENDBRANCH  28  30
ENDBRANCH   4  28
TORSDOF 8
ENDMDL
MODEL 2
REMARK VINA RESULT:      -9.3      0.637      1.316
REMARK  Name = 
REMARK  11 active torsions:
REMARK  status: ('A' for Active; 'I' for Inactive)
REMARK    1  A    between atoms: CB_1  and  CA_2
REMARK    2  A    between atoms: CA_2  and  C_3
REMARK    3  A    between atoms: CA_2  and  N_5
REMARK    4  A    between atoms: C_3  and  O_4
REMARK    5  A    between atoms: C_8  and  C_9
REMARK    6  A    between atoms: C_9  and  C_10
REMARK    7  A    between atoms: C_9  and  C_11
REMARK    8  A    between atoms: C_11  and  C_12
REMARK    9  A    between atoms: N_16  and  C_17
REMARK   10  A    between atoms: C_19  and  N_20
REMARK   11  A    between atoms: C_27  and  C_28
REMARK                            x       y       z     vdW  Elec       q    Type
REMARK                         _______ _______ _______ _____ _____    ______ ____
ROOT
ATOM      1  N   ALA A   1       2.909   3.413  19.573  0.00  0.00    +0.000 N 
ATOM      2  C   UNK A   0       3.076   4.580  18.802  0.00  0.00    +0.000 A 
ATOM      3  C   UNK A   0       4.020   4.574  17.770  0.00  0.00    +0.000 A 
ATOM      4  C   UNK A   0       4.326   5.753  17.075  0.00  0.00    +0.000 A 
ATOM      5  C   UNK A   0       3.700   6.921  17.522  0.00  0.00    +0.000 A 
ATOM      6  C   UNK A   0       2.748   6.855  18.535  0.00  0.00    +0.000 A 
ATOM      7  N   UNK A   0       2.408   5.697  19.132  0.00  0.00    +0.000 NA
ATOM      8  H   ALA A   1       2.925   2.606  18.947  0.00  0.00    +0.000 HD
ENDROOT
BRANCH   6   9
ATOM      9  N   UNK A   0       2.066   8.004  18.952  0.00  0.00    +0.000 N 
ATOM     10  C   UNK A   0       1.539   8.099  20.297  0.00  0.00    +0.000 C 
ATOM     11  C   UNK A   0       0.958   9.479  20.327  0.00  0.00    +0.000 A 
ATOM     12  C   UNK A   0       1.230  10.120  19.116  0.00  0.00    +0.000 A 
ATOM     13  C   UNK A   0       0.891  11.437  18.872  0.00  0.00    +0.000 A 
ATOM     14  C   UNK A   0       0.213  12.122  19.880  0.00  0.00    +0.000 A 
ATOM     15  C   UNK A   0      -0.118  11.475  21.085  0.00  0.00    +0.000 A 
ATOM     16  C   UNK A   0       0.248  10.136  21.329  0.00  0.00    +0.000 A 
ATOM     17  C   UNK A   0       1.903   9.168  18.224  0.00  0.00    +0.000 C 
ATOM     18  O   UNK A   0       2.249   9.441  17.086  0.00  0.00    +0.000 OA
BRANCH  16  19
ATOM     19  C   UNK A   0      -0.149   9.475  22.625  0.00  0.00    +0.000 C 
ATOM     20  F   UNK A   0      -0.865   8.329  22.461  0.00  0.00    +0.000 F 
ATOM     21  F   UNK A   0       0.926   9.137  23.387  0.00  0.00    +0.000 F 
ATOM     22  F   UNK A   0      -0.919  10.286  23.402  0.00  0.00    +0.000 F 
ENDBRANCH  16  19
ENDBRANCH   6   9
BRANCH   1  24
ATOM     23  CB  ALA A   1       1.959   2.625  21.684  0.00  0.00    +0.000 C 
ATOM     24  CA  ALA A   1       1.674   3.377  20.379  0.00  0.00    +0.000 C 
BRANCH  24  25
ATOM     25  C   ALA A   1       0.579   2.668  19.555  0.00  0.00    +0.000 C 
BRANCH  25  26
ATOM     26  O   ALA A   1       1.152   1.702  18.664  0.00  0.00    +0.000 OA
ATOM     27  H   ALA A   1       1.102   2.064  17.764  0.00  0.00    +0.000 HD
ENDBRANCH  25  26
ENDBRANCH  24  25
ENDBRANCH   1  24
BRANCH   4  28
ATOM     28  C   UNK A   0       5.254   5.714  15.849  0.00  0.00    +0.000 C 
ATOM     29  C   UNK A   0       5.341   4.294  15.270  0.00  0.00    +0.000 C 
BRANCH  28  30
ATOM     30  C   UNK A   0       6.669   6.277  16.119  0.00  0.00    +0.000 C 
BRANCH  30  31
ATOM     31  C   UNK A   0       7.188   6.027  17.496  0.00  0.00    +0.000 A 
ATOM     32  N   UNK A   0       7.211   4.867  18.123  0.00  0.00    +0.000 NA
ATOM     33  N   UNK A   0       7.911   5.028  19.296  0.00  0.00    +0.000 NA
ATOM     34  C   UNK A   0       8.296   6.281  19.362  0.00  0.00    +0.000 A 
ATOM     35  N   UNK A   0       7.821   6.956  18.283  0.00  0.00    +0.000 N 
ATOM     36  C   UNK A   0       7.965   8.365  18.037  0.00  0.00    +0.000 C 
ENDBRANCH  30  31
ENDBRANCH  28  30
ENDBRANCH   4  28
TORSDOF 8
ENDMDL
MODEL 3
REMARK VINA RESULT:      -9.2      1.599      2.454
REMARK  Name = 
REMARK  11 active torsions:
REMARK  status: ('A' for Active; 'I' for Inactive)
REMARK    1  A    between atoms: CB_1  and  CA_2
REMARK    2  A    between atoms: CA_2  and  C_3
REMARK    3  A    between atoms: CA_2  and  N_5
REMARK    4  A    between atoms: C_3  and  O_4
REMARK    5  A    between atoms: C_8  and  C_9
REMARK    6  A    between atoms: C_9  and  C_10
REMARK    7  A    between atoms: C_9  and  C_11
REMARK    8  A    between atoms: C_11  and  C_12
REMARK    9  A    between atoms: N_16  and  C_17
REMARK   10  A    between atoms: C_19  and  N_20
REMARK   11  A    between atoms: C_27  and  C_28
REMARK                            x       y       z     vdW  Elec       q    Type
REMARK                         _______ _______ _______ _____ _____    ______ ____
ROOT
ATOM      1  N   ALA A   1       3.281   2.994  20.075  0.00  0.00    +0.000 N 
ATOM      2  C   UNK A   0       3.698   4.239  19.567  0.00  0.00    +0.000 A 
ATOM      3  C   UNK A   0       5.032   4.393  19.178  0.00  0.00    +0.000 A 
ATOM      4  C   UNK A   0       5.529   5.652  18.807  0.00  0.00    +0.000 A 
ATOM      5  C   UNK A   0       4.645   6.730  18.924  0.00  0.00    +0.000 A 
ATOM      6  C   UNK A   0       3.320   6.506  19.288  0.00  0.00    +0.000 A 
ATOM      7  N   UNK A   0       2.844   5.276  19.558  0.00  0.00    +0.000 NA
ATOM      8  H   ALA A   1       3.699   2.256  19.507  0.00  0.00    +0.000 HD
ENDROOT
BRANCH   6   9
ATOM      9  N   UNK A   0       2.406   7.564  19.349  0.00  0.00    +0.000 N 
ATOM     10  C   UNK A   0       1.758   7.906  20.598  0.00  0.00    +0.000 C 
ATOM     11  C   UNK A   0       0.933   9.099  20.226  0.00  0.00    +0.000 A 
ATOM     12  C   UNK A   0       1.186   9.437  18.894  0.00  0.00    +0.000 A 
ATOM     13  C   UNK A   0       0.633  10.547  18.286  0.00  0.00    +0.000 A 
ATOM     14  C   UNK A   0      -0.241  11.325  19.042  0.00  0.00    +0.000 A 
ATOM     15  C   UNK A   0      -0.550  10.968  20.368  0.00  0.00    +0.000 A 
ATOM     16  C   UNK A   0       0.033   9.843  20.985  0.00  0.00    +0.000 A 
ATOM     17  C   UNK A   0       2.095   8.436  18.323  0.00  0.00    +0.000 C 
ATOM     18  O   UNK A   0       2.481   8.462  17.165  0.00  0.00    +0.000 OA
BRANCH  16  19
ATOM     19  C   UNK A   0      -0.345   9.483  22.399  0.00  0.00    +0.000 C 
ATOM     20  F   UNK A   0       0.713   9.419  23.253  0.00  0.00    +0.000 F 
ATOM     21  F   UNK A   0      -1.213  10.375  22.948  0.00  0.00    +0.000 F 
ATOM     22  F   UNK A   0      -0.957   8.268  22.476  0.00  0.00    +0.000 F 
ENDBRANCH  16  19
ENDBRANCH   6   9
BRANCH   1  24
ATOM     23  CB  ALA A   1       1.405   2.478  21.557  0.00  0.00    +0.000 C 
ATOM     24  CA  ALA A   1       1.818   2.804  20.117  0.00  0.00    +0.000 C 
BRANCH  24  25
ATOM     25  C   ALA A   1       1.452   1.651  19.158  0.00  0.00    +0.000 C 
BRANCH  25  26
ATOM     26  O   ALA A   1       0.258   1.953  18.425  0.00  0.00    +0.000 OA
ATOM     27  H   ALA A   1      -0.057   1.127  18.020  0.00  0.00    +0.000 HD
ENDBRANCH  25  26
ENDBRANCH  24  25
ENDBRANCH   1  24
BRANCH   4  28
ATOM     28  C   UNK A   0       6.953   5.791  18.243  0.00  0.00    +0.000 C 
ATOM     29  C   UNK A   0       7.118   7.118  17.488  0.00  0.00    +0.000 C 
BRANCH  28  30
ATOM     30  C   UNK A   0       7.392   4.603  17.355  0.00  0.00    +0.000 C 
BRANCH  30  31
ATOM     31  C   UNK A   0       6.988   4.713  15.922  0.00  0.00    +0.000 A 
ATOM     32  N   UNK A   0       7.687   5.276  14.956  0.00  0.00    +0.000 NA
ATOM     33  N   UNK A   0       7.047   5.027  13.764  0.00  0.00    +0.000 NA
ATOM     34  C   UNK A   0       5.972   4.323  14.028  0.00  0.00    +0.000 A 
ATOM     35  N   UNK A   0       5.866   4.148  15.372  0.00  0.00    +0.000 N 
ATOM     36  C   UNK A   0       4.783   3.497  16.057  0.00  0.00    +0.000 C 
ENDBRANCH  30  31
ENDBRANCH  28  30
ENDBRANCH   4  28
TORSDOF 8
ENDMDL
MODEL 4
REMARK VINA RESULT:      -9.1      1.747      2.631
REMARK  Name = 
REMARK  11 active torsions:
REMARK  status: ('A' for Active; 'I' for Inactive)
REMARK    1  A    between atoms: CB_1  and  CA_2
REMARK    2  A    between atoms: CA_2  and  C_3
REMARK    3  A    between atoms: CA_2  and  N_5
REMARK    4  A    between atoms: C_3  and  O_4
REMARK    5  A    between atoms: C_8  and  C_9
REMARK    6  A    between atoms: C_9  and  C_10
REMARK    7  A    between atoms: C_9  and  C_11
REMARK    8  A    between atoms: C_11  and  C_12
REMARK    9  A    between atoms: N_16  and  C_17
REMARK   10  A    between atoms: C_19  and  N_20
REMARK   11  A    between atoms: C_27  and  C_28
REMARK                            x       y       z     vdW  Elec       q    Type
REMARK                         _______ _______ _______ _____ _____    ______ ____
ROOT
ATOM      1  N   ALA A   1       2.853   3.554  19.632  0.00  0.00    +0.000 N 
ATOM      2  C   UNK A   0       3.056   4.773  18.957  0.00  0.00    +0.000 A 
ATOM      3  C   UNK A   0       4.115   4.868  18.048  0.00  0.00    +0.000 A 
ATOM      4  C   UNK A   0       4.448   6.100  17.465  0.00  0.00    +0.000 A 
ATOM      5  C   UNK A   0       3.720   7.213  17.900  0.00  0.00    +0.000 A 
ATOM      6  C   UNK A   0       2.658   7.046  18.784  0.00  0.00    +0.000 A 
ATOM      7  N   UNK A   0       2.303   5.841  19.267  0.00  0.00    +0.000 NA
ATOM      8  H   ALA A   1       2.980   2.790  18.967  0.00  0.00    +0.000 HD
ENDROOT
BRANCH   6   9
ATOM      9  N   UNK A   0       1.879   8.139  19.181  0.00  0.00    +0.000 N 
ATOM     10  C   UNK A   0       1.377   8.231  20.536  0.00  0.00    +0.000 C 
ATOM     11  C   UNK A   0       0.667   9.550  20.536  0.00  0.00    +0.000 A 
ATOM     12  C   UNK A   0       0.850  10.171  19.297  0.00  0.00    +0.000 A 
ATOM     13  C   UNK A   0       0.381  11.441  19.020  0.00  0.00    +0.000 A 
ATOM     14  C   UNK A   0      -0.336  12.093  20.022  0.00  0.00    +0.000 A 
ATOM     15  C   UNK A   0      -0.576  11.460  21.256  0.00  0.00    +0.000 A 
ATOM     16  C   UNK A   0      -0.078  10.172  21.534  0.00  0.00    +0.000 A 
ATOM     17  C   UNK A   0       1.589   9.256  18.420  0.00  0.00    +0.000 C 
ATOM     18  O   UNK A   0       1.881   9.521  17.265  0.00  0.00    +0.000 OA
BRANCH  16  19
ATOM     19  C   UNK A   0      -0.380   9.522  22.860  0.00  0.00    +0.000 C 
ATOM     20  F   UNK A   0       0.720   9.311  23.634  0.00  0.00    +0.000 F 
ATOM     21  F   UNK A   0      -1.233  10.260  23.620  0.00  0.00    +0.000 F 
ATOM     22  F   UNK A   0      -0.969   8.302  22.714  0.00  0.00    +0.000 F 
ENDBRANCH  16  19
ENDBRANCH   6   9
BRANCH   1  24
ATOM     23  CB  ALA A   1       1.729   2.822  21.677  0.00  0.00    +0.000 C 
ATOM     24  CA  ALA A   1       1.534   3.420  20.279  0.00  0.00    +0.000 C 
BRANCH  24  25
ATOM     25  C   ALA A   1       0.654   2.506  19.399  0.00  0.00    +0.000 C 
BRANCH  25  26
ATOM     26  O   ALA A   1       1.459   1.727  18.505  0.00  0.00    +0.000 OA
ATOM     27  H   ALA A   1       2.106   1.236  19.040  0.00  0.00    +0.000 HD
ENDBRANCH  25  26
ENDBRANCH  24  25
ENDBRANCH   1  24
BRANCH   4  28
ATOM     28  C   UNK A   0       5.516   6.175  16.361  0.00  0.00    +0.000 C 
ATOM     29  C   UNK A   0       5.112   7.180  15.272  0.00  0.00    +0.000 C 
BRANCH  28  30
ATOM     30  C   UNK A   0       5.861   4.805  15.733  0.00  0.00    +0.000 C 
BRANCH  30  31
ATOM     31  C   UNK A   0       6.677   4.878  14.484  0.00  0.00    +0.000 A 
ATOM     32  N   UNK A   0       7.832   5.499  14.342  0.00  0.00    +0.000 NA
ATOM     33  N   UNK A   0       8.331   5.195  13.097  0.00  0.00    +0.000 NA
ATOM     34  C   UNK A   0       7.469   4.401  12.505  0.00  0.00    +0.000 A 
ATOM     35  N   UNK A   0       6.394   4.218  13.316  0.00  0.00    +0.000 N 
ATOM     36  C   UNK A   0       5.206   3.476  12.989  0.00  0.00    +0.000 C 
ENDBRANCH  30  31
ENDBRANCH  28  30
ENDBRANCH   4  28
TORSDOF 8
ENDMDL
MODEL 5
REMARK VINA RESULT:      -8.7      1.733      2.639
REMARK  Name = 
REMARK  11 active torsions:
REMARK  status: ('A' for Active; 'I' for Inactive)
REMARK    1  A    between atoms: CB_1  and  CA_2
REMARK    2  A    between atoms: CA_2  and  C_3
REMARK    3  A    between atoms: CA_2  and  N_5
REMARK    4  A    between atoms: C_3  and  O_4
REMARK    5  A    between atoms: C_8  and  C_9
REMARK    6  A    between atoms: C_9  and  C_10
REMARK    7  A    between atoms: C_9  and  C_11
REMARK    8  A    between atoms: C_11  and  C_12
REMARK    9  A    between atoms: N_16  and  C_17
REMARK   10  A    between atoms: C_19  and  N_20
REMARK   11  A    between atoms: C_27  and  C_28
REMARK                            x       y       z     vdW  Elec       q    Type
REMARK                         _______ _______ _______ _____ _____    ______ ____
ROOT
ATOM      1  N   ALA A   1       3.235   2.731  19.891  0.00  0.00    +0.000 N 
ATOM      2  C   UNK A   0       3.704   3.986  19.455  0.00  0.00    +0.000 A 
ATOM      3  C   UNK A   0       5.060   4.125  19.144  0.00  0.00    +0.000 A 
ATOM      4  C   UNK A   0       5.600   5.386  18.851  0.00  0.00    +0.000 A 
ATOM      5  C   UNK A   0       4.732   6.478  18.963  0.00  0.00    +0.000 A 
ATOM      6  C   UNK A   0       3.386   6.269  19.246  0.00  0.00    +0.000 A 
ATOM      7  N   UNK A   0       2.871   5.040  19.442  0.00  0.00    +0.000 NA
ATOM      8  H   ALA A   1       3.669   2.006  19.317  0.00  0.00    +0.000 HD
ENDROOT
BRANCH   6   9
ATOM      9  N   UNK A   0       2.491   7.343  19.301  0.00  0.00    +0.000 N 
ATOM     10  C   UNK A   0       1.828   7.687  20.541  0.00  0.00    +0.000 C 
ATOM     11  C   UNK A   0       1.032   8.898  20.165  0.00  0.00    +0.000 A 
ATOM     12  C   UNK A   0       1.314   9.242  18.841  0.00  0.00    +0.000 A 
ATOM     13  C   UNK A   0       0.792  10.367  18.232  0.00  0.00    +0.000 A 
ATOM     14  C   UNK A   0      -0.081  11.155  18.980  0.00  0.00    +0.000 A 
ATOM     15  C   UNK A   0      -0.420  10.793  20.297  0.00  0.00    +0.000 A 
ATOM     16  C   UNK A   0       0.132   9.652  20.914  0.00  0.00    +0.000 A 
ATOM     17  C   UNK A   0       2.214   8.230  18.277  0.00  0.00    +0.000 C 
ATOM     18  O   UNK A   0       2.620   8.257  17.126  0.00  0.00    +0.000 OA
BRANCH  16  19
ATOM     19  C   UNK A   0      -0.278   9.289  22.319  0.00  0.00    +0.000 C 
ATOM     20  F   UNK A   0       0.766   9.186  23.187  0.00  0.00    +0.000 F 
ATOM     21  F   UNK A   0      -1.128  10.198  22.865  0.00  0.00    +0.000 F 
ATOM     22  F   UNK A   0      -0.924   8.091  22.373  0.00  0.00    +0.000 F 
ENDBRANCH  16  19
ENDBRANCH   6   9
BRANCH   1  24
ATOM     23  CB  ALA A   1       1.244   3.194  18.550  0.00  0.00    +0.000 C 
ATOM     24  CA  ALA A   1       1.769   2.570  19.848  0.00  0.00    +0.000 C 
BRANCH  24  25
ATOM     25  C   ALA A   1       1.169   3.271  21.086  0.00  0.00    +0.000 C 
BRANCH  25  26
ATOM     26  O   ALA A   1       1.924   2.962  22.265  0.00  0.00    +0.000 OA
ATOM     27  H   ALA A   1       2.788   3.402  22.186  0.00  0.00    +0.000 HD
ENDBRANCH  25  26
ENDBRANCH  24  25
ENDBRANCH   1  24
BRANCH   4  28
ATOM     28  C   UNK A   0       7.055   5.516  18.370  0.00  0.00    +0.000 C 
ATOM     29  C   UNK A   0       7.320   6.914  17.791  0.00  0.00    +0.000 C 
BRANCH  28  30
ATOM     30  C   UNK A   0       7.480   4.423  17.362  0.00  0.00    +0.000 C 
BRANCH  30  31
ATOM     31  C   UNK A   0       7.029   4.659  15.958  0.00  0.00    +0.000 A 
ATOM     32  N   UNK A   0       7.692   5.313  15.026  0.00  0.00    +0.000 NA
ATOM     33  N   UNK A   0       7.016   5.168  13.837  0.00  0.00    +0.000 NA
ATOM     34  C   UNK A   0       5.954   4.433  14.070  0.00  0.00    +0.000 A 
ATOM     35  N   UNK A   0       5.893   4.136  15.395  0.00  0.00    +0.000 N 
ATOM     36  C   UNK A   0       4.836   3.415  16.051  0.00  0.00    +0.000 C 
ENDBRANCH  30  31
ENDBRANCH  28  30
ENDBRANCH   4  28
TORSDOF 8
ENDMDL
MODEL 6
REMARK VINA RESULT:      -8.6      1.918      2.752
REMARK  Name = 
REMARK  11 active torsions:
REMARK  status: ('A' for Active; 'I' for Inactive)
REMARK    1  A    between atoms: CB_1  and  CA_2
REMARK    2  A    between atoms: CA_2  and  C_3
REMARK    3  A    between atoms: CA_2  and  N_5
REMARK    4  A    between atoms: C_3  and  O_4
REMARK    5  A    between atoms: C_8  and  C_9
REMARK    6  A    between atoms: C_9  and  C_10
REMARK    7  A    between atoms: C_9  and  C_11
REMARK    8  A    between atoms: C_11  and  C_12
REMARK    9  A    between atoms: N_16  and  C_17
REMARK   10  A    between atoms: C_19  and  N_20
REMARK   11  A    between atoms: C_27  and  C_28
REMARK                            x       y       z     vdW  Elec       q    Type
REMARK                         _______ _______ _______ _____ _____    ______ ____
ROOT
ATOM      1  N   ALA A   1       2.959   3.296  19.950  0.00  0.00    +0.000 N 
ATOM      2  C   UNK A   0       3.245   4.471  19.228  0.00  0.00    +0.000 A 
ATOM      3  C   UNK A   0       4.376   4.496  18.406  0.00  0.00    +0.000 A 
ATOM      4  C   UNK A   0       4.784   5.686  17.785  0.00  0.00    +0.000 A 
ATOM      5  C   UNK A   0       4.048   6.835  18.097  0.00  0.00    +0.000 A 
ATOM      6  C   UNK A   0       2.915   6.738  18.899  0.00  0.00    +0.000 A 
ATOM      7  N   UNK A   0       2.494   5.568  19.416  0.00  0.00    +0.000 NA
ATOM      8  H   ALA A   1       3.122   2.494  19.340  0.00  0.00    +0.000 HD
ENDROOT
BRANCH   6   9
ATOM      9  N   UNK A   0       2.132   7.866  19.170  0.00  0.00    +0.000 N 
ATOM     10  C   UNK A   0       1.575   8.075  20.490  0.00  0.00    +0.000 C 
ATOM     11  C   UNK A   0       0.880   9.394  20.350  0.00  0.00    +0.000 A 
ATOM     12  C   UNK A   0       1.120   9.908  19.073  0.00  0.00    +0.000 A 
ATOM     13  C   UNK A   0       0.676  11.153  18.672  0.00  0.00    +0.000 A 
ATOM     14  C   UNK A   0      -0.074  11.892  19.585  0.00  0.00    +0.000 A 
ATOM     15  C   UNK A   0      -0.373  11.367  20.856  0.00  0.00    +0.000 A 
ATOM     16  C   UNK A   0       0.100  10.102  21.261  0.00  0.00    +0.000 A 
ATOM     17  C   UNK A   0       1.885   8.918  18.307  0.00  0.00    +0.000 C 
ATOM     18  O   UNK A   0       2.228   9.083  17.147  0.00  0.00    +0.000 OA
BRANCH  16  19
ATOM     19  C   UNK A   0      -0.264   9.568  22.623  0.00  0.00    +0.000 C 
ATOM     20  F   UNK A   0      -1.061  10.401  23.347  0.00  0.00    +0.000 F 
ATOM     21  F   UNK A   0      -0.928   8.383  22.557  0.00  0.00    +0.000 F 
ATOM     22  F   UNK A   0       0.833   9.340  23.397  0.00  0.00    +0.000 F 
ENDBRANCH  16  19
ENDBRANCH   6   9
BRANCH   1  24
ATOM     23  CB  ALA A   1       1.627   2.472  21.827  0.00  0.00    +0.000 C 
ATOM     24  CA  ALA A   1       1.589   3.223  20.492  0.00  0.00    +0.000 C 
BRANCH  24  25
ATOM     25  C   ALA A   1       0.701   2.489  19.465  0.00  0.00    +0.000 C 
BRANCH  25  26
ATOM     26  O   ALA A   1       1.473   1.568  18.685  0.00  0.00    +0.000 OA
ATOM     27  H   ALA A   1       0.855   0.943  18.268  0.00  0.00    +0.000 HD
ENDBRANCH  25  26
ENDBRANCH  24  25
ENDBRANCH   1  24
BRANCH   4  28
ATOM     28  C   UNK A   0       5.939   5.679  16.771  0.00  0.00    +0.000 C 
ATOM     29  C   UNK A   0       7.062   6.630  17.209  0.00  0.00    +0.000 C 
BRANCH  28  30
ATOM     30  C   UNK A   0       5.499   5.989  15.321  0.00  0.00    +0.000 C 
BRANCH  30  31
ATOM     31  C   UNK A   0       5.782   4.903  14.337  0.00  0.00    +0.000 A 
ATOM     32  N   UNK A   0       4.962   3.930  13.991  0.00  0.00    +0.000 NA
ATOM     33  N   UNK A   0       5.533   3.239  12.947  0.00  0.00    +0.000 NA
ATOM     34  C   UNK A   0       6.689   3.801  12.682  0.00  0.00    +0.000 A 
ATOM     35  N   UNK A   0       6.910   4.813  13.562  0.00  0.00    +0.000 N 
ATOM     36  C   UNK A   0       8.100   5.616  13.643  0.00  0.00    +0.000 C 
ENDBRANCH  30  31
ENDBRANCH  28  30
ENDBRANCH   4  28
TORSDOF 8
ENDMDL
MODEL 7
REMARK VINA RESULT:      -8.5      2.266      3.025
REMARK  Name = 
REMARK  11 active torsions:
REMARK  status: ('A' for Active; 'I' for Inactive)
REMARK    1  A    between atoms: CB_1  and  CA_2
REMARK    2  A    between atoms: CA_2  and  C_3
REMARK    3  A    between atoms: CA_2  and  N_5
REMARK    4  A    between atoms: C_3  and  O_4
REMARK    5  A    between atoms: C_8  and  C_9
REMARK    6  A    between atoms: C_9  and  C_10
REMARK    7  A    between atoms: C_9  and  C_11
REMARK    8  A    between atoms: C_11  and  C_12
REMARK    9  A    between atoms: N_16  and  C_17
REMARK   10  A    between atoms: C_19  and  N_20
REMARK   11  A    between atoms: C_27  and  C_28
REMARK                            x       y       z     vdW  Elec       q    Type
REMARK                         _______ _______ _______ _____ _____    ______ ____
ROOT
ATOM      1  N   ALA A   1       3.165   2.149  18.496  0.00  0.00    +0.000 N 
ATOM      2  C   UNK A   0       3.368   3.477  18.072  0.00  0.00    +0.000 A 
ATOM      3  C   UNK A   0       4.314   3.726  17.072  0.00  0.00    +0.000 A 
ATOM      4  C   UNK A   0       4.657   5.040  16.723  0.00  0.00    +0.000 A 
ATOM      5  C   UNK A   0       4.065   6.060  17.476  0.00  0.00    +0.000 A 
ATOM      6  C   UNK A   0       3.108   5.748  18.438  0.00  0.00    +0.000 A 
ATOM      7  N   UNK A   0       2.733   4.481  18.698  0.00  0.00    +0.000 NA
ATOM      8  H   ALA A   1       3.158   1.544  17.674  0.00  0.00    +0.000 HD
ENDROOT
BRANCH   6   9
ATOM      9  N   UNK A   0       2.460   6.758  19.157  0.00  0.00    +0.000 N 
ATOM     10  C   UNK A   0       2.262   8.068  18.570  0.00  0.00    +0.000 C 
ATOM     11  C   UNK A   0       1.497   8.794  19.634  0.00  0.00    +0.000 A 
ATOM     12  C   UNK A   0       1.221   7.914  20.684  0.00  0.00    +0.000 A 
ATOM     13  C   UNK A   0       0.456   8.271  21.778  0.00  0.00    +0.000 A 
ATOM     14  C   UNK A   0      -0.015   9.582  21.832  0.00  0.00    +0.000 A 
ATOM     15  C   UNK A   0       0.301  10.497  20.810  0.00  0.00    +0.000 A 
ATOM     16  C   UNK A   0       1.068  10.117  19.690  0.00  0.00    +0.000 A 
ATOM     17  C   UNK A   0       1.867   6.627  20.398  0.00  0.00    +0.000 C 
ATOM     18  O   UNK A   0       1.813   5.667  21.149  0.00  0.00    +0.000 OA
BRANCH  16  19
ATOM     19  C   UNK A   0       1.402  11.136  18.631  0.00  0.00    +0.000 C 
ATOM     20  F   UNK A   0       0.330  11.854  18.199  0.00  0.00    +0.000 F 
ATOM     21  F   UNK A   0       2.315  12.050  19.057  0.00  0.00    +0.000 F 
ATOM     22  F   UNK A   0       1.938  10.564  17.516  0.00  0.00    +0.000 F 
ENDBRANCH  16  19
ENDBRANCH   6   9
BRANCH   1  24
ATOM     23  CB  ALA A   1       0.772   2.644  18.559  0.00  0.00    +0.000 C 
ATOM     24  CA  ALA A   1       1.928   1.931  19.269  0.00  0.00    +0.000 C 
BRANCH  24  25
ATOM     25  C   ALA A   1       2.140   2.494  20.691  0.00  0.00    +0.000 C 
BRANCH  25  26
ATOM     26  O   ALA A   1       0.925   3.050  21.209  0.00  0.00    +0.000 OA
ATOM     27  H   ALA A   1       0.183   2.576  20.796  0.00  0.00    +0.000 HD
ENDBRANCH  25  26
ENDBRANCH  24  25
ENDBRANCH   1  24
BRANCH   4  28
ATOM     28  C   UNK A   0       5.586   5.310  15.528  0.00  0.00    +0.000 C 
ATOM     29  C   UNK A   0       5.281   4.353  14.367  0.00  0.00    +0.000 C 
BRANCH  28  30
ATOM     30  C   UNK A   0       7.090   5.269  15.884  0.00  0.00    +0.000 C 
BRANCH  30  31
ATOM     31  C   UNK A   0       7.393   5.450  17.335  0.00  0.00    +0.000 A 
ATOM     32  N   UNK A   0       7.579   4.490  18.219  0.00  0.00    +0.000 NA
ATOM     33  N   UNK A   0       7.992   5.067  19.397  0.00  0.00    +0.000 NA
ATOM     34  C   UNK A   0       8.045   6.365  19.208  0.00  0.00    +0.000 A 
ATOM     35  N   UNK A   0       7.627   6.654  17.948  0.00  0.00    +0.000 N 
ATOM     36  C   UNK A   0       7.470   7.971  17.392  0.00  0.00    +0.000 C 
ENDBRANCH  30  31
ENDBRANCH  28  30
ENDBRANCH   4  28
TORSDOF 8
ENDMDL
MODEL 8
REMARK VINA RESULT:      -8.3      1.726      2.744
REMARK  Name = 
REMARK  11 active torsions:
REMARK  status: ('A' for Active; 'I' for Inactive)
REMARK    1  A    between atoms: CB_1  and  CA_2
REMARK    2  A    between atoms: CA_2  and  C_3
REMARK    3  A    between atoms: CA_2  and  N_5
REMARK    4  A    between atoms: C_3  and  O_4
REMARK    5  A    between atoms: C_8  and  C_9
REMARK    6  A    between atoms: C_9  and  C_10
REMARK    7  A    between atoms: C_9  and  C_11
REMARK    8  A    between atoms: C_11  and  C_12
REMARK    9  A    between atoms: N_16  and  C_17
REMARK   10  A    between atoms: C_19  and  N_20
REMARK   11  A    between atoms: C_27  and  C_28
REMARK                            x       y       z     vdW  Elec       q    Type
REMARK                         _______ _______ _______ _____ _____    ______ ____
ROOT
ATOM      1  N   ALA A   1       3.022   2.580  19.777  0.00  0.00    +0.000 N 
ATOM      2  C   UNK A   0       3.562   3.831  19.421  0.00  0.00    +0.000 A 
ATOM      3  C   UNK A   0       4.937   3.927  19.187  0.00  0.00    +0.000 A 
ATOM      4  C   UNK A   0       5.542   5.176  18.976  0.00  0.00    +0.000 A 
ATOM      5  C   UNK A   0       4.712   6.297  19.090  0.00  0.00    +0.000 A 
ATOM      6  C   UNK A   0       3.345   6.132  19.295  0.00  0.00    +0.000 A 
ATOM      7  N   UNK A   0       2.774   4.918  19.411  0.00  0.00    +0.000 NA
ATOM      8  H   ALA A   1       3.458   1.862  19.196  0.00  0.00    +0.000 HD
ENDROOT
BRANCH   6   9
ATOM      9  N   UNK A   0       2.491   7.239  19.349  0.00  0.00    +0.000 N 
ATOM     10  C   UNK A   0       1.834   7.602  20.588  0.00  0.00    +0.000 C 
ATOM     11  C   UNK A   0       1.087   8.844  20.214  0.00  0.00    +0.000 A 
ATOM     12  C   UNK A   0       1.390   9.184  18.893  0.00  0.00    +0.000 A 
ATOM     13  C   UNK A   0       0.915  10.331  18.286  0.00  0.00    +0.000 A 
ATOM     14  C   UNK A   0       0.068  11.148  19.033  0.00  0.00    +0.000 A 
ATOM     15  C   UNK A   0      -0.292  10.792  20.346  0.00  0.00    +0.000 A 
ATOM     16  C   UNK A   0       0.212   9.628  20.961  0.00  0.00    +0.000 A 
ATOM     17  C   UNK A   0       2.255   8.141  18.328  0.00  0.00    +0.000 C 
ATOM     18  O   UNK A   0       2.669   8.159  17.180  0.00  0.00    +0.000 OA
BRANCH  16  19
ATOM     19  C   UNK A   0      -0.220   9.273  22.361  0.00  0.00    +0.000 C 
ATOM     20  F   UNK A   0      -0.911   8.103  22.444  0.00  0.00    +0.000 F 
ATOM     21  F   UNK A   0       0.832   9.146  23.213  0.00  0.00    +0.000 F 
ATOM     22  F   UNK A   0      -1.031  10.222  22.906  0.00  0.00    +0.000 F 
ENDBRANCH  16  19
ENDBRANCH   6   9
BRANCH   1  24
ATOM     23  CB  ALA A   1       1.123   3.199  18.368  0.00  0.00    +0.000 C 
ATOM     24  CA  ALA A   1       1.556   2.482  19.651  0.00  0.00    +0.000 C 
BRANCH  24  25
ATOM     25  C   ALA A   1       0.919   3.135  20.896  0.00  0.00    +0.000 C 
BRANCH  25  26
ATOM     26  O   ALA A   1       1.573   2.700  22.095  0.00  0.00    +0.000 OA
ATOM     27  H   ALA A   1       0.885   2.426  22.725  0.00  0.00    +0.000 HD
ENDBRANCH  25  26
ENDBRANCH  24  25
ENDBRANCH   1  24
BRANCH   4  28
ATOM     28  C   UNK A   0       7.024   5.265  18.577  0.00  0.00    +0.000 C 
ATOM     29  C   UNK A   0       7.870   5.832  19.726  0.00  0.00    +0.000 C 
BRANCH  28  30
ATOM     30  C   UNK A   0       7.273   6.063  17.276  0.00  0.00    +0.000 C 
BRANCH  30  31
ATOM     31  C   UNK A   0       6.832   5.373  16.027  0.00  0.00    +0.000 A 
ATOM     32  N   UNK A   0       7.388   4.306  15.488  0.00  0.00    +0.000 NA
ATOM     33  N   UNK A   0       6.593   3.890  14.445  0.00  0.00    +0.000 NA
ATOM     34  C   UNK A   0       5.574   4.714  14.367  0.00  0.00    +0.000 A 
ATOM     35  N   UNK A   0       5.710   5.689  15.304  0.00  0.00    +0.000 N 
ATOM     36  C   UNK A   0       4.838   6.818  15.482  0.00  0.00    +0.000 C 
ENDBRANCH  30  31
ENDBRANCH  28  30
ENDBRANCH   4  28
TORSDOF 8
ENDMDL
MODEL 9
REMARK VINA RESULT:      -8.0      1.148      1.761
REMARK  Name = 
REMARK  11 active torsions:
REMARK  status: ('A' for Active; 'I' for Inactive)
REMARK    1  A    between atoms: CB_1  and  CA_2
REMARK    2  A    between atoms: CA_2  and  C_3
REMARK    3  A    between atoms: CA_2  and  N_5
REMARK    4  A    between atoms: C_3  and  O_4
REMARK    5  A    between atoms: C_8  and  C_9
REMARK    6  A    between atoms: C_9  and  C_10
REMARK    7  A    between atoms: C_9  and  C_11
REMARK    8  A    between atoms: C_11  and  C_12
REMARK    9  A    between atoms: N_16  and  C_17
REMARK   10  A    between atoms: C_19  and  N_20
REMARK   11  A    between atoms: C_27  and  C_28
REMARK                            x       y       z     vdW  Elec       q    Type
REMARK                         _______ _______ _______ _____ _____    ______ ____
ROOT
ATOM      1  N   ALA A   1       3.150   3.089  19.433  0.00  0.00    +0.000 N 
ATOM      2  C   UNK A   0       3.322   4.267  18.681  0.00  0.00    +0.000 A 
ATOM      3  C   UNK A   0       4.303   4.290  17.684  0.00  0.00    +0.000 A 
ATOM      4  C   UNK A   0       4.612   5.482  17.011  0.00  0.00    +0.000 A 
ATOM      5  C   UNK A   0       3.948   6.633  17.447  0.00  0.00    +0.000 A 
ATOM      6  C   UNK A   0       2.961   6.539  18.424  0.00  0.00    +0.000 A 
ATOM      7  N   UNK A   0       2.621   5.368  18.996  0.00  0.00    +0.000 NA
ATOM      8  H   ALA A   1       3.204   2.290  18.800  0.00  0.00    +0.000 HD
ENDROOT
BRANCH   6   9
ATOM      9  N   UNK A   0       2.242   7.670  18.827  0.00  0.00    +0.000 N 
ATOM     10  C   UNK A   0       1.739   7.778  20.180  0.00  0.00    +0.000 C 
ATOM     11  C   UNK A   0       1.104   9.135  20.189  0.00  0.00    +0.000 A 
ATOM     12  C   UNK A   0       1.328   9.756  18.957  0.00  0.00    +0.000 A 
ATOM     13  C   UNK A   0       0.932  11.052  18.689  0.00  0.00    +0.000 A 
ATOM     14  C   UNK A   0       0.248  11.735  19.693  0.00  0.00    +0.000 A 
ATOM     15  C   UNK A   0      -0.035  11.105  20.920  0.00  0.00    +0.000 A 
ATOM     16  C   UNK A   0       0.389   9.788  21.189  0.00  0.00    +0.000 A 
ATOM     17  C   UNK A   0       2.019   8.808  18.075  0.00  0.00    +0.000 C 
ATOM     18  O   UNK A   0       2.332   9.067  16.923  0.00  0.00    +0.000 OA
BRANCH  16  19
ATOM     19  C   UNK A   0       0.043   9.145  22.507  0.00  0.00    +0.000 C 
ATOM     20  F   UNK A   0       1.129   8.777  23.242  0.00  0.00    +0.000 F 
ATOM     21  F   UNK A   0      -0.689   9.963  23.310  0.00  0.00    +0.000 F 
ATOM     22  F   UNK A   0      -0.698   8.012  22.350  0.00  0.00    +0.000 F 
ENDBRANCH  16  19
ENDBRANCH   6   9
BRANCH   1  24
ATOM     23  CB  ALA A   1       0.871   3.968  19.544  0.00  0.00    +0.000 C 
ATOM     24  CA  ALA A   1       1.888   3.022  20.193  0.00  0.00    +0.000 C 
BRANCH  24  25
ATOM     25  C   ALA A   1       2.179   3.433  21.653  0.00  0.00    +0.000 C 
BRANCH  25  26
ATOM     26  O   ALA A   1       2.508   4.825  21.737  0.00  0.00    +0.000 OA
ATOM     27  H   ALA A   1       1.805   5.323  21.286  0.00  0.00    +0.000 HD
ENDBRANCH  25  26
ENDBRANCH  24  25
ENDBRANCH   1  24
BRANCH   4  28
ATOM     28  C   UNK A   0       5.584   5.473  15.820  0.00  0.00    +0.000 C 
ATOM     29  C   UNK A   0       5.062   4.573  14.691  0.00  0.00    +0.000 C 
BRANCH  28  30
ATOM     30  C   UNK A   0       7.032   5.084  16.199  0.00  0.00    +0.000 C 
BRANCH  30  31
ATOM     31  C   UNK A   0       7.414   5.395  17.608  0.00  0.00    +0.000 A 
ATOM     32  N   UNK A   0       7.618   4.520  18.573  0.00  0.00    +0.000 NA
ATOM     33  N   UNK A   0       8.107   5.195  19.667  0.00  0.00    +0.000 NA
ATOM     34  C   UNK A   0       8.187   6.465  19.349  0.00  0.00    +0.000 A 
ATOM     35  N   UNK A   0       7.713   6.645  18.088  0.00  0.00    +0.000 N 
ATOM     36  C   UNK A   0       7.565   7.905  17.412  0.00  0.00    +0.000 C 
ENDBRANCH  30  31
ENDBRANCH  28  30
ENDBRANCH   4  28
TORSDOF 8
ENDMDL
