MODEL 1
REMARK VINA RESULT:      -6.4      0.000      0.000
REMARK  Name = 
REMARK  11 active torsions:
REMARK  status: ('A' for Active; 'I' for Inactive)
REMARK    1  A    between atoms: C_1  and  O_2
REMARK    2  A    between atoms: O_2  and  C_3
REMARK    3  A    between atoms: C_3  and  C_5
REMARK    4  A    between atoms: C_6  and  C_7
REMARK    5  A    between atoms: N_9  and  C_10
REMARK    6  A    between atoms: C_10  and  C_11
REMARK    7  A    between atoms: C_11  and  N_12
REMARK    8  A    between atoms: C_11  and  C_17
REMARK    9  A    between atoms: C_13  and  CA_15
REMARK   10  A    between atoms: CA_15  and  N_16
REMARK   11  A    between atoms: C_17  and  O_19
REMARK                            x       y       z     vdW  Elec       q    Type
REMARK                         _______ _______ _______ _____ _____    ______ ____
ROOT
ATOM      1  C   UNK A   2       6.246   4.256  16.093  0.00  0.00    +0.000 C 
ENDROOT
BRANCH   1   2
ATOM      2  N   UNK A   2       6.648   5.252  17.093  0.00  0.00    +0.000 N 
ATOM      3  C   GLY A   1       7.710   5.028  17.938  0.00  0.00    +0.000 C 
ATOM      4  O   GLY A   1       8.387   4.006  17.884  0.00  0.00    +0.000 OA
ATOM      5  H   UNK A   2       6.277   6.201  17.078  0.00  0.00    +0.000 HD
BRANCH   3   6
ATOM      6  CA  GLY A   1       7.946   6.133  18.981  0.00  0.00    +0.000 C 
BRANCH   6   7
ATOM      7  N   GLY A   1       8.124   5.551  20.328  0.00  0.00    +0.000 NA
ATOM      8  H1  GLY A   1       8.937   5.988  20.763  0.00  0.00    +0.000 HD
ATOM      9  H2  GLY A   1       8.387   4.570  20.208  0.00  0.00    +0.000 HD
ENDBRANCH   6   7
ENDBRANCH   3   6
ENDBRANCH   1   2
BRANCH   1  10
ATOM     10  C   UNK A   2       6.878   4.594  14.740  0.00  0.00    +0.000 C 
ATOM     11  O   UNK A   2       7.661   5.516  14.546  0.00  0.00    +0.000 OA
BRANCH  10  12
ATOM     12  O   UNK A   2       6.568   3.703  13.762  0.00  0.00    +0.000 OA
ATOM     13  H   UNK A   2       7.272   3.616  13.080  0.00  0.00    +0.000 HD
ENDBRANCH  10  12
ENDBRANCH   1  10
BRANCH   1  14
ATOM     14  C   UNK A   2       4.707   4.159  16.001  0.00  0.00    +0.000 C 
BRANCH  14  17
ATOM     15  C   UNK A   2       3.559   5.180  17.930  0.00  0.00    +0.000 C 
ATOM     16  O   UNK A   2       3.839   6.316  17.560  0.00  0.00    +0.000 OA
ATOM     17  N   UNK A   2       3.984   4.059  17.270  0.00  0.00    +0.000 N 
ATOM     18  H   UNK A   2       3.664   3.141  17.562  0.00  0.00    +0.000 HD
BRANCH  15  20
ATOM     19  C   UNK A   2       2.726   3.703  19.658  0.00  0.00    +0.000 C 
ATOM     20  C   UNK A   2       2.740   4.943  19.140  0.00  0.00    +0.000 C 
BRANCH  19  21
ATOM     21  C   UNK A   2       1.927   3.397  20.858  0.00  0.00    +0.000 C 
ATOM     22  O   UNK A   2       2.292   3.624  22.005  0.00  0.00    +0.000 OA
BRANCH  21  24
ATOM     23  C   UNK A   2       0.743   2.338  19.133  0.00  0.00    +0.000 C 
ATOM     24  O   UNK A   2       0.756   2.836  20.476  0.00  0.00    +0.000 OA
ENDBRANCH  21  24
ENDBRANCH  19  21
ENDBRANCH  15  20
ENDBRANCH  14  17
ENDBRANCH   1  14
TORSDOF 10
ENDMDL
MODEL 2
REMARK VINA RESULT:      -6.4      2.539      6.289
REMARK  Name = 
REMARK  11 active torsions:
REMARK  status: ('A' for Active; 'I' for Inactive)
REMARK    1  A    between atoms: C_1  and  O_2
REMARK    2  A    between atoms: O_2  and  C_3
REMARK    3  A    between atoms: C_3  and  C_5
REMARK    4  A    between atoms: C_6  and  C_7
REMARK    5  A    between atoms: N_9  and  C_10
REMARK    6  A    between atoms: C_10  and  C_11
REMARK    7  A    between atoms: C_11  and  N_12
REMARK    8  A    between atoms: C_11  and  C_17
REMARK    9  A    between atoms: C_13  and  CA_15
REMARK   10  A    between atoms: CA_15  and  N_16
REMARK   11  A    between atoms: C_17  and  O_19
REMARK                            x       y       z     vdW  Elec       q    Type
REMARK                         _______ _______ _______ _____ _____    ______ ____
ROOT
ATOM      1  C   UNK A   2       6.958   5.198  18.226  0.00  0.00    +0.000 C 
ENDROOT
BRANCH   1   2
ATOM      2  N   UNK A   2       5.515   5.362  18.439  0.00  0.00    +0.000 N 
ATOM      3  C   GLY A   1       4.766   4.380  19.045  0.00  0.00    +0.000 C 
ATOM      4  O   GLY A   1       5.263   3.338  19.459  0.00  0.00    +0.000 OA
ATOM      5  H   UNK A   2       5.058   6.263  18.311  0.00  0.00    +0.000 HD
BRANCH   3   6
ATOM      6  CA  GLY A   1       3.258   4.673  19.114  0.00  0.00    +0.000 C 
BRANCH   6   7
ATOM      7  N   GLY A   1       2.770   5.210  17.826  0.00  0.00    +0.000 NA
ATOM      8  H1  GLY A   1       2.846   6.227  17.851  0.00  0.00    +0.000 HD
ATOM      9  H2  GLY A   1       1.766   5.024  17.774  0.00  0.00    +0.000 HD
ENDBRANCH   6   7
ENDBRANCH   3   6
ENDBRANCH   1   2
BRANCH   1  10
ATOM     10  C   UNK A   2       7.729   5.812  19.399  0.00  0.00    +0.000 C 
ATOM     11  O   UNK A   2       7.844   5.296  20.503  0.00  0.00    +0.000 OA
BRANCH  10  12
ATOM     12  O   UNK A   2       8.377   6.962  19.075  0.00  0.00    +0.000 OA
ATOM     13  H   UNK A   2       8.483   7.574  19.839  0.00  0.00    +0.000 HD
ENDBRANCH  10  12
ENDBRANCH   1  10
BRANCH   1  14
ATOM     14  C   UNK A   2       7.387   5.808  16.873  0.00  0.00    +0.000 C 
BRANCH  14  17
ATOM     15  C   UNK A   2       6.129   4.735  15.044  0.00  0.00    +0.000 C 
ATOM     16  O   UNK A   2       5.063   5.201  15.435  0.00  0.00    +0.000 OA
ATOM     17  N   UNK A   2       7.311   4.925  15.707  0.00  0.00    +0.000 N 
ATOM     18  H   UNK A   2       8.182   4.592  15.308  0.00  0.00    +0.000 HD
BRANCH  15  20
ATOM     19  C   UNK A   2       5.104   3.811  13.054  0.00  0.00    +0.000 C 
ATOM     20  C   UNK A   2       6.207   3.913  13.815  0.00  0.00    +0.000 C 
BRANCH  19  21
ATOM     21  C   UNK A   2       5.111   3.003  11.821  0.00  0.00    +0.000 C 
ATOM     22  O   UNK A   2       4.150   2.882  11.071  0.00  0.00    +0.000 OA
BRANCH  21  24
ATOM     23  C   UNK A   2       6.311   1.106  11.145  0.00  0.00    +0.000 C 
ATOM     24  O   UNK A   2       6.331   2.437  11.674  0.00  0.00    +0.000 OA
ENDBRANCH  21  24
ENDBRANCH  19  21
ENDBRANCH  15  20
ENDBRANCH  14  17
ENDBRANCH   1  14
TORSDOF 10
ENDMDL
MODEL 3
REMARK VINA RESULT:      -6.3      2.547      6.313
REMARK  Name = 
REMARK  11 active torsions:
REMARK  status: ('A' for Active; 'I' for Inactive)
REMARK    1  A    between atoms: C_1  and  O_2
REMARK    2  A    between atoms: O_2  and  C_3
REMARK    3  A    between atoms: C_3  and  C_5
REMARK    4  A    between atoms: C_6  and  C_7
REMARK    5  A    between atoms: N_9  and  C_10
REMARK    6  A    between atoms: C_10  and  C_11
REMARK    7  A    between atoms: C_11  and  N_12
REMARK    8  A    between atoms: C_11  and  C_17
REMARK    9  A    between atoms: C_13  and  CA_15
REMARK   10  A    between atoms: CA_15  and  N_16
REMARK   11  A    between atoms: C_17  and  O_19
REMARK                            x       y       z     vdW  Elec       q    Type
REMARK                         _______ _______ _______ _____ _____    ______ ____
ROOT
ATOM      1  C   UNK A   2       7.006   5.376  18.131  0.00  0.00    +0.000 C 
ENDROOT
BRANCH   1   2
ATOM      2  N   UNK A   2       5.538   5.388  18.121  0.00  0.00    +0.000 N 
ATOM      3  C   GLY A   1       4.811   4.439  18.801  0.00  0.00    +0.000 C 
ATOM      4  O   GLY A   1       5.344   3.556  19.466  0.00  0.00    +0.000 OA
ATOM      5  H   UNK A   2       5.016   6.188  17.768  0.00  0.00    +0.000 HD
BRANCH   3   6
ATOM      6  CA  GLY A   1       3.287   4.545  18.619  0.00  0.00    +0.000 C 
BRANCH   6   7
ATOM      7  N   GLY A   1       2.854   3.817  17.407  0.00  0.00    +0.000 NA
ATOM      8  H1  GLY A   1       2.394   2.954  17.697  0.00  0.00    +0.000 HD
ATOM      9  H2  GLY A   1       3.697   3.512  16.913  0.00  0.00    +0.000 HD
ENDBRANCH   6   7
ENDBRANCH   3   6
ENDBRANCH   1   2
BRANCH   1  10
ATOM     10  C   UNK A   2       7.538   6.800  17.944  0.00  0.00    +0.000 C 
ATOM     11  O   UNK A   2       7.189   7.563  17.053  0.00  0.00    +0.000 OA
BRANCH  10  12
ATOM     12  O   UNK A   2       8.382   7.195  18.934  0.00  0.00    +0.000 OA
ATOM     13  H   UNK A   2       8.358   6.605  19.721  0.00  0.00    +0.000 HD
ENDBRANCH  10  12
ENDBRANCH   1  10
BRANCH   1  14
ATOM     14  C   UNK A   2       7.555   4.410  17.059  0.00  0.00    +0.000 C 
BRANCH  14  17
ATOM     15  C   UNK A   2       6.826   4.578  14.709  0.00  0.00    +0.000 C 
ATOM     16  O   UNK A   2       7.682   5.418  14.450  0.00  0.00    +0.000 OA
ATOM     17  N   UNK A   2       6.645   4.065  15.965  0.00  0.00    +0.000 N 
ATOM     18  H   UNK A   2       5.981   3.314  16.121  0.00  0.00    +0.000 HD
BRANCH  15  20
ATOM     19  C   UNK A   2       6.400   3.188  12.772  0.00  0.00    +0.000 C 
ATOM     20  C   UNK A   2       5.910   4.063  13.666  0.00  0.00    +0.000 C 
BRANCH  19  21
ATOM     21  C   UNK A   2       5.544   2.642  11.705  0.00  0.00    +0.000 C 
ATOM     22  O   UNK A   2       4.359   2.920  11.561  0.00  0.00    +0.000 OA
BRANCH  21  24
ATOM     23  C   UNK A   2       6.077   0.411  11.216  0.00  0.00    +0.000 C 
ATOM     24  O   UNK A   2       6.277   1.803  10.938  0.00  0.00    +0.000 OA
ENDBRANCH  21  24
ENDBRANCH  19  21
ENDBRANCH  15  20
ENDBRANCH  14  17
ENDBRANCH   1  14
TORSDOF 10
ENDMDL
MODEL 4
REMARK VINA RESULT:      -6.3      2.349      5.860
REMARK  Name = 
REMARK  11 active torsions:
REMARK  status: ('A' for Active; 'I' for Inactive)
REMARK    1  A    between atoms: C_1  and  O_2
REMARK    2  A    between atoms: O_2  and  C_3
REMARK    3  A    between atoms: C_3  and  C_5
REMARK    4  A    between atoms: C_6  and  C_7
REMARK    5  A    between atoms: N_9  and  C_10
REMARK    6  A    between atoms: C_10  and  C_11
REMARK    7  A    between atoms: C_11  and  N_12
REMARK    8  A    between atoms: C_11  and  C_17
REMARK    9  A    between atoms: C_13  and  CA_15
REMARK   10  A    between atoms: CA_15  and  N_16
REMARK   11  A    between atoms: C_17  and  O_19
REMARK                            x       y       z     vdW  Elec       q    Type
REMARK                         _______ _______ _______ _____ _____    ______ ____
ROOT
ATOM      1  C   UNK A   2       4.330   3.619  18.843  0.00  0.00    +0.000 C 
ENDROOT
BRANCH   1   2
ATOM      2  N   UNK A   2       5.780   3.818  18.730  0.00  0.00    +0.000 N 
ATOM      3  C   GLY A   1       6.371   5.001  19.109  0.00  0.00    +0.000 C 
ATOM      4  O   GLY A   1       5.729   5.934  19.580  0.00  0.00    +0.000 OA
ATOM      5  H   UNK A   2       6.410   3.040  18.541  0.00  0.00    +0.000 HD
BRANCH   3   6
ATOM      6  CA  GLY A   1       7.885   5.075  18.847  0.00  0.00    +0.000 C 
BRANCH   6   7
ATOM      7  N   GLY A   1       8.270   4.168  17.745  0.00  0.00    +0.000 NA
ATOM      8  H1  GLY A   1       9.073   4.571  17.262  0.00  0.00    +0.000 HD
ATOM      9  H2  GLY A   1       7.515   4.183  17.055  0.00  0.00    +0.000 HD
ENDBRANCH   6   7
ENDBRANCH   3   6
ENDBRANCH   1   2
BRANCH   1  10
ATOM     10  C   UNK A   2       4.033   2.165  19.220  0.00  0.00    +0.000 C 
ATOM     11  O   UNK A   2       3.029   1.549  18.884  0.00  0.00    +0.000 OA
BRANCH  10  12
ATOM     12  O   UNK A   2       5.048   1.564  19.895  0.00  0.00    +0.000 OA
ATOM     13  H   UNK A   2       5.520   2.173  20.507  0.00  0.00    +0.000 HD
ENDBRANCH  10  12
ENDBRANCH   1  10
BRANCH   1  14
ATOM     14  C   UNK A   2       3.615   4.033  17.538  0.00  0.00    +0.000 C 
BRANCH  14  17
ATOM     15  C   UNK A   2       5.021   4.985  15.749  0.00  0.00    +0.000 C 
ATOM     16  O   UNK A   2       4.899   6.124  16.189  0.00  0.00    +0.000 OA
ATOM     17  N   UNK A   2       4.389   3.904  16.301  0.00  0.00    +0.000 N 
ATOM     18  H   UNK A   2       4.580   2.969  15.957  0.00  0.00    +0.000 HD
BRANCH  15  20
ATOM     19  C   UNK A   2       5.368   3.886  13.620  0.00  0.00    +0.000 C 
ATOM     20  C   UNK A   2       5.864   4.702  14.565  0.00  0.00    +0.000 C 
BRANCH  19  21
ATOM     21  C   UNK A   2       6.158   3.558  12.419  0.00  0.00    +0.000 C 
ATOM     22  O   UNK A   2       7.235   4.070  12.142  0.00  0.00    +0.000 OA
BRANCH  21  24
ATOM     23  C   UNK A   2       4.203   3.023  11.241  0.00  0.00    +0.000 C 
ATOM     24  O   UNK A   2       5.498   2.620  11.702  0.00  0.00    +0.000 OA
ENDBRANCH  21  24
ENDBRANCH  19  21
ENDBRANCH  15  20
ENDBRANCH  14  17
ENDBRANCH   1  14
TORSDOF 10
ENDMDL
MODEL 5
REMARK VINA RESULT:      -6.2      2.123      3.661
REMARK  Name = 
REMARK  11 active torsions:
REMARK  status: ('A' for Active; 'I' for Inactive)
REMARK    1  A    between atoms: C_1  and  O_2
REMARK    2  A    between atoms: O_2  and  C_3
REMARK    3  A    between atoms: C_3  and  C_5
REMARK    4  A    between atoms: C_6  and  C_7
REMARK    5  A    between atoms: N_9  and  C_10
REMARK    6  A    between atoms: C_10  and  C_11
REMARK    7  A    between atoms: C_11  and  N_12
REMARK    8  A    between atoms: C_11  and  C_17
REMARK    9  A    between atoms: C_13  and  CA_15
REMARK   10  A    between atoms: CA_15  and  N_16
REMARK   11  A    between atoms: C_17  and  O_19
REMARK                            x       y       z     vdW  Elec       q    Type
REMARK                         _______ _______ _______ _____ _____    ______ ____
ROOT
ATOM      1  C   UNK A   2       6.664   6.399  17.377  0.00  0.00    +0.000 C 
ENDROOT
BRANCH   1   2
ATOM      2  N   UNK A   2       7.142   5.686  16.187  0.00  0.00    +0.000 N 
ATOM      3  C   GLY A   1       6.397   5.641  15.032  0.00  0.00    +0.000 C 
ATOM      4  O   GLY A   1       5.315   6.211  14.927  0.00  0.00    +0.000 OA
ATOM      5  H   UNK A   2       8.104   5.357  16.115  0.00  0.00    +0.000 HD
BRANCH   3   6
ATOM      6  CA  GLY A   1       7.002   4.783  13.908  0.00  0.00    +0.000 C 
BRANCH   6   7
ATOM      7  N   GLY A   1       6.307   3.483  13.811  0.00  0.00    +0.000 NA
ATOM      8  H1  GLY A   1       5.318   3.658  13.635  0.00  0.00    +0.000 HD
ATOM      9  H2  GLY A   1       6.335   3.048  14.737  0.00  0.00    +0.000 HD
ENDBRANCH   6   7
ENDBRANCH   3   6
ENDBRANCH   1   2
BRANCH   1  10
ATOM     10  C   UNK A   2       7.733   7.385  17.856  0.00  0.00    +0.000 C 
ATOM     11  O   UNK A   2       7.945   8.482  17.355  0.00  0.00    +0.000 OA
BRANCH  10  12
ATOM     12  O   UNK A   2       8.381   6.975  18.978  0.00  0.00    +0.000 OA
ATOM     13  H   UNK A   2       9.153   6.395  18.789  0.00  0.00    +0.000 HD
ENDBRANCH  10  12
ENDBRANCH   1  10
BRANCH   1  14
ATOM     14  C   UNK A   2       6.258   5.405  18.488  0.00  0.00    +0.000 C 
BRANCH  14  17
ATOM     15  C   UNK A   2       4.479   3.911  17.660  0.00  0.00    +0.000 C 
ATOM     16  O   UNK A   2       5.228   3.390  16.839  0.00  0.00    +0.000 OA
ATOM     17  N   UNK A   2       4.869   4.941  18.472  0.00  0.00    +0.000 N 
ATOM     18  H   UNK A   2       4.246   5.290  19.192  0.00  0.00    +0.000 HD
BRANCH  15  20
ATOM     19  C   UNK A   2       2.550   3.472  19.056  0.00  0.00    +0.000 C 
ATOM     20  C   UNK A   2       3.078   3.461  17.820  0.00  0.00    +0.000 C 
BRANCH  19  21
ATOM     21  C   UNK A   2       1.163   3.032  19.287  0.00  0.00    +0.000 C 
ATOM     22  O   UNK A   2       0.476   2.455  18.453  0.00  0.00    +0.000 OA
BRANCH  21  24
ATOM     23  C   UNK A   2       1.558   2.731  21.578  0.00  0.00    +0.000 C 
ATOM     24  O   UNK A   2       0.798   3.369  20.545  0.00  0.00    +0.000 OA
ENDBRANCH  21  24
ENDBRANCH  19  21
ENDBRANCH  15  20
ENDBRANCH  14  17
ENDBRANCH   1  14
TORSDOF 10
ENDMDL
MODEL 6
REMARK VINA RESULT:      -6.2      2.560      6.454
REMARK  Name = 
REMARK  11 active torsions:
REMARK  status: ('A' for Active; 'I' for Inactive)
REMARK    1  A    between atoms: C_1  and  O_2
REMARK    2  A    between atoms: O_2  and  C_3
REMARK    3  A    between atoms: C_3  and  C_5
REMARK    4  A    between atoms: C_6  and  C_7
REMARK    5  A    between atoms: N_9  and  C_10
REMARK    6  A    between atoms: C_10  and  C_11
REMARK    7  A    between atoms: C_11  and  N_12
REMARK    8  A    between atoms: C_11  and  C_17
REMARK    9  A    between atoms: C_13  and  CA_15
REMARK   10  A    between atoms: CA_15  and  N_16
REMARK   11  A    between atoms: C_17  and  O_19
REMARK                            x       y       z     vdW  Elec       q    Type
REMARK                         _______ _______ _______ _____ _____    ______ ____
ROOT
ATOM      1  C   UNK A   2       5.391   5.076  17.776  0.00  0.00    +0.000 C 
ENDROOT
BRANCH   1   2
ATOM      2  N   UNK A   2       4.337   4.057  17.720  0.00  0.00    +0.000 N 
ATOM      3  C   GLY A   1       4.249   3.065  18.670  0.00  0.00    +0.000 C 
ATOM      4  O   GLY A   1       5.024   2.996  19.619  0.00  0.00    +0.000 OA
ATOM      5  H   UNK A   2       3.540   4.150  17.092  0.00  0.00    +0.000 HD
BRANCH   3   6
ATOM      6  CA  GLY A   1       3.140   2.030  18.418  0.00  0.00    +0.000 C 
BRANCH   6   7
ATOM      7  N   GLY A   1       1.997   2.650  17.715  0.00  0.00    +0.000 NA
ATOM      8  H1  GLY A   1       1.578   3.345  18.331  0.00  0.00    +0.000 HD
ATOM      9  H2  GLY A   1       1.278   1.931  17.602  0.00  0.00    +0.000 HD
ENDBRANCH   6   7
ENDBRANCH   3   6
ENDBRANCH   1   2
BRANCH   1  10
ATOM     10  C   UNK A   2       4.840   6.422  17.297  0.00  0.00    +0.000 C 
ATOM     11  O   UNK A   2       3.884   7.001  17.797  0.00  0.00    +0.000 OA
BRANCH  10  12
ATOM     12  O   UNK A   2       5.579   6.985  16.306  0.00  0.00    +0.000 OA
ATOM     13  H   UNK A   2       6.419   7.382  16.628  0.00  0.00    +0.000 HD
ENDBRANCH  10  12
ENDBRANCH   1  10
BRANCH   1  14
ATOM     14  C   UNK A   2       6.626   4.636  16.958  0.00  0.00    +0.000 C 
BRANCH  14  17
ATOM     15  C   UNK A   2       7.071   4.699  14.533  0.00  0.00    +0.000 C 
ATOM     16  O   UNK A   2       7.864   5.628  14.652  0.00  0.00    +0.000 OA
ATOM     17  N   UNK A   2       6.372   4.180  15.590  0.00  0.00    +0.000 N 
ATOM     18  H   UNK A   2       5.787   3.361  15.464  0.00  0.00    +0.000 HD
BRANCH  15  20
ATOM     19  C   UNK A   2       5.617   3.473  13.035  0.00  0.00    +0.000 C 
ATOM     20  C   UNK A   2       6.804   4.075  13.218  0.00  0.00    +0.000 C 
BRANCH  19  21
ATOM     21  C   UNK A   2       5.289   2.827  11.751  0.00  0.00    +0.000 C 
ATOM     22  O   UNK A   2       4.215   2.947  11.174  0.00  0.00    +0.000 OA
BRANCH  21  24
ATOM     23  C   UNK A   2       6.047   0.753  10.963  0.00  0.00    +0.000 C 
ATOM     24  O   UNK A   2       6.354   2.101  11.340  0.00  0.00    +0.000 OA
ENDBRANCH  21  24
ENDBRANCH  19  21
ENDBRANCH  15  20
ENDBRANCH  14  17
ENDBRANCH   1  14
TORSDOF 10
ENDMDL
MODEL 7
REMARK VINA RESULT:      -6.2      2.523      6.374
REMARK  Name = 
REMARK  11 active torsions:
REMARK  status: ('A' for Active; 'I' for Inactive)
REMARK    1  A    between atoms: C_1  and  O_2
REMARK    2  A    between atoms: O_2  and  C_3
REMARK    3  A    between atoms: C_3  and  C_5
REMARK    4  A    between atoms: C_6  and  C_7
REMARK    5  A    between atoms: N_9  and  C_10
REMARK    6  A    between atoms: C_10  and  C_11
REMARK    7  A    between atoms: C_11  and  N_12
REMARK    8  A    between atoms: C_11  and  C_17
REMARK    9  A    between atoms: C_13  and  CA_15
REMARK   10  A    between atoms: CA_15  and  N_16
REMARK   11  A    between atoms: C_17  and  O_19
REMARK                            x       y       z     vdW  Elec       q    Type
REMARK                         _______ _______ _______ _____ _____    ______ ____
ROOT
ATOM      1  C   UNK A   2       4.871   4.531  18.491  0.00  0.00    +0.000 C 
ENDROOT
BRANCH   1   2
ATOM      2  N   UNK A   2       3.967   5.084  19.506  0.00  0.00    +0.000 N 
ATOM      3  C   GLY A   1       2.827   4.415  19.889  0.00  0.00    +0.000 C 
ATOM      4  O   GLY A   1       2.523   3.320  19.428  0.00  0.00    +0.000 OA
ATOM      5  H   UNK A   2       4.237   5.880  20.081  0.00  0.00    +0.000 HD
BRANCH   3   6
ATOM      6  CA  GLY A   1       1.948   5.171  20.900  0.00  0.00    +0.000 C 
BRANCH   6   7
ATOM      7  N   GLY A   1       1.961   6.622  20.621  0.00  0.00    +0.000 NA
ATOM      8  H1  GLY A   1       2.682   6.810  19.925  0.00  0.00    +0.000 HD
ATOM      9  H2  GLY A   1       2.283   7.097  21.468  0.00  0.00    +0.000 HD
ENDBRANCH   6   7
ENDBRANCH   3   6
ENDBRANCH   1   2
BRANCH   1  10
ATOM     10  C   UNK A   2       6.325   4.798  18.889  0.00  0.00    +0.000 C 
ATOM     11  O   UNK A   2       6.673   5.398  19.898  0.00  0.00    +0.000 OA
BRANCH  10  12
ATOM     12  O   UNK A   2       7.228   4.213  18.059  0.00  0.00    +0.000 OA
ATOM     13  H   UNK A   2       7.734   3.487  18.488  0.00  0.00    +0.000 HD
ENDBRANCH  10  12
ENDBRANCH   1  10
BRANCH   1  14
ATOM     14  C   UNK A   2       4.543   5.100  17.093  0.00  0.00    +0.000 C 
BRANCH  14  17
ATOM     15  C   UNK A   2       5.967   4.678  15.124  0.00  0.00    +0.000 C 
ATOM     16  O   UNK A   2       6.529   5.763  15.235  0.00  0.00    +0.000 OA
ATOM     17  N   UNK A   2       4.945   4.284  15.946  0.00  0.00    +0.000 N 
ATOM     18  H   UNK A   2       4.561   3.348  15.872  0.00  0.00    +0.000 HD
BRANCH  15  20
ATOM     19  C   UNK A   2       5.702   3.768  12.896  0.00  0.00    +0.000 C 
ATOM     20  C   UNK A   2       6.353   3.713  14.070  0.00  0.00    +0.000 C 
BRANCH  19  21
ATOM     21  C   UNK A   2       6.033   2.832  11.807  0.00  0.00    +0.000 C 
ATOM     22  O   UNK A   2       7.171   2.604  11.417  0.00  0.00    +0.000 OA
BRANCH  21  24
ATOM     23  C   UNK A   2       3.857   3.237  11.032  0.00  0.00    +0.000 C 
ATOM     24  O   UNK A   2       4.889   2.289  11.331  0.00  0.00    +0.000 OA
ENDBRANCH  21  24
ENDBRANCH  19  21
ENDBRANCH  15  20
ENDBRANCH  14  17
ENDBRANCH   1  14
TORSDOF 10
ENDMDL
MODEL 8
REMARK VINA RESULT:      -6.2      1.365      1.746
REMARK  Name = 
REMARK  11 active torsions:
REMARK  status: ('A' for Active; 'I' for Inactive)
REMARK    1  A    between atoms: C_1  and  O_2
REMARK    2  A    between atoms: O_2  and  C_3
REMARK    3  A    between atoms: C_3  and  C_5
REMARK    4  A    between atoms: C_6  and  C_7
REMARK    5  A    between atoms: N_9  and  C_10
REMARK    6  A    between atoms: C_10  and  C_11
REMARK    7  A    between atoms: C_11  and  N_12
REMARK    8  A    between atoms: C_11  and  C_17
REMARK    9  A    between atoms: C_13  and  CA_15
REMARK   10  A    between atoms: CA_15  and  N_16
REMARK   11  A    between atoms: C_17  and  O_19
REMARK                            x       y       z     vdW  Elec       q    Type
REMARK                         _______ _______ _______ _____ _____    ______ ____
ROOT
ATOM      1  C   UNK A   2       6.544   4.719  15.498  0.00  0.00    +0.000 C 
ENDROOT
BRANCH   1   2
ATOM      2  N   UNK A   2       7.103   5.838  16.266  0.00  0.00    +0.000 N 
ATOM      3  C   GLY A   1       7.432   5.699  17.595  0.00  0.00    +0.000 C 
ATOM      4  O   GLY A   1       7.302   4.636  18.195  0.00  0.00    +0.000 OA
ATOM      5  H   UNK A   2       7.429   6.687  15.808  0.00  0.00    +0.000 HD
BRANCH   3   6
ATOM      6  CA  GLY A   1       7.926   6.988  18.272  0.00  0.00    +0.000 C 
BRANCH   6   7
ATOM      7  N   GLY A   1       7.747   8.150  17.377  0.00  0.00    +0.000 NA
ATOM      8  H1  GLY A   1       7.144   8.827  17.844  0.00  0.00    +0.000 HD
ATOM      9  H2  GLY A   1       7.209   7.835  16.566  0.00  0.00    +0.000 HD
ENDBRANCH   6   7
ENDBRANCH   3   6
ENDBRANCH   1   2
BRANCH   1  10
ATOM     10  C   UNK A   2       7.112   4.730  14.076  0.00  0.00    +0.000 C 
ATOM     11  O   UNK A   2       6.683   4.056  13.149  0.00  0.00    +0.000 OA
BRANCH  10  12
ATOM     12  O   UNK A   2       8.098   5.648  13.896  0.00  0.00    +0.000 OA
ATOM     13  H   UNK A   2       8.063   6.085  13.016  0.00  0.00    +0.000 HD
ENDBRANCH  10  12
ENDBRANCH   1  10
BRANCH   1  14
ATOM     14  C   UNK A   2       5.000   4.767  15.501  0.00  0.00    +0.000 C 
BRANCH  14  17
ATOM     15  C   UNK A   2       3.907   5.679  17.515  0.00  0.00    +0.000 C 
ATOM     16  O   UNK A   2       4.122   6.837  17.169  0.00  0.00    +0.000 OA
ATOM     17  N   UNK A   2       4.345   4.597  16.799  0.00  0.00    +0.000 N 
ATOM     18  H   UNK A   2       4.077   3.658  17.076  0.00  0.00    +0.000 HD
BRANCH  15  20
ATOM     19  C   UNK A   2       2.906   4.080  19.032  0.00  0.00    +0.000 C 
ATOM     20  C   UNK A   2       3.160   5.370  18.755  0.00  0.00    +0.000 C 
BRANCH  19  21
ATOM     21  C   UNK A   2       2.161   3.703  20.247  0.00  0.00    +0.000 C 
ATOM     22  O   UNK A   2       1.026   4.084  20.505  0.00  0.00    +0.000 OA
BRANCH  21  24
ATOM     23  C   UNK A   2       4.026   2.283  20.298  0.00  0.00    +0.000 C 
ATOM     24  O   UNK A   2       2.933   2.888  21.001  0.00  0.00    +0.000 OA
ENDBRANCH  21  24
ENDBRANCH  19  21
ENDBRANCH  15  20
ENDBRANCH  14  17
ENDBRANCH   1  14
TORSDOF 10
ENDMDL
MODEL 9
REMARK VINA RESULT:      -6.2      1.690      3.291
REMARK  Name = 
REMARK  11 active torsions:
REMARK  status: ('A' for Active; 'I' for Inactive)
REMARK    1  A    between atoms: C_1  and  O_2
REMARK    2  A    between atoms: O_2  and  C_3
REMARK    3  A    between atoms: C_3  and  C_5
REMARK    4  A    between atoms: C_6  and  C_7
REMARK    5  A    between atoms: N_9  and  C_10
REMARK    6  A    between atoms: C_10  and  C_11
REMARK    7  A    between atoms: C_11  and  N_12
REMARK    8  A    between atoms: C_11  and  C_17
REMARK    9  A    between atoms: C_13  and  CA_15
REMARK   10  A    between atoms: CA_15  and  N_16
REMARK   11  A    between atoms: C_17  and  O_19
REMARK                            x       y       z     vdW  Elec       q    Type
REMARK                         _______ _______ _______ _____ _____    ______ ____
ROOT
ATOM      1  C   UNK A   2       7.170   6.339  17.310  0.00  0.00    +0.000 C 
ENDROOT
BRANCH   1   2
ATOM      2  N   UNK A   2       7.487   5.959  15.929  0.00  0.00    +0.000 N 
ATOM      3  C   GLY A   1       6.677   5.103  15.219  0.00  0.00    +0.000 C 
ATOM      4  O   GLY A   1       5.644   4.638  15.689  0.00  0.00    +0.000 OA
ATOM      5  H   UNK A   2       8.206   6.445  15.395  0.00  0.00    +0.000 HD
BRANCH   3   6
ATOM      6  CA  GLY A   1       7.196   4.741  13.817  0.00  0.00    +0.000 C 
BRANCH   6   7
ATOM      7  N   GLY A   1       8.237   5.696  13.383  0.00  0.00    +0.000 NA
ATOM      8  H1  GLY A   1       9.150   5.262  13.520  0.00  0.00    +0.000 HD
ATOM      9  H2  GLY A   1       8.222   6.486  14.034  0.00  0.00    +0.000 HD
ENDBRANCH   6   7
ENDBRANCH   3   6
ENDBRANCH   1   2
BRANCH   1  10
ATOM     10  C   UNK A   2       7.650   5.249  18.273  0.00  0.00    +0.000 C 
ATOM     11  O   UNK A   2       7.817   5.405  19.475  0.00  0.00    +0.000 OA
BRANCH  10  12
ATOM     12  O   UNK A   2       7.784   4.031  17.684  0.00  0.00    +0.000 OA
ATOM     13  H   UNK A   2       8.153   4.080  16.773  0.00  0.00    +0.000 HD
ENDBRANCH  10  12
ENDBRANCH   1  10
BRANCH   1  14
ATOM     14  C   UNK A   2       5.661   6.625  17.470  0.00  0.00    +0.000 C 
BRANCH  14  17
ATOM     15  C   UNK A   2       3.531   5.732  18.338  0.00  0.00    +0.000 C 
ATOM     16  O   UNK A   2       2.883   6.639  17.823  0.00  0.00    +0.000 OA
ATOM     17  N   UNK A   2       4.897   5.666  18.271  0.00  0.00    +0.000 N 
ATOM     18  H   UNK A   2       5.389   4.859  18.639  0.00  0.00    +0.000 HD
BRANCH  15  20
ATOM     19  C   UNK A   2       1.612   4.314  18.745  0.00  0.00    +0.000 C 
ATOM     20  C   UNK A   2       2.871   4.640  19.086  0.00  0.00    +0.000 C 
BRANCH  19  21
ATOM     21  C   UNK A   2       0.894   3.240  19.454  0.00  0.00    +0.000 C 
ATOM     22  O   UNK A   2       0.399   2.263  18.905  0.00  0.00    +0.000 OA
BRANCH  21  24
ATOM     23  C   UNK A   2       1.540   2.547  21.599  0.00  0.00    +0.000 C 
ATOM     24  O   UNK A   2       0.881   3.518  20.778  0.00  0.00    +0.000 OA
ENDBRANCH  21  24
ENDBRANCH  19  21
ENDBRANCH  15  20
ENDBRANCH  14  17
ENDBRANCH   1  14
TORSDOF 10
ENDMDL
