MODEL 1
REMARK VINA RESULT:      -8.0      0.000      0.000
REMARK  Name = 
REMARK  5 active torsions:
REMARK  status: ('A' for Active; 'I' for Inactive)
REMARK    1  A    between atoms: C_1  and  C_2
REMARK    2  A    between atoms: C_2  and  C_3
REMARK    3  A    between atoms: C_3  and  S_4
REMARK    4  A    between atoms: S_4  and  C_5
REMARK    5  A    between atoms: C_8  and  C_9
REMARK                            x       y       z     vdW  Elec       q    Type
REMARK                         _______ _______ _______ _____ _____    ______ ____
ROOT
ATOM      1  C   UNL     1       2.688   5.673  17.772  0.00  0.00    +0.000 C 
ATOM      2  C   UNL     1       1.811   4.427  17.950  0.00  0.00    +0.000 C 
ATOM      3  C   UNL     1       1.652   3.883  19.360  0.00  0.00    +0.000 C 
ATOM      4  O   UNL     1       0.528   3.611  19.790  0.00  0.00    +0.000 OA
ATOM      5  N   UNL     1       2.726   3.532  20.119  0.00  0.00    +0.000 N 
ATOM      6  C   UNL     1       3.945   4.301  20.344  0.00  0.00    +0.000 C 
ATOM      7  C   UNL     1       4.648   4.633  19.086  0.00  0.00    +0.000 A 
ATOM      8  N   UNL     1       5.971   4.332  18.903  0.00  0.00    +0.000 NA
ATOM      9  C   UNL     1       6.228   4.638  17.651  0.00  0.00    +0.000 A 
ATOM     10  C   UNL     1       7.410   4.453  16.883  0.00  0.00    +0.000 A 
ATOM     11  C   UNL     1       7.402   4.734  15.566  0.00  0.00    +0.000 A 
ATOM     12  C   UNL     1       6.209   5.249  14.913  0.00  0.00    +0.000 A 
ATOM     13  C   UNL     1       5.101   5.468  15.641  0.00  0.00    +0.000 A 
ATOM     14  N   UNL     1       5.108   5.168  17.007  0.00  0.00    +0.000 N 
ATOM     15  C   UNL     1       4.112   5.238  17.963  0.00  0.00    +0.000 A 
ATOM     16  H   UNL     1       2.397   3.086  20.965  0.00  0.00    +0.000 HD
ENDROOT
BRANCH   1  20
ATOM     17  C   UNL     1       1.349   8.991  20.079  0.00  0.00    +0.000 A 
ATOM     18  N   UNL     1       1.598   9.198  18.778  0.00  0.00    +0.000 NA
ATOM     19  C   UNL     1       2.048   8.135  18.075  0.00  0.00    +0.000 A 
ATOM     20  C   UNL     1       2.260   6.874  18.603  0.00  0.00    +0.000 A 
ATOM     21  C   UNL     1       1.957   6.790  19.954  0.00  0.00    +0.000 A 
ATOM     22  N   UNL     1       1.509   7.818  20.705  0.00  0.00    +0.000 NA
BRANCH  17  23
ATOM     23  S   UNL     1       0.813  10.365  21.060  0.00  0.00    +0.000 S 
BRANCH  23  24
ATOM     24  C   UNL     1       0.350   9.475  22.579  0.00  0.00    +0.000 C 
BRANCH  24  26
ATOM     25  C   UNL     1      -1.075  11.563  22.621  0.00  0.00    +0.000 C 
ATOM     26  C   UNL     1      -0.836  10.188  23.229  0.00  0.00    +0.000 C 
ENDBRANCH  24  26
ENDBRANCH  23  24
ENDBRANCH  17  23
ENDBRANCH   1  20
TORSDOF 4
ENDMDL
MODEL 2
REMARK VINA RESULT:      -7.9      4.541      8.265
REMARK  Name = 
REMARK  5 active torsions:
REMARK  status: ('A' for Active; 'I' for Inactive)
REMARK    1  A    between atoms: C_1  and  C_2
REMARK    2  A    between atoms: C_2  and  C_3
REMARK    3  A    between atoms: C_3  and  S_4
REMARK    4  A    between atoms: S_4  and  C_5
REMARK    5  A    between atoms: C_8  and  C_9
REMARK                            x       y       z     vdW  Elec       q    Type
REMARK                         _______ _______ _______ _____ _____    ______ ____
ROOT
ATOM      1  C   UNL     1       4.866   5.926  16.799  0.00  0.00    +0.000 C 
ATOM      2  C   UNL     1       5.604   7.167  17.320  0.00  0.00    +0.000 C 
ATOM      3  C   UNL     1       7.095   7.030  17.584  0.00  0.00    +0.000 C 
ATOM      4  O   UNL     1       7.876   7.878  17.146  0.00  0.00    +0.000 OA
ATOM      5  N   UNL     1       7.589   6.083  18.428  0.00  0.00    +0.000 N 
ATOM      6  C   UNL     1       7.255   4.664  18.466  0.00  0.00    +0.000 C 
ATOM      7  C   UNL     1       5.810   4.427  18.673  0.00  0.00    +0.000 A 
ATOM      8  N   UNL     1       5.353   3.617  19.678  0.00  0.00    +0.000 NA
ATOM      9  C   UNL     1       4.044   3.738  19.654  0.00  0.00    +0.000 A 
ATOM     10  C   UNL     1       3.055   3.201  20.523  0.00  0.00    +0.000 A 
ATOM     11  C   UNL     1       1.767   3.565  20.375  0.00  0.00    +0.000 A 
ATOM     12  C   UNL     1       1.360   4.481  19.322  0.00  0.00    +0.000 A 
ATOM     13  C   UNL     1       2.282   4.958  18.469  0.00  0.00    +0.000 A 
ATOM     14  N   UNL     1       3.621   4.587  18.630  0.00  0.00    +0.000 N 
ATOM     15  C   UNL     1       4.762   4.965  17.947  0.00  0.00    +0.000 A 
ATOM     16  H   UNL     1       8.581   6.243  18.554  0.00  0.00    +0.000 HD
ENDROOT
BRANCH   1  20
ATOM     17  C   UNL     1       6.521   4.184  13.284  0.00  0.00    +0.000 A 
ATOM     18  N   UNL     1       7.204   5.180  13.867  0.00  0.00    +0.000 NA
ATOM     19  C   UNL     1       6.643   5.733  14.965  0.00  0.00    +0.000 A 
ATOM     20  C   UNL     1       5.435   5.342  15.514  0.00  0.00    +0.000 A 
ATOM     21  C   UNL     1       4.834   4.300  14.825  0.00  0.00    +0.000 A 
ATOM     22  N   UNL     1       5.346   3.713  13.723  0.00  0.00    +0.000 NA
BRANCH  17  23
ATOM     23  S   UNL     1       7.181   3.462  11.809  0.00  0.00    +0.000 S 
BRANCH  23  24
ATOM     24  C   UNL     1       5.948   2.148  11.550  0.00  0.00    +0.000 C 
BRANCH  24  26
ATOM     25  C   UNL     1       6.060  -0.370  11.342  0.00  0.00    +0.000 C 
ATOM     26  C   UNL     1       6.628   0.960  10.868  0.00  0.00    +0.000 C 
ENDBRANCH  24  26
ENDBRANCH  23  24
ENDBRANCH  17  23
ENDBRANCH   1  20
TORSDOF 4
ENDMDL
MODEL 3
REMARK VINA RESULT:      -7.9      1.940      2.905
REMARK  Name = 
REMARK  5 active torsions:
REMARK  status: ('A' for Active; 'I' for Inactive)
REMARK    1  A    between atoms: C_1  and  C_2
REMARK    2  A    between atoms: C_2  and  C_3
REMARK    3  A    between atoms: C_3  and  S_4
REMARK    4  A    between atoms: S_4  and  C_5
REMARK    5  A    between atoms: C_8  and  C_9
REMARK                            x       y       z     vdW  Elec       q    Type
REMARK                         _______ _______ _______ _____ _____    ______ ____
ROOT
ATOM      1  C   UNL     1       4.144   4.446  16.832  0.00  0.00    +0.000 C 
ATOM      2  C   UNL     1       4.445   3.291  17.798  0.00  0.00    +0.000 C 
ATOM      3  C   UNL     1       5.313   3.603  19.005  0.00  0.00    +0.000 C 
ATOM      4  O   UNL     1       4.958   3.236  20.128  0.00  0.00    +0.000 OA
ATOM      5  N   UNL     1       6.558   4.139  18.875  0.00  0.00    +0.000 N 
ATOM      6  C   UNL     1       6.955   5.276  18.053  0.00  0.00    +0.000 C 
ATOM      7  C   UNL     1       6.634   5.082  16.622  0.00  0.00    +0.000 A 
ATOM      8  N   UNL     1       7.586   5.224  15.648  0.00  0.00    +0.000 NA
ATOM      9  C   UNL     1       7.000   4.855  14.531  0.00  0.00    +0.000 A 
ATOM     10  C   UNL     1       7.527   4.712  13.219  0.00  0.00    +0.000 A 
ATOM     11  C   UNL     1       6.759   4.194  12.242  0.00  0.00    +0.000 A 
ATOM     12  C   UNL     1       5.383   3.799  12.497  0.00  0.00    +0.000 A 
ATOM     13  C   UNL     1       4.863   3.972  13.724  0.00  0.00    +0.000 A 
ATOM     14  N   UNL     1       5.665   4.501  14.739  0.00  0.00    +0.000 N 
ATOM     15  C   UNL     1       5.411   4.728  16.080  0.00  0.00    +0.000 A 
ATOM     16  H   UNL     1       7.005   4.152  19.782  0.00  0.00    +0.000 HD
ENDROOT
BRANCH   1  20
ATOM     17  C   UNL     1       2.200   7.827  18.539  0.00  0.00    +0.000 A 
ATOM     18  N   UNL     1       3.154   8.053  17.624  0.00  0.00    +0.000 NA
ATOM     19  C   UNL     1       3.773   6.963  17.118  0.00  0.00    +0.000 A 
ATOM     20  C   UNL     1       3.489   5.658  17.478  0.00  0.00    +0.000 A 
ATOM     21  C   UNL     1       2.480   5.560  18.424  0.00  0.00    +0.000 A 
ATOM     22  N   UNL     1       1.830   6.612  18.965  0.00  0.00    +0.000 NA
BRANCH  17  23
ATOM     23  S   UNL     1       1.396   9.222  19.277  0.00  0.00    +0.000 S 
BRANCH  23  24
ATOM     24  C   UNL     1       1.186   8.576  20.967  0.00  0.00    +0.000 C 
BRANCH  24  26
ATOM     25  C   UNL     1      -0.051   9.442  22.995  0.00  0.00    +0.000 C 
ATOM     26  C   UNL     1      -0.149   9.070  21.522  0.00  0.00    +0.000 C 
ENDBRANCH  24  26
ENDBRANCH  23  24
ENDBRANCH  17  23
ENDBRANCH   1  20
TORSDOF 4
ENDMDL
MODEL 4
REMARK VINA RESULT:      -7.8      2.369      3.427
REMARK  Name = 
REMARK  5 active torsions:
REMARK  status: ('A' for Active; 'I' for Inactive)
REMARK    1  A    between atoms: C_1  and  C_2
REMARK    2  A    between atoms: C_2  and  C_3
REMARK    3  A    between atoms: C_3  and  S_4
REMARK    4  A    between atoms: S_4  and  C_5
REMARK    5  A    between atoms: C_8  and  C_9
REMARK                            x       y       z     vdW  Elec       q    Type
REMARK                         _______ _______ _______ _____ _____    ______ ____
ROOT
ATOM      1  C   UNL     1       4.173   4.415  16.795  0.00  0.00    +0.000 C 
ATOM      2  C   UNL     1       4.517   3.286  17.775  0.00  0.00    +0.000 C 
ATOM      3  C   UNL     1       5.363   3.648  18.984  0.00  0.00    +0.000 C 
ATOM      4  O   UNL     1       5.017   3.278  20.109  0.00  0.00    +0.000 OA
ATOM      5  N   UNL     1       6.584   4.236  18.855  0.00  0.00    +0.000 N 
ATOM      6  C   UNL     1       6.937   5.381  18.023  0.00  0.00    +0.000 C 
ATOM      7  C   UNL     1       6.635   5.157  16.593  0.00  0.00    +0.000 A 
ATOM      8  N   UNL     1       7.586   5.330  15.623  0.00  0.00    +0.000 NA
ATOM      9  C   UNL     1       7.024   4.923  14.507  0.00  0.00    +0.000 A 
ATOM     10  C   UNL     1       7.566   4.789  13.200  0.00  0.00    +0.000 A 
ATOM     11  C   UNL     1       6.827   4.227  12.224  0.00  0.00    +0.000 A 
ATOM     12  C   UNL     1       5.468   3.776  12.474  0.00  0.00    +0.000 A 
ATOM     13  C   UNL     1       4.933   3.939  13.696  0.00  0.00    +0.000 A 
ATOM     14  N   UNL     1       5.704   4.514  14.710  0.00  0.00    +0.000 N 
ATOM     15  C   UNL     1       5.432   4.745  16.047  0.00  0.00    +0.000 A 
ATOM     16  H   UNL     1       7.024   4.278  19.766  0.00  0.00    +0.000 HD
ENDROOT
BRANCH   1  20
ATOM     17  C   UNL     1       2.296   7.758  18.646  0.00  0.00    +0.000 A 
ATOM     18  N   UNL     1       1.936   6.534  19.059  0.00  0.00    +0.000 NA
ATOM     19  C   UNL     1       2.527   5.491  18.436  0.00  0.00    +0.000 A 
ATOM     20  C   UNL     1       3.462   5.605  17.422  0.00  0.00    +0.000 A 
ATOM     21  C   UNL     1       3.753   6.920  17.095  0.00  0.00    +0.000 A 
ATOM     22  N   UNL     1       3.192   7.999  17.680  0.00  0.00    +0.000 NA
BRANCH  17  23
ATOM     23  S   UNL     1       1.510   9.160  19.388  0.00  0.00    +0.000 S 
BRANCH  23  24
ATOM     24  C   UNL     1       0.554   9.750  17.955  0.00  0.00    +0.000 C 
BRANCH  24  26
ATOM     25  C   UNL     1      -1.904  10.049  17.442  0.00  0.00    +0.000 C 
ATOM     26  C   UNL     1      -0.787  10.296  18.446  0.00  0.00    +0.000 C 
ENDBRANCH  24  26
ENDBRANCH  23  24
ENDBRANCH  17  23
ENDBRANCH   1  20
TORSDOF 4
ENDMDL
MODEL 5
REMARK VINA RESULT:      -7.6      1.090      1.559
REMARK  Name = 
REMARK  5 active torsions:
REMARK  status: ('A' for Active; 'I' for Inactive)
REMARK    1  A    between atoms: C_1  and  C_2
REMARK    2  A    between atoms: C_2  and  C_3
REMARK    3  A    between atoms: C_3  and  S_4
REMARK    4  A    between atoms: S_4  and  C_5
REMARK    5  A    between atoms: C_8  and  C_9
REMARK                            x       y       z     vdW  Elec       q    Type
REMARK                         _______ _______ _______ _____ _____    ______ ____
ROOT
ATOM      1  C   UNL     1       2.646   5.285  17.860  0.00  0.00    +0.000 C 
ATOM      2  C   UNL     1       1.837   3.981  17.881  0.00  0.00    +0.000 C 
ATOM      3  C   UNL     1       1.719   3.257  19.211  0.00  0.00    +0.000 C 
ATOM      4  O   UNL     1       0.615   2.873  19.606  0.00  0.00    +0.000 OA
ATOM      5  N   UNL     1       2.817   2.870  19.917  0.00  0.00    +0.000 N 
ATOM      6  C   UNL     1       3.996   3.668  20.236  0.00  0.00    +0.000 C 
ATOM      7  C   UNL     1       4.669   4.193  19.028  0.00  0.00    +0.000 A 
ATOM      8  N   UNL     1       6.005   3.988  18.805  0.00  0.00    +0.000 NA
ATOM      9  C   UNL     1       6.234   4.462  17.601  0.00  0.00    +0.000 A 
ATOM     10  C   UNL     1       7.417   4.439  16.813  0.00  0.00    +0.000 A 
ATOM     11  C   UNL     1       7.382   4.883  15.542  0.00  0.00    +0.000 A 
ATOM     12  C   UNL     1       6.159   5.412  14.963  0.00  0.00    +0.000 A 
ATOM     13  C   UNL     1       5.047   5.478  15.715  0.00  0.00    +0.000 A 
ATOM     14  N   UNL     1       5.082   5.009  17.032  0.00  0.00    +0.000 N 
ATOM     15  C   UNL     1       4.092   4.905  17.992  0.00  0.00    +0.000 A 
ATOM     16  H   UNL     1       2.519   2.304  20.701  0.00  0.00    +0.000 HD
ENDROOT
BRANCH   1  20
ATOM     17  C   UNL     1       1.437   8.280  20.634  0.00  0.00    +0.000 A 
ATOM     18  N   UNL     1       1.417   7.005  21.047  0.00  0.00    +0.000 NA
ATOM     19  C   UNL     1       1.780   6.072  20.138  0.00  0.00    +0.000 A 
ATOM     20  C   UNL     1       2.163   6.347  18.838  0.00  0.00    +0.000 A 
ATOM     21  C   UNL     1       2.150   7.701  18.540  0.00  0.00    +0.000 A 
ATOM     22  N   UNL     1       1.795   8.674  19.405  0.00  0.00    +0.000 NA
BRANCH  17  23
ATOM     23  S   UNL     1       0.916   9.538  21.767  0.00  0.00    +0.000 S 
BRANCH  23  24
ATOM     24  C   UNL     1       0.649  10.899  20.587  0.00  0.00    +0.000 C 
BRANCH  24  26
ATOM     25  C   UNL     1      -1.041  10.852  18.707  0.00  0.00    +0.000 C 
ATOM     26  C   UNL     1      -0.832  10.944  20.211  0.00  0.00    +0.000 C 
ENDBRANCH  24  26
ENDBRANCH  23  24
ENDBRANCH  17  23
ENDBRANCH   1  20
TORSDOF 4
ENDMDL
MODEL 6
REMARK VINA RESULT:      -7.6      1.090      1.291
REMARK  Name = 
REMARK  5 active torsions:
REMARK  status: ('A' for Active; 'I' for Inactive)
REMARK    1  A    between atoms: C_1  and  C_2
REMARK    2  A    between atoms: C_2  and  C_3
REMARK    3  A    between atoms: C_3  and  S_4
REMARK    4  A    between atoms: S_4  and  C_5
REMARK    5  A    between atoms: C_8  and  C_9
REMARK                            x       y       z     vdW  Elec       q    Type
REMARK                         _______ _______ _______ _____ _____    ______ ____
ROOT
ATOM      1  C   UNL     1       2.664   5.648  17.841  0.00  0.00    +0.000 C 
ATOM      2  C   UNL     1       1.795   4.393  17.993  0.00  0.00    +0.000 C 
ATOM      3  C   UNL     1       1.651   3.812  19.390  0.00  0.00    +0.000 C 
ATOM      4  O   UNL     1       0.532   3.522  19.822  0.00  0.00    +0.000 OA
ATOM      5  N   UNL     1       2.733   3.447  20.131  0.00  0.00    +0.000 N 
ATOM      6  C   UNL     1       3.949   4.216  20.366  0.00  0.00    +0.000 C 
ATOM      7  C   UNL     1       4.640   4.585  19.112  0.00  0.00    +0.000 A 
ATOM      8  N   UNL     1       5.964   4.296  18.910  0.00  0.00    +0.000 NA
ATOM      9  C   UNL     1       6.208   4.636  17.664  0.00  0.00    +0.000 A 
ATOM     10  C   UNL     1       7.385   4.478  16.882  0.00  0.00    +0.000 A 
ATOM     11  C   UNL     1       7.365   4.792  15.573  0.00  0.00    +0.000 A 
ATOM     12  C   UNL     1       6.164   5.318  14.944  0.00  0.00    +0.000 A 
ATOM     13  C   UNL     1       5.061   5.512  15.687  0.00  0.00    +0.000 A 
ATOM     14  N   UNL     1       5.080   5.176  17.043  0.00  0.00    +0.000 N 
ATOM     15  C   UNL     1       4.092   5.216  18.009  0.00  0.00    +0.000 A 
ATOM     16  H   UNL     1       2.413   2.977  20.968  0.00  0.00    +0.000 HD
ENDROOT
BRANCH   1  20
ATOM     17  C   UNL     1       1.326   8.898  20.244  0.00  0.00    +0.000 A 
ATOM     18  N   UNL     1       1.568   9.140  18.948  0.00  0.00    +0.000 NA
ATOM     19  C   UNL     1       2.017   8.098  18.214  0.00  0.00    +0.000 A 
ATOM     20  C   UNL     1       2.237   6.824  18.707  0.00  0.00    +0.000 A 
ATOM     21  C   UNL     1       1.941   6.703  20.056  0.00  0.00    +0.000 A 
ATOM     22  N   UNL     1       1.493   7.709  20.837  0.00  0.00    +0.000 NA
BRANCH  17  23
ATOM     23  S   UNL     1       0.791  10.242  21.265  0.00  0.00    +0.000 S 
BRANCH  23  24
ATOM     24  C   UNL     1       0.284  11.411  19.964  0.00  0.00    +0.000 C 
BRANCH  24  26
ATOM     25  C   UNL     1      -1.693  10.724  18.544  0.00  0.00    +0.000 C 
ATOM     26  C   UNL     1      -1.240  11.382  19.840  0.00  0.00    +0.000 C 
ENDBRANCH  24  26
ENDBRANCH  23  24
ENDBRANCH  17  23
ENDBRANCH   1  20
TORSDOF 4
ENDMDL
MODEL 7
REMARK VINA RESULT:      -7.6      4.544      7.749
REMARK  Name = 
REMARK  5 active torsions:
REMARK  status: ('A' for Active; 'I' for Inactive)
REMARK    1  A    between atoms: C_1  and  C_2
REMARK    2  A    between atoms: C_2  and  C_3
REMARK    3  A    between atoms: C_3  and  S_4
REMARK    4  A    between atoms: S_4  and  C_5
REMARK    5  A    between atoms: C_8  and  C_9
REMARK                            x       y       z     vdW  Elec       q    Type
REMARK                         _______ _______ _______ _____ _____    ______ ____
ROOT
ATOM      1  C   UNL     1       4.531   5.704  17.082  0.00  0.00    +0.000 C 
ATOM      2  C   UNL     1       5.220   6.986  17.571  0.00  0.00    +0.000 C 
ATOM      3  C   UNL     1       6.720   6.921  17.809  0.00  0.00    +0.000 C 
ATOM      4  O   UNL     1       7.453   7.797  17.345  0.00  0.00    +0.000 OA
ATOM      5  N   UNL     1       7.272   6.011  18.658  0.00  0.00    +0.000 N 
ATOM      6  C   UNL     1       7.005   4.579  18.724  0.00  0.00    +0.000 C 
ATOM      7  C   UNL     1       5.576   4.279  18.961  0.00  0.00    +0.000 A 
ATOM      8  N   UNL     1       5.174   3.466  19.986  0.00  0.00    +0.000 NA
ATOM      9  C   UNL     1       3.861   3.526  19.985  0.00  0.00    +0.000 A 
ATOM     10  C   UNL     1       2.914   2.958  20.880  0.00  0.00    +0.000 A 
ATOM     11  C   UNL     1       1.608   3.260  20.750  0.00  0.00    +0.000 A 
ATOM     12  C   UNL     1       1.140   4.140  19.691  0.00  0.00    +0.000 A 
ATOM     13  C   UNL     1       2.025   4.645  18.815  0.00  0.00    +0.000 A 
ATOM     14  N   UNL     1       3.381   4.339  18.956  0.00  0.00    +0.000 N 
ATOM     15  C   UNL     1       4.492   4.757  18.246  0.00  0.00    +0.000 A 
ATOM     16  H   UNL     1       8.257   6.219  18.763  0.00  0.00    +0.000 HD
ENDROOT
BRANCH   1  20
ATOM     17  C   UNL     1       6.263   4.071  13.553  0.00  0.00    +0.000 A 
ATOM     18  N   UNL     1       6.238   5.406  13.674  0.00  0.00    +0.000 NA
ATOM     19  C   UNL     1       5.658   5.899  14.791  0.00  0.00    +0.000 A 
ATOM     20  C   UNL     1       5.103   5.127  15.796  0.00  0.00    +0.000 A 
ATOM     21  C   UNL     1       5.201   3.765  15.555  0.00  0.00    +0.000 A 
ATOM     22  N   UNL     1       5.765   3.218  14.458  0.00  0.00    +0.000 NA
BRANCH  17  23
ATOM     23  S   UNL     1       6.958   3.374  12.081  0.00  0.00    +0.000 S 
BRANCH  23  24
ATOM     24  C   UNL     1       5.500   2.472  11.469  0.00  0.00    +0.000 C 
BRANCH  24  26
ATOM     25  C   UNL     1       3.314   3.118  10.374  0.00  0.00    +0.000 C 
ATOM     26  C   UNL     1       4.290   3.406  11.506  0.00  0.00    +0.000 C 
ENDBRANCH  24  26
ENDBRANCH  23  24
ENDBRANCH  17  23
ENDBRANCH   1  20
TORSDOF 4
ENDMDL
MODEL 8
REMARK VINA RESULT:      -7.6      2.492      3.535
REMARK  Name = 
REMARK  5 active torsions:
REMARK  status: ('A' for Active; 'I' for Inactive)
REMARK    1  A    between atoms: C_1  and  C_2
REMARK    2  A    between atoms: C_2  and  C_3
REMARK    3  A    between atoms: C_3  and  S_4
REMARK    4  A    between atoms: S_4  and  C_5
REMARK    5  A    between atoms: C_8  and  C_9
REMARK                            x       y       z     vdW  Elec       q    Type
REMARK                         _______ _______ _______ _____ _____    ______ ____
ROOT
ATOM      1  C   UNL     1       4.191   4.402  16.762  0.00  0.00    +0.000 C 
ATOM      2  C   UNL     1       4.552   3.290  17.756  0.00  0.00    +0.000 C 
ATOM      3  C   UNL     1       5.395   3.680  18.959  0.00  0.00    +0.000 C 
ATOM      4  O   UNL     1       5.056   3.320  20.089  0.00  0.00    +0.000 OA
ATOM      5  N   UNL     1       6.608   4.282  18.820  0.00  0.00    +0.000 N 
ATOM      6  C   UNL     1       6.944   5.420  17.972  0.00  0.00    +0.000 C 
ATOM      7  C   UNL     1       6.642   5.174  16.545  0.00  0.00    +0.000 A 
ATOM      8  N   UNL     1       7.590   5.347  15.571  0.00  0.00    +0.000 NA
ATOM      9  C   UNL     1       7.031   4.918  14.462  0.00  0.00    +0.000 A 
ATOM     10  C   UNL     1       7.572   4.774  13.156  0.00  0.00    +0.000 A 
ATOM     11  C   UNL     1       6.840   4.190  12.189  0.00  0.00    +0.000 A 
ATOM     12  C   UNL     1       5.487   3.724  12.448  0.00  0.00    +0.000 A 
ATOM     13  C   UNL     1       4.952   3.896  13.668  0.00  0.00    +0.000 A 
ATOM     14  N   UNL     1       5.717   4.494  14.674  0.00  0.00    +0.000 N 
ATOM     15  C   UNL     1       5.444   4.739  16.007  0.00  0.00    +0.000 A 
ATOM     16  H   UNL     1       7.049   4.342  19.729  0.00  0.00    +0.000 HD
ENDROOT
BRANCH   1  20
ATOM     17  C   UNL     1       2.270   7.740  18.576  0.00  0.00    +0.000 A 
ATOM     18  N   UNL     1       1.897   6.515  18.974  0.00  0.00    +0.000 NA
ATOM     19  C   UNL     1       2.503   5.473  18.362  0.00  0.00    +0.000 A 
ATOM     20  C   UNL     1       3.465   5.590  17.375  0.00  0.00    +0.000 A 
ATOM     21  C   UNL     1       3.768   6.906  17.062  0.00  0.00    +0.000 A 
ATOM     22  N   UNL     1       3.193   7.984  17.636  0.00  0.00    +0.000 NA
BRANCH  17  23
ATOM     23  S   UNL     1       1.466   9.140  19.303  0.00  0.00    +0.000 S 
BRANCH  23  24
ATOM     24  C   UNL     1       1.998  10.424  18.127  0.00  0.00    +0.000 C 
BRANCH  24  26
ATOM     25  C   UNL     1       2.517  12.899  18.108  0.00  0.00    +0.000 C 
ATOM     26  C   UNL     1       1.652  11.797  18.704  0.00  0.00    +0.000 C 
ENDBRANCH  24  26
ENDBRANCH  23  24
ENDBRANCH  17  23
ENDBRANCH   1  20
TORSDOF 4
ENDMDL
MODEL 9
REMARK VINA RESULT:      -7.5      1.687      2.513
REMARK  Name = 
REMARK  5 active torsions:
REMARK  status: ('A' for Active; 'I' for Inactive)
REMARK    1  A    between atoms: C_1  and  C_2
REMARK    2  A    between atoms: C_2  and  C_3
REMARK    3  A    between atoms: C_3  and  S_4
REMARK    4  A    between atoms: S_4  and  C_5
REMARK    5  A    between atoms: C_8  and  C_9
REMARK                            x       y       z     vdW  Elec       q    Type
REMARK                         _______ _______ _______ _____ _____    ______ ____
ROOT
ATOM      1  C   UNL     1       3.806   4.372  17.141  0.00  0.00    +0.000 C 
ATOM      2  C   UNL     1       3.907   3.110  18.009  0.00  0.00    +0.000 C 
ATOM      3  C   UNL     1       4.641   3.234  19.334  0.00  0.00    +0.000 C 
ATOM      4  O   UNL     1       4.126   2.790  20.364  0.00  0.00    +0.000 OA
ATOM      5  N   UNL     1       5.926   3.677  19.403  0.00  0.00    +0.000 N 
ATOM      6  C   UNL     1       6.498   4.852  18.755  0.00  0.00    +0.000 C 
ATOM      7  C   UNL     1       6.341   4.821  17.285  0.00  0.00    +0.000 A 
ATOM      8  N   UNL     1       7.413   4.979  16.446  0.00  0.00    +0.000 NA
ATOM      9  C   UNL     1       6.943   4.767  15.237  0.00  0.00    +0.000 A 
ATOM     10  C   UNL     1       7.616   4.707  13.986  0.00  0.00    +0.000 A 
ATOM     11  C   UNL     1       6.938   4.349  12.879  0.00  0.00    +0.000 A 
ATOM     12  C   UNL     1       5.518   4.044  12.932  0.00  0.00    +0.000 A 
ATOM     13  C   UNL     1       4.865   4.141  14.103  0.00  0.00    +0.000 A 
ATOM     14  N   UNL     1       5.571   4.504  15.253  0.00  0.00    +0.000 N 
ATOM     15  C   UNL     1       5.172   4.622  16.572  0.00  0.00    +0.000 A 
ATOM     16  H   UNL     1       6.259   3.567  20.352  0.00  0.00    +0.000 HD
ENDROOT
BRANCH   1  20
ATOM     17  C   UNL     1       2.132   7.734  19.146  0.00  0.00    +0.000 A 
ATOM     18  N   UNL     1       1.877   6.517  19.650  0.00  0.00    +0.000 NA
ATOM     19  C   UNL     1       2.398   5.466  18.978  0.00  0.00    +0.000 A 
ATOM     20  C   UNL     1       3.163   5.566  17.830  0.00  0.00    +0.000 A 
ATOM     21  C   UNL     1       3.361   6.875  17.418  0.00  0.00    +0.000 A 
ATOM     22  N   UNL     1       2.862   7.961  18.046  0.00  0.00    +0.000 NA
BRANCH  17  23
ATOM     23  S   UNL     1       1.425   9.142  19.952  0.00  0.00    +0.000 S 
BRANCH  23  24
ATOM     24  C   UNL     1       0.741   8.321  21.426  0.00  0.00    +0.000 C 
BRANCH  24  26
ATOM     25  C   UNL     1      -0.390  10.429  22.244  0.00  0.00    +0.000 C 
ATOM     26  C   UNL     1       0.631   9.344  22.556  0.00  0.00    +0.000 C 
ENDBRANCH  24  26
ENDBRANCH  23  24
ENDBRANCH  17  23
ENDBRANCH   1  20
TORSDOF 4
ENDMDL
