MODEL 1
REMARK VINA RESULT:      -7.2      0.000      0.000
REMARK  Name = 
REMARK  4 active torsions:
REMARK  status: ('A' for Active; 'I' for Inactive)
REMARK    1  A    between atoms: C_1  and  C_2
REMARK    2  A    between atoms: C_2  and  O_3
REMARK    3  A    between atoms: O_3  and  C_4
REMARK    4  A    between atoms: C_10  and  C_12
REMARK                            x       y       z     vdW  Elec       q    Type
REMARK                         _______ _______ _______ _____ _____    ______ ____
ROOT
ATOM      1  C   UNL     1       6.696   4.333  13.697  0.00  0.00    +0.000 C 
ATOM      2  O   UNL     1       7.836   4.476  13.276  0.00  0.00    +0.000 OA
ATOM      3  N   UNL     1       6.377   4.250  15.035  0.00  0.00    +0.000 N 
ATOM      4  C   UNL     1       7.425   4.424  16.044  0.00  0.00    +0.000 C 
ATOM      5  C   UNL     1       7.060   5.528  17.050  0.00  0.00    +0.000 C 
ATOM      6  N   UNL     1       5.703   5.341  17.578  0.00  0.00    +0.000 N 
ATOM      7  C   UNL     1       5.493   5.466  18.958  0.00  0.00    +0.000 C 
ATOM      8  O   UNL     1       6.426   5.775  19.709  0.00  0.00    +0.000 OA
ATOM      9  C   UNL     1       4.676   5.248  16.526  0.00  0.00    +0.000 C 
ATOM     10  C   UNL     1       5.012   4.109  15.550  0.00  0.00    +0.000 C 
ENDROOT
BRANCH   7  11
ATOM     11  C   UNL     1       4.160   5.201  19.510  0.00  0.00    +0.000 A 
ATOM     12  C   UNL     1       3.277   6.204  19.868  0.00  0.00    +0.000 A 
ATOM     13  S   UNL     1       1.820   5.631  20.525  0.00  0.00    +0.000 S 
ATOM     14  C   UNL     1       2.248   4.008  20.201  0.00  0.00    +0.000 A 
ATOM     15  C   UNL     1       3.523   3.892  19.662  0.00  0.00    +0.000 A 
ATOM     16  C   UNL     1       4.165   2.567  19.338  0.00  0.00    +0.000 C 
ATOM     17  C   UNL     1       3.363   1.600  18.460  0.00  0.00    +0.000 C 
ATOM     18  C   UNL     1       1.883   1.896  18.235  0.00  0.00    +0.000 C 
ATOM     19  C   UNL     1       1.047   1.841  19.507  0.00  0.00    +0.000 C 
ATOM     20  C   UNL     1       1.268   2.932  20.558  0.00  0.00    +0.000 C 
ENDBRANCH   7  11
BRANCH   1  21
ATOM     21  O   UNL     1       5.591   4.335  12.906  0.00  0.00    +0.000 OA
BRANCH  21  23
ATOM     22  C   UNL     1       4.096   3.216  11.419  0.00  0.00    +0.000 C 
ATOM     23  C   UNL     1       5.500   3.226  12.001  0.00  0.00    +0.000 C 
ENDBRANCH  21  23
ENDBRANCH   1  21
TORSDOF 3
ENDMDL
MODEL 2
REMARK VINA RESULT:      -5.9      5.151      8.143
REMARK  Name = 
REMARK  4 active torsions:
REMARK  status: ('A' for Active; 'I' for Inactive)
REMARK    1  A    between atoms: C_1  and  C_2
REMARK    2  A    between atoms: C_2  and  O_3
REMARK    3  A    between atoms: O_3  and  C_4
REMARK    4  A    between atoms: C_10  and  C_12
REMARK                            x       y       z     vdW  Elec       q    Type
REMARK                         _______ _______ _______ _____ _____    ______ ____
ROOT
ATOM      1  C   UNL     1      -0.866  11.484  20.646  0.00  0.00    +0.000 C 
ATOM      2  O   UNL     1      -0.986  12.526  20.016  0.00  0.00    +0.000 OA
ATOM      3  N   UNL     1      -0.370  10.315  20.111  0.00  0.00    +0.000 N 
ATOM      4  C   UNL     1       0.131  10.302  18.735  0.00  0.00    +0.000 C 
ATOM      5  C   UNL     1       1.573   9.771  18.666  0.00  0.00    +0.000 C 
ATOM      6  N   UNL     1       1.711   8.506  19.398  0.00  0.00    +0.000 N 
ATOM      7  C   UNL     1       2.405   7.449  18.794  0.00  0.00    +0.000 C 
ATOM      8  O   UNL     1       2.932   7.598  17.684  0.00  0.00    +0.000 OA
ATOM      9  C   UNL     1       1.264   8.593  20.799  0.00  0.00    +0.000 C 
ATOM     10  C   UNL     1      -0.195   9.071  20.866  0.00  0.00    +0.000 C 
ENDROOT
BRANCH   7  11
ATOM     11  C   UNL     1       2.481   6.154  19.478  0.00  0.00    +0.000 A 
ATOM     12  C   UNL     1       1.748   5.854  20.611  0.00  0.00    +0.000 A 
ATOM     13  S   UNL     1       2.054   4.303  21.233  0.00  0.00    +0.000 S 
ATOM     14  C   UNL     1       3.061   3.911  19.910  0.00  0.00    +0.000 A 
ATOM     15  C   UNL     1       3.226   4.975  19.032  0.00  0.00    +0.000 A 
ATOM     16  C   UNL     1       4.111   4.912  17.814  0.00  0.00    +0.000 C 
ATOM     17  C   UNL     1       3.887   3.742  16.850  0.00  0.00    +0.000 C 
ATOM     18  C   UNL     1       3.025   2.576  17.326  0.00  0.00    +0.000 C 
ATOM     19  C   UNL     1       3.614   1.822  18.512  0.00  0.00    +0.000 C 
ATOM     20  C   UNL     1       3.668   2.541  19.863  0.00  0.00    +0.000 C 
ENDBRANCH   7  11
BRANCH   1  21
ATOM     21  O   UNL     1      -1.114  11.372  21.977  0.00  0.00    +0.000 OA
BRANCH  21  23
ATOM     22  C   UNL     1      -2.813  12.215  23.429  0.00  0.00    +0.000 C 
ATOM     23  C   UNL     1      -1.589  12.573  22.601  0.00  0.00    +0.000 C 
ENDBRANCH  21  23
ENDBRANCH   1  21
TORSDOF 3
ENDMDL
MODEL 3
REMARK VINA RESULT:      -5.8     10.569     12.957
REMARK  Name = 
REMARK  4 active torsions:
REMARK  status: ('A' for Active; 'I' for Inactive)
REMARK    1  A    between atoms: C_1  and  C_2
REMARK    2  A    between atoms: C_2  and  O_3
REMARK    3  A    between atoms: O_3  and  C_4
REMARK    4  A    between atoms: C_10  and  C_12
REMARK                            x       y       z     vdW  Elec       q    Type
REMARK                         _______ _______ _______ _____ _____    ______ ____
ROOT
ATOM      1  C   UNL     1       5.611  12.866  26.281  0.00  0.00    +0.000 C 
ATOM      2  O   UNL     1       5.758  13.246  27.435  0.00  0.00    +0.000 OA
ATOM      3  N   UNL     1       6.202  13.471  25.194  0.00  0.00    +0.000 N 
ATOM      4  C   UNL     1       7.131  14.584  25.397  0.00  0.00    +0.000 C 
ATOM      5  C   UNL     1       8.488  14.315  24.723  0.00  0.00    +0.000 C 
ATOM      6  N   UNL     1       8.314  13.888  23.329  0.00  0.00    +0.000 N 
ATOM      7  C   UNL     1       9.119  14.468  22.340  0.00  0.00    +0.000 C 
ATOM      8  O   UNL     1       9.992  15.291  22.644  0.00  0.00    +0.000 OA
ATOM      9  C   UNL     1       7.430  12.718  23.184  0.00  0.00    +0.000 C 
ATOM     10  C   UNL     1       6.056  13.005  23.811  0.00  0.00    +0.000 C 
ENDROOT
BRANCH   7  11
ATOM     11  C   UNL     1       8.902  14.111  20.934  0.00  0.00    +0.000 A 
ATOM     12  C   UNL     1       8.098  14.848  20.083  0.00  0.00    +0.000 A 
ATOM     13  S   UNL     1       7.976  14.195  18.520  0.00  0.00    +0.000 S 
ATOM     14  C   UNL     1       9.132  12.987  18.875  0.00  0.00    +0.000 A 
ATOM     15  C   UNL     1       9.557  13.030  20.197  0.00  0.00    +0.000 A 
ATOM     16  C   UNL     1      10.531  12.040  20.783  0.00  0.00    +0.000 C 
ATOM     17  C   UNL     1      11.852  11.833  20.034  0.00  0.00    +0.000 C 
ATOM     18  C   UNL     1      11.966  12.387  18.617  0.00  0.00    +0.000 C 
ATOM     19  C   UNL     1      11.005  11.740  17.626  0.00  0.00    +0.000 C 
ATOM     20  C   UNL     1       9.509  12.027  17.788  0.00  0.00    +0.000 C 
ENDBRANCH   7  11
BRANCH   1  21
ATOM     21  O   UNL     1       4.929  11.743  25.935  0.00  0.00    +0.000 OA
BRANCH  21  23
ATOM     22  C   UNL     1       3.739  10.055  27.132  0.00  0.00    +0.000 C 
ATOM     23  C   UNL     1       5.110  10.633  26.824  0.00  0.00    +0.000 C 
ENDBRANCH  21  23
ENDBRANCH   1  21
TORSDOF 3
ENDMDL
MODEL 4
REMARK VINA RESULT:      -5.7      1.778      2.741
REMARK  Name = 
REMARK  4 active torsions:
REMARK  status: ('A' for Active; 'I' for Inactive)
REMARK    1  A    between atoms: C_1  and  C_2
REMARK    2  A    between atoms: C_2  and  O_3
REMARK    3  A    between atoms: O_3  and  C_4
REMARK    4  A    between atoms: C_10  and  C_12
REMARK                            x       y       z     vdW  Elec       q    Type
REMARK                         _______ _______ _______ _____ _____    ______ ____
ROOT
ATOM      1  C   UNL     1       6.467   3.690  12.460  0.00  0.00    +0.000 C 
ATOM      2  O   UNL     1       7.338   4.155  11.738  0.00  0.00    +0.000 OA
ATOM      3  N   UNL     1       6.432   3.858  13.827  0.00  0.00    +0.000 N 
ATOM      4  C   UNL     1       7.431   4.705  14.481  0.00  0.00    +0.000 C 
ATOM      5  C   UNL     1       6.770   5.801  15.333  0.00  0.00    +0.000 C 
ATOM      6  N   UNL     1       5.744   5.239  16.220  0.00  0.00    +0.000 N 
ATOM      7  C   UNL     1       5.718   5.643  17.562  0.00  0.00    +0.000 C 
ATOM      8  O   UNL     1       6.516   6.493  17.977  0.00  0.00    +0.000 OA
ATOM      9  C   UNL     1       4.720   4.459  15.506  0.00  0.00    +0.000 C 
ATOM     10  C   UNL     1       5.376   3.329  14.696  0.00  0.00    +0.000 C 
ENDROOT
BRANCH   7  11
ATOM     11  C   UNL     1       4.752   5.030  18.479  0.00  0.00    +0.000 A 
ATOM     12  C   UNL     1       5.041   3.917  19.247  0.00  0.00    +0.000 A 
ATOM     13  S   UNL     1       3.735   3.377  20.190  0.00  0.00    +0.000 S 
ATOM     14  C   UNL     1       2.779   4.717  19.730  0.00  0.00    +0.000 A 
ATOM     15  C   UNL     1       3.418   5.536  18.807  0.00  0.00    +0.000 A 
ATOM     16  C   UNL     1       2.773   6.754  18.197  0.00  0.00    +0.000 C 
ATOM     17  C   UNL     1       2.168   7.780  19.162  0.00  0.00    +0.000 C 
ATOM     18  C   UNL     1       1.981   7.369  20.620  0.00  0.00    +0.000 C 
ATOM     19  C   UNL     1       0.995   6.224  20.812  0.00  0.00    +0.000 C 
ATOM     20  C   UNL     1       1.401   4.836  20.308  0.00  0.00    +0.000 C 
ENDBRANCH   7  11
BRANCH   1  21
ATOM     21  O   UNL     1       5.372   3.033  11.996  0.00  0.00    +0.000 OA
BRANCH  21  23
ATOM     22  C   UNL     1       3.317   2.966  10.782  0.00  0.00    +0.000 C 
ATOM     23  C   UNL     1       4.556   3.790  11.092  0.00  0.00    +0.000 C 
ENDBRANCH  21  23
ENDBRANCH   1  21
TORSDOF 3
ENDMDL
MODEL 5
REMARK VINA RESULT:      -5.7     10.617     12.928
REMARK  Name = 
REMARK  4 active torsions:
REMARK  status: ('A' for Active; 'I' for Inactive)
REMARK    1  A    between atoms: C_1  and  C_2
REMARK    2  A    between atoms: C_2  and  O_3
REMARK    3  A    between atoms: O_3  and  C_4
REMARK    4  A    between atoms: C_10  and  C_12
REMARK                            x       y       z     vdW  Elec       q    Type
REMARK                         _______ _______ _______ _____ _____    ______ ____
ROOT
ATOM      1  C   UNL     1       6.028  14.168  24.115  0.00  0.00    +0.000 C 
ATOM      2  O   UNL     1       4.866  14.284  24.480  0.00  0.00    +0.000 OA
ATOM      3  N   UNL     1       6.405  13.990  22.802  0.00  0.00    +0.000 N 
ATOM      4  C   UNL     1       5.393  14.020  21.744  0.00  0.00    +0.000 C 
ATOM      5  C   UNL     1       5.742  15.054  20.660  0.00  0.00    +0.000 C 
ATOM      6  N   UNL     1       7.128  14.896  20.201  0.00  0.00    +0.000 N 
ATOM      7  C   UNL     1       7.388  14.915  18.824  0.00  0.00    +0.000 C 
ATOM      8  O   UNL     1       6.472  15.108  18.014  0.00  0.00    +0.000 OA
ATOM      9  C   UNL     1       8.113  14.949  21.294  0.00  0.00    +0.000 C 
ATOM     10  C   UNL     1       7.796  13.880  22.352  0.00  0.00    +0.000 C 
ENDROOT
BRANCH   7  11
ATOM     11  C   UNL     1       8.754  14.677  18.346  0.00  0.00    +0.000 A 
ATOM     12  C   UNL     1       9.560  15.677  17.832  0.00  0.00    +0.000 A 
ATOM     13  S   UNL     1      11.080  15.129  17.307  0.00  0.00    +0.000 S 
ATOM     14  C   UNL     1      10.779  13.556  17.902  0.00  0.00    +0.000 A 
ATOM     15  C   UNL     1       9.503  13.422  18.433  0.00  0.00    +0.000 A 
ATOM     16  C   UNL     1       8.965  12.122  18.974  0.00  0.00    +0.000 C 
ATOM     17  C   UNL     1       9.818  11.395  20.019  0.00  0.00    +0.000 C 
ATOM     18  C   UNL     1      11.261  11.855  20.211  0.00  0.00    +0.000 C 
ATOM     19  C   UNL     1      12.137  11.654  18.980  0.00  0.00    +0.000 C 
ATOM     20  C   UNL     1      11.856  12.525  17.752  0.00  0.00    +0.000 C 
ENDBRANCH   7  11
BRANCH   1  21
ATOM     21  O   UNL     1       7.098  14.296  24.943  0.00  0.00    +0.000 OA
BRANCH  21  23
ATOM     22  C   UNL     1       7.363  12.084  25.800  0.00  0.00    +0.000 C 
ATOM     23  C   UNL     1       7.020  13.523  26.148  0.00  0.00    +0.000 C 
ENDBRANCH  21  23
ENDBRANCH   1  21
TORSDOF 3
ENDMDL
MODEL 6
REMARK VINA RESULT:      -5.6      4.050      6.959
REMARK  Name = 
REMARK  4 active torsions:
REMARK  status: ('A' for Active; 'I' for Inactive)
REMARK    1  A    between atoms: C_1  and  C_2
REMARK    2  A    between atoms: C_2  and  O_3
REMARK    3  A    between atoms: O_3  and  C_4
REMARK    4  A    between atoms: C_10  and  C_12
REMARK                            x       y       z     vdW  Elec       q    Type
REMARK                         _______ _______ _______ _____ _____    ______ ____
ROOT
ATOM      1  C   UNL     1       0.633  10.038  19.502  0.00  0.00    +0.000 C 
ATOM      2  O   UNL     1       0.202  10.638  20.478  0.00  0.00    +0.000 OA
ATOM      3  N   UNL     1       1.449   8.931  19.583  0.00  0.00    +0.000 N 
ATOM      4  C   UNL     1       1.773   8.359  20.891  0.00  0.00    +0.000 C 
ATOM      5  C   UNL     1       1.418   6.864  20.957  0.00  0.00    +0.000 C 
ATOM      6  N   UNL     1       1.961   6.137  19.802  0.00  0.00    +0.000 N 
ATOM      7  C   UNL     1       2.618   4.919  20.019  0.00  0.00    +0.000 C 
ATOM      8  O   UNL     1       2.697   4.443  21.159  0.00  0.00    +0.000 OA
ATOM      9  C   UNL     1       1.544   6.706  18.509  0.00  0.00    +0.000 C 
ATOM     10  C   UNL     1       1.946   8.187  18.421  0.00  0.00    +0.000 C 
ENDROOT
BRANCH   7  11
ATOM     11  C   UNL     1       3.235   4.222  18.886  0.00  0.00    +0.000 A 
ATOM     12  C   UNL     1       2.718   3.062  18.339  0.00  0.00    +0.000 A 
ATOM     13  S   UNL     1       3.649   2.431  17.067  0.00  0.00    +0.000 S 
ATOM     14  C   UNL     1       4.696   3.781  17.089  0.00  0.00    +0.000 A 
ATOM     15  C   UNL     1       4.387   4.676  18.106  0.00  0.00    +0.000 A 
ATOM     16  C   UNL     1       5.190   5.922  18.381  0.00  0.00    +0.000 C 
ATOM     17  C   UNL     1       5.443   6.864  17.199  0.00  0.00    +0.000 C 
ATOM     18  C   UNL     1       5.148   6.346  15.794  0.00  0.00    +0.000 C 
ATOM     19  C   UNL     1       6.023   5.170  15.377  0.00  0.00    +0.000 C 
ATOM     20  C   UNL     1       5.810   3.830  16.088  0.00  0.00    +0.000 C 
ENDBRANCH   7  11
BRANCH   1  21
ATOM     21  O   UNL     1       0.284  10.326  18.221  0.00  0.00    +0.000 OA
BRANCH  21  23
ATOM     22  C   UNL     1      -1.798   9.871  17.145  0.00  0.00    +0.000 C 
ATOM     23  C   UNL     1      -1.050  10.826  18.061  0.00  0.00    +0.000 C 
ENDBRANCH  21  23
ENDBRANCH   1  21
TORSDOF 3
ENDMDL
MODEL 7
REMARK VINA RESULT:      -5.6      4.759      7.313
REMARK  Name = 
REMARK  4 active torsions:
REMARK  status: ('A' for Active; 'I' for Inactive)
REMARK    1  A    between atoms: C_1  and  C_2
REMARK    2  A    between atoms: C_2  and  O_3
REMARK    3  A    between atoms: O_3  and  C_4
REMARK    4  A    between atoms: C_10  and  C_12
REMARK                            x       y       z     vdW  Elec       q    Type
REMARK                         _______ _______ _______ _____ _____    ______ ____
ROOT
ATOM      1  C   UNL     1       3.670   3.575  19.106  0.00  0.00    +0.000 C 
ATOM      2  O   UNL     1       4.314   3.216  18.129  0.00  0.00    +0.000 OA
ATOM      3  N   UNL     1       3.439   4.894  19.430  0.00  0.00    +0.000 N 
ATOM      4  C   UNL     1       3.904   5.955  18.534  0.00  0.00    +0.000 C 
ATOM      5  C   UNL     1       2.755   6.893  18.128  0.00  0.00    +0.000 C 
ATOM      6  N   UNL     1       1.999   7.348  19.302  0.00  0.00    +0.000 N 
ATOM      7  C   UNL     1       1.676   8.707  19.412  0.00  0.00    +0.000 C 
ATOM      8  O   UNL     1       1.982   9.499  18.512  0.00  0.00    +0.000 OA
ATOM      9  C   UNL     1       1.488   6.242  20.130  0.00  0.00    +0.000 C 
ATOM     10  C   UNL     1       2.643   5.333  20.580  0.00  0.00    +0.000 C 
ENDROOT
BRANCH   7  11
ATOM     11  C   UNL     1       0.993   9.190  20.616  0.00  0.00    +0.000 A 
ATOM     12  C   UNL     1       1.367   8.822  21.896  0.00  0.00    +0.000 A 
ATOM     13  S   UNL     1       0.385   9.483  23.114  0.00  0.00    +0.000 S 
ATOM     14  C   UNL     1      -0.482  10.423  21.980  0.00  0.00    +0.000 A 
ATOM     15  C   UNL     1      -0.079  10.185  20.672  0.00  0.00    +0.000 A 
ATOM     16  C   UNL     1      -0.721  10.842  19.477  0.00  0.00    +0.000 C 
ATOM     17  C   UNL     1      -0.834  12.370  19.498  0.00  0.00    +0.000 C 
ATOM     18  C   UNL     1      -0.584  13.089  20.822  0.00  0.00    +0.000 C 
ATOM     19  C   UNL     1      -1.595  12.742  21.908  0.00  0.00    +0.000 C 
ATOM     20  C   UNL     1      -1.565  11.326  22.489  0.00  0.00    +0.000 C 
ENDBRANCH   7  11
BRANCH   1  21
ATOM     21  O   UNL     1       3.018   2.721  19.938  0.00  0.00    +0.000 OA
BRANCH  21  23
ATOM     22  C   UNL     1       0.795   2.548  19.086  0.00  0.00    +0.000 C 
ATOM     23  C   UNL     1       2.114   1.820  19.285  0.00  0.00    +0.000 C 
ENDBRANCH  21  23
ENDBRANCH   1  21
TORSDOF 3
ENDMDL
MODEL 8
REMARK VINA RESULT:      -5.6      4.240      6.825
REMARK  Name = 
REMARK  4 active torsions:
REMARK  status: ('A' for Active; 'I' for Inactive)
REMARK    1  A    between atoms: C_1  and  C_2
REMARK    2  A    between atoms: C_2  and  O_3
REMARK    3  A    between atoms: O_3  and  C_4
REMARK    4  A    between atoms: C_10  and  C_12
REMARK                            x       y       z     vdW  Elec       q    Type
REMARK                         _______ _______ _______ _____ _____    ______ ____
ROOT
ATOM      1  C   UNL     1       3.550   3.889  19.838  0.00  0.00    +0.000 C 
ATOM      2  O   UNL     1       4.552   3.350  19.386  0.00  0.00    +0.000 OA
ATOM      3  N   UNL     1       3.291   5.238  19.733  0.00  0.00    +0.000 N 
ATOM      4  C   UNL     1       4.202   6.096  18.972  0.00  0.00    +0.000 C 
ATOM      5  C   UNL     1       3.455   6.885  17.884  0.00  0.00    +0.000 C 
ATOM      6  N   UNL     1       2.269   7.556  18.431  0.00  0.00    +0.000 N 
ATOM      7  C   UNL     1       2.033   8.895  18.090  0.00  0.00    +0.000 C 
ATOM      8  O   UNL     1       2.786   9.484  17.305  0.00  0.00    +0.000 OA
ATOM      9  C   UNL     1       1.347   6.637  19.121  0.00  0.00    +0.000 C 
ATOM     10  C   UNL     1       2.080   5.887  20.245  0.00  0.00    +0.000 C 
ENDROOT
BRANCH   7  11
ATOM     11  C   UNL     1       0.899   9.602  18.693  0.00  0.00    +0.000 A 
ATOM     12  C   UNL     1      -0.259   9.904  18.000  0.00  0.00    +0.000 A 
ATOM     13  S   UNL     1      -1.399  10.769  18.914  0.00  0.00    +0.000 S 
ATOM     14  C   UNL     1      -0.453  10.627  20.330  0.00  0.00    +0.000 A 
ATOM     15  C   UNL     1       0.760   9.990  20.098  0.00  0.00    +0.000 A 
ATOM     16  C   UNL     1       1.804   9.787  21.166  0.00  0.00    +0.000 C 
ATOM     17  C   UNL     1       1.347   9.128  22.472  0.00  0.00    +0.000 C 
ATOM     18  C   UNL     1      -0.153   9.008  22.727  0.00  0.00    +0.000 C 
ATOM     19  C   UNL     1      -0.863  10.350  22.855  0.00  0.00    +0.000 C 
ATOM     20  C   UNL     1      -0.985  11.218  21.600  0.00  0.00    +0.000 C 
ENDBRANCH   7  11
BRANCH   1  21
ATOM     21  O   UNL     1       2.522   3.213  20.412  0.00  0.00    +0.000 OA
BRANCH  21  23
ATOM     22  C   UNL     1       0.798   2.630  18.866  0.00  0.00    +0.000 C 
ATOM     23  C   UNL     1       2.009   2.124  19.632  0.00  0.00    +0.000 C 
ENDBRANCH  21  23
ENDBRANCH   1  21
TORSDOF 3
ENDMDL
MODEL 9
REMARK VINA RESULT:      -5.6      5.818      8.087
REMARK  Name = 
REMARK  4 active torsions:
REMARK  status: ('A' for Active; 'I' for Inactive)
REMARK    1  A    between atoms: C_1  and  C_2
REMARK    2  A    between atoms: C_2  and  O_3
REMARK    3  A    between atoms: O_3  and  C_4
REMARK    4  A    between atoms: C_10  and  C_12
REMARK                            x       y       z     vdW  Elec       q    Type
REMARK                         _______ _______ _______ _____ _____    ______ ____
ROOT
ATOM      1  C   UNL     1       4.173   6.251  18.051  0.00  0.00    +0.000 C 
ATOM      2  O   UNL     1       4.639   5.221  18.520  0.00  0.00    +0.000 OA
ATOM      3  N   UNL     1       2.966   6.792  18.436  0.00  0.00    +0.000 N 
ATOM      4  C   UNL     1       2.206   6.173  19.525  0.00  0.00    +0.000 C 
ATOM      5  C   UNL     1       1.879   7.190  20.632  0.00  0.00    +0.000 C 
ATOM      6  N   UNL     1       1.293   8.415  20.073  0.00  0.00    +0.000 N 
ATOM      7  C   UNL     1       0.156   8.959  20.685  0.00  0.00    +0.000 C 
ATOM      8  O   UNL     1      -0.316   8.441  21.705  0.00  0.00    +0.000 OA
ATOM      9  C   UNL     1       2.131   9.040  19.036  0.00  0.00    +0.000 C 
ATOM     10  C   UNL     1       2.415   8.041  17.903  0.00  0.00    +0.000 C 
ENDROOT
BRANCH   7  11
ATOM     11  C   UNL     1      -0.488  10.135  20.091  0.00  0.00    +0.000 A 
ATOM     12  C   UNL     1      -0.917  10.178  18.777  0.00  0.00    +0.000 A 
ATOM     13  S   UNL     1      -1.587  11.672  18.324  0.00  0.00    +0.000 S 
ATOM     14  C   UNL     1      -1.480  12.267  19.923  0.00  0.00    +0.000 A 
ATOM     15  C   UNL     1      -0.871  11.365  20.787  0.00  0.00    +0.000 A 
ATOM     16  C   UNL     1      -0.602  11.665  22.239  0.00  0.00    +0.000 C 
ATOM     17  C   UNL     1      -1.784  12.156  23.081  0.00  0.00    +0.000 C 
ATOM     18  C   UNL     1      -3.049  12.600  22.349  0.00  0.00    +0.000 C 
ATOM     19  C   UNL     1      -2.845  13.818  21.457  0.00  0.00    +0.000 C 
ATOM     20  C   UNL     1      -1.986  13.650  20.200  0.00  0.00    +0.000 C 
ENDBRANCH   7  11
BRANCH   1  21
ATOM     21  O   UNL     1       4.830   7.043  17.165  0.00  0.00    +0.000 OA
BRANCH  21  23
ATOM     22  C   UNL     1       7.181   7.381  17.406  0.00  0.00    +0.000 C 
ATOM     23  C   UNL     1       6.104   6.541  16.741  0.00  0.00    +0.000 C 
ENDBRANCH  21  23
ENDBRANCH   1  21
TORSDOF 3
ENDMDL
