MODEL 1
REMARK VINA RESULT:      -7.8      0.000      0.000
REMARK  Name = 
REMARK  6 active torsions:
REMARK  status: ('A' for Active; 'I' for Inactive)
REMARK    1  A    between atoms: C_1  and  C_2
REMARK    2  A    between atoms: N_4  and  C_5
REMARK    3  A    between atoms: C_5  and  C_6
REMARK    4  A    between atoms: C_13  and  C_14
REMARK    5  A    between atoms: C_14  and  O_15
REMARK    6  A    between atoms: N_18  and  C_19
REMARK                            x       y       z     vdW  Elec       q    Type
REMARK                         _______ _______ _______ _____ _____    ______ ____
ROOT
ATOM      1  C   UNL     1       0.818   7.990  21.415  0.00  0.00    +0.000 C 
ATOM      2  C   UNL     1       1.616   7.865  20.157  0.00  0.00    +0.000 A 
ATOM      3  N   UNL     1       2.440   6.873  19.960  0.00  0.00    +0.000 NA
ATOM      4  N   UNL     1       2.865   7.044  18.666  0.00  0.00    +0.000 N 
ATOM      5  C   UNL     1       2.323   8.214  18.128  0.00  0.00    +0.000 A 
ATOM      6  O   UNL     1       2.634   8.702  17.051  0.00  0.00    +0.000 OA
ATOM      7  N   UNL     1       1.498   8.725  19.116  0.00  0.00    +0.000 N 
ENDROOT
BRANCH   7   8
ATOM      8  C   UNL     1       0.829   9.949  18.998  0.00  0.00    +0.000 A 
ATOM      9  C   UNL     1      -0.505  10.038  18.557  0.00  0.00    +0.000 A 
ATOM     10  C   UNL     1      -1.195  11.264  18.572  0.00  0.00    +0.000 A 
ATOM     11  C   UNL     1      -0.516  12.376  19.010  0.00  0.00    +0.000 A 
ATOM     12  C   UNL     1       0.796  12.305  19.413  0.00  0.00    +0.000 A 
ATOM     13  C   UNL     1       1.484  11.114  19.435  0.00  0.00    +0.000 A 
ATOM     14  O   UNL     1       1.296  13.512  19.799  0.00  0.00    +0.000 OA
ATOM     15  C   UNL     1       0.148  14.351  19.593  0.00  0.00    +0.000 C 
ATOM     16  O   UNL     1      -1.012  13.641  19.110  0.00  0.00    +0.000 OA
ENDBRANCH   7   8
BRANCH   4  17
ATOM     17  C   UNL     1       3.945   6.309  18.058  0.00  0.00    +0.000 C 
BRANCH  17  18
ATOM     18  C   UNL     1       4.238   5.011  18.838  0.00  0.00    +0.000 C 
ATOM     19  O   UNL     1       5.046   5.009  19.771  0.00  0.00    +0.000 OA
ATOM     20  N   UNL     1       3.613   3.832  18.415  0.00  0.00    +0.000 N 
ATOM     21  C   UNL     1       2.736   3.787  17.243  0.00  0.00    +0.000 C 
ATOM     22  C   UNL     1       1.286   3.932  17.694  0.00  0.00    +0.000 C 
ATOM     23  C   UNL     1       0.932   2.809  18.670  0.00  0.00    +0.000 C 
ATOM     24  C   UNL     1       1.927   2.736  19.835  0.00  0.00    +0.000 C 
ATOM     25  C   UNL     1       3.385   2.684  19.339  0.00  0.00    +0.000 C 
BRANCH  25  26
ATOM     26  C   UNL     1       4.331   2.503  20.540  0.00  0.00    +0.000 C 
BRANCH  26  27
ATOM     27  O   UNL     1       5.314   1.510  20.259  0.00  0.00    +0.000 OA
ATOM     28  H   UNL     1       4.793   0.740  19.948  0.00  0.00    +0.000 HD
ENDBRANCH  26  27
ENDBRANCH  25  26
ENDBRANCH  17  18
ENDBRANCH   4  17
TORSDOF 5
ENDMDL
MODEL 2
REMARK VINA RESULT:      -7.6      1.694      2.009
REMARK  Name = 
REMARK  6 active torsions:
REMARK  status: ('A' for Active; 'I' for Inactive)
REMARK    1  A    between atoms: C_1  and  C_2
REMARK    2  A    between atoms: N_4  and  C_5
REMARK    3  A    between atoms: C_5  and  C_6
REMARK    4  A    between atoms: C_13  and  C_14
REMARK    5  A    between atoms: C_14  and  O_15
REMARK    6  A    between atoms: N_18  and  C_19
REMARK                            x       y       z     vdW  Elec       q    Type
REMARK                         _______ _______ _______ _____ _____    ______ ____
ROOT
ATOM      1  C   UNL     1       0.272   9.759  22.074  0.00  0.00    +0.000 C 
ATOM      2  C   UNL     1       0.964   9.154  20.895  0.00  0.00    +0.000 A 
ATOM      3  N   UNL     1       1.522   7.977  20.952  0.00  0.00    +0.000 NA
ATOM      4  N   UNL     1       1.920   7.732  19.662  0.00  0.00    +0.000 N 
ATOM      5  C   UNL     1       1.647   8.837  18.852  0.00  0.00    +0.000 A 
ATOM      6  O   UNL     1       2.017   8.970  17.694  0.00  0.00    +0.000 OA
ATOM      7  N   UNL     1       1.008   9.748  19.676  0.00  0.00    +0.000 N 
ENDROOT
BRANCH   7   8
ATOM      8  C   UNL     1       0.641  11.033  19.260  0.00  0.00    +0.000 A 
ATOM      9  C   UNL     1      -0.624  11.315  18.712  0.00  0.00    +0.000 A 
ATOM     10  C   UNL     1      -1.014  12.636  18.423  0.00  0.00    +0.000 A 
ATOM     11  C   UNL     1      -0.108  13.640  18.672  0.00  0.00    +0.000 A 
ATOM     12  C   UNL     1       1.141  13.372  19.178  0.00  0.00    +0.000 A 
ATOM     13  C   UNL     1       1.536  12.093  19.495  0.00  0.00    +0.000 A 
ATOM     14  O   UNL     1       1.895  14.494  19.343  0.00  0.00    +0.000 OA
ATOM     15  C   UNL     1       0.978  15.499  18.884  0.00  0.00    +0.000 C 
ATOM     16  O   UNL     1      -0.302  14.973  18.472  0.00  0.00    +0.000 OA
ENDBRANCH   7   8
BRANCH   4  17
ATOM     17  C   UNL     1       2.770   6.639  19.263  0.00  0.00    +0.000 C 
BRANCH  17  18
ATOM     18  C   UNL     1       2.354   5.331  19.967  0.00  0.00    +0.000 C 
ATOM     19  O   UNL     1       1.350   5.298  20.686  0.00  0.00    +0.000 OA
ATOM     20  N   UNL     1       3.180   4.211  19.821  0.00  0.00    +0.000 N 
ATOM     21  C   UNL     1       4.434   4.256  19.066  0.00  0.00    +0.000 C 
ATOM     22  C   UNL     1       4.181   3.768  17.642  0.00  0.00    +0.000 C 
ATOM     23  C   UNL     1       3.626   2.344  17.672  0.00  0.00    +0.000 C 
ATOM     24  C   UNL     1       2.395   2.236  18.581  0.00  0.00    +0.000 C 
ATOM     25  C   UNL     1       2.663   2.822  19.980  0.00  0.00    +0.000 C 
BRANCH  25  26
ATOM     26  C   UNL     1       1.436   2.589  20.880  0.00  0.00    +0.000 C 
BRANCH  26  27
ATOM     27  O   UNL     1       1.789   2.719  22.254  0.00  0.00    +0.000 OA
ATOM     28  H   UNL     1       1.067   2.260  22.731  0.00  0.00    +0.000 HD
ENDBRANCH  26  27
ENDBRANCH  25  26
ENDBRANCH  17  18
ENDBRANCH   4  17
TORSDOF 5
ENDMDL
MODEL 3
REMARK VINA RESULT:      -7.5      2.663      3.857
REMARK  Name = 
REMARK  6 active torsions:
REMARK  status: ('A' for Active; 'I' for Inactive)
REMARK    1  A    between atoms: C_1  and  C_2
REMARK    2  A    between atoms: N_4  and  C_5
REMARK    3  A    between atoms: C_5  and  C_6
REMARK    4  A    between atoms: C_13  and  C_14
REMARK    5  A    between atoms: C_14  and  O_15
REMARK    6  A    between atoms: N_18  and  C_19
REMARK                            x       y       z     vdW  Elec       q    Type
REMARK                         _______ _______ _______ _____ _____    ______ ____
ROOT
ATOM      1  C   UNL     1       1.796  10.504  17.968  0.00  0.00    +0.000 C 
ATOM      2  C   UNL     1       2.047   9.101  18.418  0.00  0.00    +0.000 A 
ATOM      3  N   UNL     1       2.715   8.252  17.688  0.00  0.00    +0.000 NA
ATOM      4  N   UNL     1       2.839   7.145  18.490  0.00  0.00    +0.000 N 
ATOM      5  C   UNL     1       2.155   7.340  19.693  0.00  0.00    +0.000 A 
ATOM      6  O   UNL     1       1.966   6.480  20.541  0.00  0.00    +0.000 OA
ATOM      7  N   UNL     1       1.659   8.631  19.629  0.00  0.00    +0.000 N 
ENDROOT
BRANCH   7   8
ATOM      8  C   UNL     1       0.835   9.185  20.616  0.00  0.00    +0.000 A 
ATOM      9  C   UNL     1       0.948   8.838  21.975  0.00  0.00    +0.000 A 
ATOM     10  C   UNL     1       0.198   9.504  22.961  0.00  0.00    +0.000 A 
ATOM     11  C   UNL     1      -0.666  10.491  22.551  0.00  0.00    +0.000 A 
ATOM     12  C   UNL     1      -0.807  10.816  21.223  0.00  0.00    +0.000 A 
ATOM     13  C   UNL     1      -0.065  10.199  20.242  0.00  0.00    +0.000 A 
ATOM     14  O   UNL     1      -1.719  11.807  21.016  0.00  0.00    +0.000 OA
ATOM     15  C   UNL     1      -2.135  12.069  22.366  0.00  0.00    +0.000 C 
ATOM     16  O   UNL     1      -1.464  11.253  23.350  0.00  0.00    +0.000 OA
ENDBRANCH   7   8
BRANCH   4  17
ATOM     17  C   UNL     1       3.326   5.864  18.045  0.00  0.00    +0.000 C 
BRANCH  17  18
ATOM     18  C   UNL     1       4.831   5.712  18.346  0.00  0.00    +0.000 C 
ATOM     19  O   UNL     1       5.214   5.359  19.465  0.00  0.00    +0.000 OA
ATOM     20  N   UNL     1       5.743   6.046  17.338  0.00  0.00    +0.000 N 
ATOM     21  C   UNL     1       5.317   6.572  16.039  0.00  0.00    +0.000 C 
ATOM     22  C   UNL     1       5.228   5.426  15.037  0.00  0.00    +0.000 C 
ATOM     23  C   UNL     1       6.588   4.737  14.915  0.00  0.00    +0.000 C 
ATOM     24  C   UNL     1       7.130   4.308  16.284  0.00  0.00    +0.000 C 
ATOM     25  C   UNL     1       7.118   5.472  17.294  0.00  0.00    +0.000 C 
BRANCH  25  26
ATOM     26  C   UNL     1       7.770   5.016  18.612  0.00  0.00    +0.000 C 
BRANCH  26  27
ATOM     27  O   UNL     1       8.162   6.141  19.393  0.00  0.00    +0.000 OA
ATOM     28  H   UNL     1       8.156   5.807  20.314  0.00  0.00    +0.000 HD
ENDBRANCH  26  27
ENDBRANCH  25  26
ENDBRANCH  17  18
ENDBRANCH   4  17
TORSDOF 5
ENDMDL
MODEL 4
REMARK VINA RESULT:      -7.2      2.135      2.600
REMARK  Name = 
REMARK  6 active torsions:
REMARK  status: ('A' for Active; 'I' for Inactive)
REMARK    1  A    between atoms: C_1  and  C_2
REMARK    2  A    between atoms: N_4  and  C_5
REMARK    3  A    between atoms: C_5  and  C_6
REMARK    4  A    between atoms: C_13  and  C_14
REMARK    5  A    between atoms: C_14  and  O_15
REMARK    6  A    between atoms: N_18  and  C_19
REMARK                            x       y       z     vdW  Elec       q    Type
REMARK                         _______ _______ _______ _____ _____    ______ ____
ROOT
ATOM      1  C   UNL     1       1.978  10.528  17.804  0.00  0.00    +0.000 C 
ATOM      2  C   UNL     1       1.752   9.430  18.792  0.00  0.00    +0.000 A 
ATOM      3  N   UNL     1       2.329   8.267  18.673  0.00  0.00    +0.000 NA
ATOM      4  N   UNL     1       1.979   7.600  19.822  0.00  0.00    +0.000 N 
ATOM      5  C   UNL     1       1.112   8.382  20.590  0.00  0.00    +0.000 A 
ATOM      6  O   UNL     1       0.521   8.000  21.590  0.00  0.00    +0.000 OA
ATOM      7  N   UNL     1       0.991   9.579  19.905  0.00  0.00    +0.000 N 
ENDROOT
BRANCH   7   8
ATOM      8  C   UNL     1       0.134  10.610  20.308  0.00  0.00    +0.000 A 
ATOM      9  C   UNL     1      -1.029  10.946  19.590  0.00  0.00    +0.000 A 
ATOM     10  C   UNL     1      -1.940  11.897  20.086  0.00  0.00    +0.000 A 
ATOM     11  C   UNL     1      -1.644  12.504  21.284  0.00  0.00    +0.000 A 
ATOM     12  C   UNL     1      -0.496  12.204  21.977  0.00  0.00    +0.000 A 
ATOM     13  C   UNL     1       0.396  11.258  21.528  0.00  0.00    +0.000 A 
ATOM     14  O   UNL     1      -0.376  12.916  23.132  0.00  0.00    +0.000 OA
ATOM     15  C   UNL     1      -1.580  13.698  23.087  0.00  0.00    +0.000 C 
ATOM     16  O   UNL     1      -2.402  13.434  21.930  0.00  0.00    +0.000 OA
ENDBRANCH   7   8
BRANCH   4  17
ATOM     17  C   UNL     1       2.210   6.198  20.055  0.00  0.00    +0.000 C 
BRANCH  17  18
ATOM     18  C   UNL     1       3.347   5.669  19.156  0.00  0.00    +0.000 C 
ATOM     19  O   UNL     1       4.515   6.015  19.354  0.00  0.00    +0.000 OA
ATOM     20  N   UNL     1       3.006   4.843  18.078  0.00  0.00    +0.000 N 
ATOM     21  C   UNL     1       1.617   4.508  17.757  0.00  0.00    +0.000 C 
ATOM     22  C   UNL     1       1.265   3.165  18.390  0.00  0.00    +0.000 C 
ATOM     23  C   UNL     1       2.211   2.082  17.871  0.00  0.00    +0.000 C 
ATOM     24  C   UNL     1       3.681   2.477  18.058  0.00  0.00    +0.000 C 
ATOM     25  C   UNL     1       3.975   3.877  17.486  0.00  0.00    +0.000 C 
BRANCH  25  26
ATOM     26  C   UNL     1       5.481   4.175  17.604  0.00  0.00    +0.000 C 
BRANCH  26  27
ATOM     27  O   UNL     1       6.010   3.618  18.804  0.00  0.00    +0.000 OA
ATOM     28  H   UNL     1       5.535   2.767  18.902  0.00  0.00    +0.000 HD
ENDBRANCH  26  27
ENDBRANCH  25  26
ENDBRANCH  17  18
ENDBRANCH   4  17
TORSDOF 5
ENDMDL
MODEL 5
REMARK VINA RESULT:      -7.2      0.764      1.401
REMARK  Name = 
REMARK  6 active torsions:
REMARK  status: ('A' for Active; 'I' for Inactive)
REMARK    1  A    between atoms: C_1  and  C_2
REMARK    2  A    between atoms: N_4  and  C_5
REMARK    3  A    between atoms: C_5  and  C_6
REMARK    4  A    between atoms: C_13  and  C_14
REMARK    5  A    between atoms: C_14  and  O_15
REMARK    6  A    between atoms: N_18  and  C_19
REMARK                            x       y       z     vdW  Elec       q    Type
REMARK                         _______ _______ _______ _____ _____    ______ ____
ROOT
ATOM      1  C   UNL     1       1.115   7.756  21.512  0.00  0.00    +0.000 C 
ATOM      2  C   UNL     1       1.823   7.657  20.199  0.00  0.00    +0.000 A 
ATOM      3  N   UNL     1       2.600   6.651  19.910  0.00  0.00    +0.000 NA
ATOM      4  N   UNL     1       2.943   6.860  18.597  0.00  0.00    +0.000 N 
ATOM      5  C   UNL     1       2.403   8.065  18.141  0.00  0.00    +0.000 A 
ATOM      6  O   UNL     1       2.655   8.586  17.064  0.00  0.00    +0.000 OA
ATOM      7  N   UNL     1       1.662   8.560  19.201  0.00  0.00    +0.000 N 
ENDROOT
BRANCH   7   8
ATOM      8  C   UNL     1       1.024   9.806  19.174  0.00  0.00    +0.000 A 
ATOM      9  C   UNL     1       1.727  11.009  18.980  0.00  0.00    +0.000 A 
ATOM     10  C   UNL     1       1.049  12.232  18.828  0.00  0.00    +0.000 A 
ATOM     11  C   UNL     1      -0.324  12.216  18.899  0.00  0.00    +0.000 A 
ATOM     12  C   UNL     1      -1.019  11.051  19.119  0.00  0.00    +0.000 A 
ATOM     13  C   UNL     1      -0.381   9.839  19.243  0.00  0.00    +0.000 A 
ATOM     14  O   UNL     1      -2.367  11.242  19.169  0.00  0.00    +0.000 OA
ATOM     15  C   UNL     1      -2.441  12.660  18.954  0.00  0.00    +0.000 C 
ATOM     16  O   UNL     1      -1.155  13.287  18.765  0.00  0.00    +0.000 OA
ENDBRANCH   7   8
BRANCH   4  17
ATOM     17  C   UNL     1       3.957   6.120  17.890  0.00  0.00    +0.000 C 
BRANCH  17  18
ATOM     18  C   UNL     1       4.315   4.820  18.639  0.00  0.00    +0.000 C 
ATOM     19  O   UNL     1       5.215   4.811  19.485  0.00  0.00    +0.000 OA
ATOM     20  N   UNL     1       3.638   3.647  18.286  0.00  0.00    +0.000 N 
ATOM     21  C   UNL     1       2.645   3.609  17.210  0.00  0.00    +0.000 C 
ATOM     22  C   UNL     1       1.251   3.769  17.807  0.00  0.00    +0.000 C 
ATOM     23  C   UNL     1       0.987   2.651  18.818  0.00  0.00    +0.000 C 
ATOM     24  C   UNL     1       2.096   2.571  19.874  0.00  0.00    +0.000 C 
ATOM     25  C   UNL     1       3.495   2.503  19.231  0.00  0.00    +0.000 C 
BRANCH  25  26
ATOM     26  C   UNL     1       4.557   2.314  20.330  0.00  0.00    +0.000 C 
BRANCH  26  27
ATOM     27  O   UNL     1       5.293   1.113  20.114  0.00  0.00    +0.000 OA
ATOM     28  H   UNL     1       6.105   1.232  20.649  0.00  0.00    +0.000 HD
ENDBRANCH  26  27
ENDBRANCH  25  26
ENDBRANCH  17  18
ENDBRANCH   4  17
TORSDOF 5
ENDMDL
MODEL 6
REMARK VINA RESULT:      -7.1      1.759      2.538
REMARK  Name = 
REMARK  6 active torsions:
REMARK  status: ('A' for Active; 'I' for Inactive)
REMARK    1  A    between atoms: C_1  and  C_2
REMARK    2  A    between atoms: N_4  and  C_5
REMARK    3  A    between atoms: C_5  and  C_6
REMARK    4  A    between atoms: C_13  and  C_14
REMARK    5  A    between atoms: C_14  and  O_15
REMARK    6  A    between atoms: N_18  and  C_19
REMARK                            x       y       z     vdW  Elec       q    Type
REMARK                         _______ _______ _______ _____ _____    ______ ____
ROOT
ATOM      1  C   UNL     1       0.275   8.645  21.792  0.00  0.00    +0.000 C 
ATOM      2  C   UNL     1       1.015   8.666  20.493  0.00  0.00    +0.000 A 
ATOM      3  N   UNL     1       1.843   7.717  20.157  0.00  0.00    +0.000 NA
ATOM      4  N   UNL     1       2.205   8.028  18.870  0.00  0.00    +0.000 N 
ATOM      5  C   UNL     1       1.621   9.237  18.481  0.00  0.00    +0.000 A 
ATOM      6  O   UNL     1       1.874   9.840  17.448  0.00  0.00    +0.000 OA
ATOM      7  N   UNL     1       0.836   9.627  19.553  0.00  0.00    +0.000 N 
ENDROOT
BRANCH   7   8
ATOM      8  C   UNL     1       0.144  10.843  19.594  0.00  0.00    +0.000 A 
ATOM      9  C   UNL     1      -1.213  10.949  19.239  0.00  0.00    +0.000 A 
ATOM     10  C   UNL     1      -1.919  12.154  19.413  0.00  0.00    +0.000 A 
ATOM     11  C   UNL     1      -1.231  13.231  19.920  0.00  0.00    +0.000 A 
ATOM     12  C   UNL     1       0.102  13.146  20.240  0.00  0.00    +0.000 A 
ATOM     13  C   UNL     1       0.807  11.973  20.106  0.00  0.00    +0.000 A 
ATOM     14  O   UNL     1       0.607  14.320  20.714  0.00  0.00    +0.000 OA
ATOM     15  C   UNL     1      -0.562  15.153  20.656  0.00  0.00    +0.000 C 
ATOM     16  O   UNL     1      -1.738  14.471  20.171  0.00  0.00    +0.000 OA
ENDBRANCH   7   8
BRANCH   4  17
ATOM     17  C   UNL     1       3.267   7.382  18.140  0.00  0.00    +0.000 C 
BRANCH  17  18
ATOM     18  C   UNL     1       3.032   5.860  18.058  0.00  0.00    +0.000 C 
ATOM     19  O   UNL     1       1.893   5.408  17.905  0.00  0.00    +0.000 OA
ATOM     20  N   UNL     1       4.133   5.012  18.227  0.00  0.00    +0.000 N 
ATOM     21  C   UNL     1       5.475   5.520  18.521  0.00  0.00    +0.000 C 
ATOM     22  C   UNL     1       6.263   5.640  17.220  0.00  0.00    +0.000 C 
ATOM     23  C   UNL     1       6.345   4.274  16.536  0.00  0.00    +0.000 C 
ATOM     24  C   UNL     1       4.957   3.649  16.352  0.00  0.00    +0.000 C 
ATOM     25  C   UNL     1       4.159   3.630  17.669  0.00  0.00    +0.000 C 
BRANCH  25  26
ATOM     26  C   UNL     1       2.823   2.896  17.451  0.00  0.00    +0.000 C 
BRANCH  26  27
ATOM     27  O   UNL     1       2.281   2.461  18.695  0.00  0.00    +0.000 OA
ATOM     28  H   UNL     1       2.928   2.775  19.360  0.00  0.00    +0.000 HD
ENDBRANCH  26  27
ENDBRANCH  25  26
ENDBRANCH  17  18
ENDBRANCH   4  17
TORSDOF 5
ENDMDL
MODEL 7
REMARK VINA RESULT:      -6.9      2.491      8.222
REMARK  Name = 
REMARK  6 active torsions:
REMARK  status: ('A' for Active; 'I' for Inactive)
REMARK    1  A    between atoms: C_1  and  C_2
REMARK    2  A    between atoms: N_4  and  C_5
REMARK    3  A    between atoms: C_5  and  C_6
REMARK    4  A    between atoms: C_13  and  C_14
REMARK    5  A    between atoms: C_14  and  O_15
REMARK    6  A    between atoms: N_18  and  C_19
REMARK                            x       y       z     vdW  Elec       q    Type
REMARK                         _______ _______ _______ _____ _____    ______ ____
ROOT
ATOM      1  C   UNL     1       0.873   9.175  22.505  0.00  0.00    +0.000 C 
ATOM      2  C   UNL     1       0.697   9.585  21.078  0.00  0.00    +0.000 A 
ATOM      3  N   UNL     1       0.074  10.681  20.749  0.00  0.00    +0.000 NA
ATOM      4  N   UNL     1       0.239  10.765  19.388  0.00  0.00    +0.000 N 
ATOM      5  C   UNL     1       0.916   9.639  18.913  0.00  0.00    +0.000 A 
ATOM      6  O   UNL     1       1.080   9.363  17.733  0.00  0.00    +0.000 OA
ATOM      7  N   UNL     1       1.219   8.890  20.037  0.00  0.00    +0.000 N 
ENDROOT
BRANCH   7   8
ATOM      8  C   UNL     1       1.829   7.631  19.978  0.00  0.00    +0.000 A 
ATOM      9  C   UNL     1       1.421   6.557  20.791  0.00  0.00    +0.000 A 
ATOM     10  C   UNL     1       1.962   5.270  20.622  0.00  0.00    +0.000 A 
ATOM     11  C   UNL     1       2.921   5.101  19.650  0.00  0.00    +0.000 A 
ATOM     12  C   UNL     1       3.349   6.150  18.873  0.00  0.00    +0.000 A 
ATOM     13  C   UNL     1       2.816   7.412  19.000  0.00  0.00    +0.000 A 
ATOM     14  O   UNL     1       4.310   5.787  17.979  0.00  0.00    +0.000 OA
ATOM     15  C   UNL     1       4.438   4.388  18.282  0.00  0.00    +0.000 C 
ATOM     16  O   UNL     1       3.551   3.937  19.328  0.00  0.00    +0.000 OA
ENDBRANCH   7   8
BRANCH   4  17
ATOM     17  C   UNL     1      -0.449  11.703  18.538  0.00  0.00    +0.000 C 
BRANCH  17  18
ATOM     18  C   UNL     1      -1.944  11.789  18.907  0.00  0.00    +0.000 C 
ATOM     19  O   UNL     1      -2.334  12.595  19.757  0.00  0.00    +0.000 OA
ATOM     20  N   UNL     1      -2.826  10.888  18.301  0.00  0.00    +0.000 N 
ATOM     21  C   UNL     1      -2.372   9.850  17.374  0.00  0.00    +0.000 C 
ATOM     22  C   UNL     1      -2.522  10.354  15.942  0.00  0.00    +0.000 C 
ATOM     23  C   UNL     1      -3.983  10.712  15.668  0.00  0.00    +0.000 C 
ATOM     24  C   UNL     1      -4.533  11.686  16.718  0.00  0.00    +0.000 C 
ATOM     25  C   UNL     1      -4.280  11.184  18.152  0.00  0.00    +0.000 C 
BRANCH  25  26
ATOM     26  C   UNL     1      -4.945  12.142  19.157  0.00  0.00    +0.000 C 
BRANCH  26  27
ATOM     27  O   UNL     1      -5.537  13.247  18.480  0.00  0.00    +0.000 OA
ATOM     28  H   UNL     1      -4.882  13.484  17.791  0.00  0.00    +0.000 HD
ENDBRANCH  26  27
ENDBRANCH  25  26
ENDBRANCH  17  18
ENDBRANCH   4  17
TORSDOF 5
ENDMDL
MODEL 8
REMARK VINA RESULT:      -6.9      2.067      2.956
REMARK  Name = 
REMARK  6 active torsions:
REMARK  status: ('A' for Active; 'I' for Inactive)
REMARK    1  A    between atoms: C_1  and  C_2
REMARK    2  A    between atoms: N_4  and  C_5
REMARK    3  A    between atoms: C_5  and  C_6
REMARK    4  A    between atoms: C_13  and  C_14
REMARK    5  A    between atoms: C_14  and  O_15
REMARK    6  A    between atoms: N_18  and  C_19
REMARK                            x       y       z     vdW  Elec       q    Type
REMARK                         _______ _______ _______ _____ _____    ______ ____
ROOT
ATOM      1  C   UNL     1       2.162   9.387  17.462  0.00  0.00    +0.000 C 
ATOM      2  C   UNL     1       1.943   8.558  18.686  0.00  0.00    +0.000 A 
ATOM      3  N   UNL     1       2.433   7.355  18.799  0.00  0.00    +0.000 NA
ATOM      4  N   UNL     1       2.131   6.990  20.088  0.00  0.00    +0.000 N 
ATOM      5  C   UNL     1       1.379   7.990  20.711  0.00  0.00    +0.000 A 
ATOM      6  O   UNL     1       0.844   7.888  21.805  0.00  0.00    +0.000 OA
ATOM      7  N   UNL     1       1.282   9.010  19.780  0.00  0.00    +0.000 N 
ENDROOT
BRANCH   7   8
ATOM      8  C   UNL     1       0.527  10.170  19.990  0.00  0.00    +0.000 A 
ATOM      9  C   UNL     1      -0.770  10.331  19.467  0.00  0.00    +0.000 A 
ATOM     10  C   UNL     1      -1.556  11.448  19.799  0.00  0.00    +0.000 A 
ATOM     11  C   UNL     1      -1.007  12.392  20.636  0.00  0.00    +0.000 A 
ATOM     12  C   UNL     1       0.270  12.260  21.127  0.00  0.00    +0.000 A 
ATOM     13  C   UNL     1       1.049  11.163  20.839  0.00  0.00    +0.000 A 
ATOM     14  O   UNL     1       0.638  13.300  21.926  0.00  0.00    +0.000 OA
ATOM     15  C   UNL     1      -0.553  14.102  21.881  0.00  0.00    +0.000 C 
ATOM     16  O   UNL     1      -1.609  13.529  21.081  0.00  0.00    +0.000 OA
ENDBRANCH   7   8
BRANCH   4  17
ATOM     17  C   UNL     1       2.289   5.660  20.619  0.00  0.00    +0.000 C 
BRANCH  17  18
ATOM     18  C   UNL     1       2.297   4.612  19.488  0.00  0.00    +0.000 C 
ATOM     19  O   UNL     1       1.238   4.233  18.977  0.00  0.00    +0.000 OA
ATOM     20  N   UNL     1       3.525   4.059  19.108  0.00  0.00    +0.000 N 
ATOM     21  C   UNL     1       4.781   4.409  19.775  0.00  0.00    +0.000 C 
ATOM     22  C   UNL     1       5.479   5.513  18.986  0.00  0.00    +0.000 C 
ATOM     23  C   UNL     1       5.746   5.040  17.556  0.00  0.00    +0.000 C 
ATOM     24  C   UNL     1       4.468   4.523  16.883  0.00  0.00    +0.000 C 
ATOM     25  C   UNL     1       3.745   3.477  17.753  0.00  0.00    +0.000 C 
BRANCH  25  26
ATOM     26  C   UNL     1       2.534   2.916  16.985  0.00  0.00    +0.000 C 
BRANCH  26  27
ATOM     27  O   UNL     1       2.038   1.741  17.620  0.00  0.00    +0.000 OA
ATOM     28  H   UNL     1       2.772   1.457  18.203  0.00  0.00    +0.000 HD
ENDBRANCH  26  27
ENDBRANCH  25  26
ENDBRANCH  17  18
ENDBRANCH   4  17
TORSDOF 5
ENDMDL
MODEL 9
REMARK VINA RESULT:      -6.9      2.080      3.172
REMARK  Name = 
REMARK  6 active torsions:
REMARK  status: ('A' for Active; 'I' for Inactive)
REMARK    1  A    between atoms: C_1  and  C_2
REMARK    2  A    between atoms: N_4  and  C_5
REMARK    3  A    between atoms: C_5  and  C_6
REMARK    4  A    between atoms: C_13  and  C_14
REMARK    5  A    between atoms: C_14  and  O_15
REMARK    6  A    between atoms: N_18  and  C_19
REMARK                            x       y       z     vdW  Elec       q    Type
REMARK                         _______ _______ _______ _____ _____    ______ ____
ROOT
ATOM      1  C   UNL     1       1.131   8.187  21.558  0.00  0.00    +0.000 C 
ATOM      2  C   UNL     1       1.713   7.858  20.221  0.00  0.00    +0.000 A 
ATOM      3  N   UNL     1       2.198   6.678  19.952  0.00  0.00    +0.000 NA
ATOM      4  N   UNL     1       2.503   6.738  18.615  0.00  0.00    +0.000 N 
ATOM      5  C   UNL     1       2.252   8.019  18.118  0.00  0.00    +0.000 A 
ATOM      6  O   UNL     1       2.562   8.414  17.002  0.00  0.00    +0.000 OA
ATOM      7  N   UNL     1       1.722   8.729  19.181  0.00  0.00    +0.000 N 
ENDROOT
BRANCH   7   8
ATOM      8  C   UNL     1       1.412  10.093  19.115  0.00  0.00    +0.000 A 
ATOM      9  C   UNL     1       2.231  11.020  18.444  0.00  0.00    +0.000 A 
ATOM     10  C   UNL     1       1.832  12.359  18.281  0.00  0.00    +0.000 A 
ATOM     11  C   UNL     1       0.625  12.738  18.819  0.00  0.00    +0.000 A 
ATOM     12  C   UNL     1      -0.168  11.847  19.503  0.00  0.00    +0.000 A 
ATOM     13  C   UNL     1       0.186  10.527  19.652  0.00  0.00    +0.000 A 
ATOM     14  O   UNL     1      -1.315  12.414  19.971  0.00  0.00    +0.000 OA
ATOM     15  C   UNL     1      -1.155  13.762  19.502  0.00  0.00    +0.000 C 
ATOM     16  O   UNL     1       0.063  13.977  18.757  0.00  0.00    +0.000 OA
ENDBRANCH   7   8
BRANCH   4  17
ATOM     17  C   UNL     1       3.258   5.738  17.904  0.00  0.00    +0.000 C 
BRANCH  17  18
ATOM     18  C   UNL     1       4.753   5.806  18.276  0.00  0.00    +0.000 C 
ATOM     19  O   UNL     1       5.117   5.637  19.444  0.00  0.00    +0.000 OA
ATOM     20  N   UNL     1       5.670   6.129  17.269  0.00  0.00    +0.000 N 
ATOM     21  C   UNL     1       5.252   6.443  15.901  0.00  0.00    +0.000 C 
ATOM     22  C   UNL     1       5.349   5.184  15.044  0.00  0.00    +0.000 C 
ATOM     23  C   UNL     1       6.785   4.657  15.057  0.00  0.00    +0.000 C 
ATOM     24  C   UNL     1       7.303   4.462  16.488  0.00  0.00    +0.000 C 
ATOM     25  C   UNL     1       7.103   5.726  17.346  0.00  0.00    +0.000 C 
BRANCH  25  26
ATOM     26  C   UNL     1       7.737   5.511  18.733  0.00  0.00    +0.000 C 
BRANCH  26  27
ATOM     27  O   UNL     1       8.268   6.734  19.236  0.00  0.00    +0.000 OA
ATOM     28  H   UNL     1       9.140   6.482  19.603  0.00  0.00    +0.000 HD
ENDBRANCH  26  27
ENDBRANCH  25  26
ENDBRANCH  17  18
ENDBRANCH   4  17
TORSDOF 5
ENDMDL
