MODEL 1
REMARK VINA RESULT:      -7.2      0.000      0.000
REMARK  Name = 
REMARK  7 active torsions:
REMARK  status: ('A' for Active; 'I' for Inactive)
REMARK    1  A    between atoms: C_1  and  C_2
REMARK    2  A    between atoms: N_5  and  C_6
REMARK    3  A    between atoms: C_6  and  C_7
REMARK    4  A    between atoms: N_9  and  C_10
REMARK    5  A    between atoms: C_10  and  C_11
REMARK    6  A    between atoms: C_11  and  S_12
REMARK    7  A    between atoms: S_12  and  C_15
REMARK                            x       y       z     vdW  Elec       q    Type
REMARK                         _______ _______ _______ _____ _____    ______ ____
ROOT
ATOM      1  C   UNL     1       6.665   4.306  15.141  0.00  0.00    +0.000 C 
ATOM      2  C   UNL     1       5.450   5.145  15.613  0.00  0.00    +0.000 C 
ATOM      3  N   UNL     1       5.133   4.962  17.058  0.00  0.00    +0.000 NA
ATOM      4  C   UNL     1       6.368   5.268  17.810  0.00  0.00    +0.000 C 
ATOM      5  C   UNL     1       7.574   4.436  17.352  0.00  0.00    +0.000 C 
ATOM      6  O   UNL     1       7.830   4.601  15.952  0.00  0.00    +0.000 OA
ENDROOT
BRANCH   1   7
ATOM      7  C   UNL     1       7.053   4.590  13.689  0.00  0.00    +0.000 C 
BRANCH   7  12
ATOM      8  C   UNL     1       3.288   2.973  10.827  0.00  0.00    +0.000 C 
ATOM      9  C   UNL     1       4.604   3.133  11.484  0.00  0.00    +0.000 A 
ATOM     10  C   UNL     1       5.672   2.212  11.549  0.00  0.00    +0.000 A 
ATOM     11  N   UNL     1       6.690   2.656  12.291  0.00  0.00    +0.000 NA
ATOM     12  N   UNL     1       6.274   3.865  12.709  0.00  0.00    +0.000 N 
ATOM     13  C   UNL     1       5.057   4.215  12.211  0.00  0.00    +0.000 A 
ENDBRANCH   7  12
ENDBRANCH   1   7
BRANCH   3  14
ATOM     14  C   UNL     1       4.605   3.608  17.325  0.00  0.00    +0.000 C 
BRANCH  14  15
ATOM     15  C   UNL     1       3.109   3.493  17.045  0.00  0.00    +0.000 C 
BRANCH  15  16
ATOM     16  S   UNL     1       2.190   3.389  18.564  0.00  0.00    +0.000 S 
ATOM     17  O   UNL     1       0.835   2.971  18.261  0.00  0.00    +0.000 OA
ATOM     18  O   UNL     1       2.993   2.657  19.526  0.00  0.00    +0.000 OA
BRANCH  16  19
ATOM     19  C   UNL     1       2.122   5.083  19.098  0.00  0.00    +0.000 A 
ATOM     20  C   UNL     1       2.323   6.096  18.157  0.00  0.00    +0.000 A 
ATOM     21  C   UNL     1       2.255   7.429  18.559  0.00  0.00    +0.000 A 
ATOM     22  C   UNL     1       1.982   7.743  19.891  0.00  0.00    +0.000 A 
ATOM     23  C   UNL     1       1.772   6.728  20.826  0.00  0.00    +0.000 A 
ATOM     24  C   UNL     1       1.840   5.390  20.433  0.00  0.00    +0.000 A 
ENDBRANCH  16  19
ENDBRANCH  15  16
ENDBRANCH  14  15
ENDBRANCH   3  14
TORSDOF 6
ENDMDL
MODEL 2
REMARK VINA RESULT:      -7.0      3.266      7.411
REMARK  Name = 
REMARK  7 active torsions:
REMARK  status: ('A' for Active; 'I' for Inactive)
REMARK    1  A    between atoms: C_1  and  C_2
REMARK    2  A    between atoms: N_5  and  C_6
REMARK    3  A    between atoms: C_6  and  C_7
REMARK    4  A    between atoms: N_9  and  C_10
REMARK    5  A    between atoms: C_10  and  C_11
REMARK    6  A    between atoms: C_11  and  S_12
REMARK    7  A    between atoms: S_12  and  C_15
REMARK                            x       y       z     vdW  Elec       q    Type
REMARK                         _______ _______ _______ _____ _____    ______ ____
ROOT
ATOM      1  C   UNL     1       2.672   4.924  19.764  0.00  0.00    +0.000 C 
ATOM      2  C   UNL     1       2.002   4.481  18.438  0.00  0.00    +0.000 C 
ATOM      3  N   UNL     1       2.933   3.774  17.514  0.00  0.00    +0.000 NA
ATOM      4  C   UNL     1       3.510   2.643  18.271  0.00  0.00    +0.000 C 
ATOM      5  C   UNL     1       4.181   3.074  19.582  0.00  0.00    +0.000 C 
ATOM      6  O   UNL     1       3.273   3.786  20.432  0.00  0.00    +0.000 OA
ENDROOT
BRANCH   1   7
ATOM      7  C   UNL     1       1.680   5.543  20.751  0.00  0.00    +0.000 C 
BRANCH   7  12
ATOM      8  C   UNL     1      -0.036  10.219  21.161  0.00  0.00    +0.000 C 
ATOM      9  C   UNL     1       0.746   9.023  20.780  0.00  0.00    +0.000 A 
ATOM     10  C   UNL     1       1.637   8.864  19.696  0.00  0.00    +0.000 A 
ATOM     11  N   UNL     1       2.118   7.622  19.603  0.00  0.00    +0.000 NA
ATOM     12  N   UNL     1       1.531   6.977  20.628  0.00  0.00    +0.000 N 
ATOM     13  C   UNL     1       0.744   7.785  21.389  0.00  0.00    +0.000 A 
ENDBRANCH   7  12
ENDBRANCH   1   7
BRANCH   3  14
ATOM     14  C   UNL     1       3.953   4.695  16.971  0.00  0.00    +0.000 C 
BRANCH  14  15
ATOM     15  C   UNL     1       5.038   3.970  16.179  0.00  0.00    +0.000 C 
BRANCH  15  16
ATOM     16  S   UNL     1       6.171   5.132  15.452  0.00  0.00    +0.000 S 
ATOM     17  O   UNL     1       7.164   4.402  14.690  0.00  0.00    +0.000 OA
ATOM     18  O   UNL     1       5.394   6.191  14.834  0.00  0.00    +0.000 OA
BRANCH  16  19
ATOM     19  C   UNL     1       6.987   5.825  16.872  0.00  0.00    +0.000 A 
ATOM     20  C   UNL     1       7.370   4.974  17.912  0.00  0.00    +0.000 A 
ATOM     21  C   UNL     1       8.025   5.501  19.023  0.00  0.00    +0.000 A 
ATOM     22  C   UNL     1       8.302   6.867  19.087  0.00  0.00    +0.000 A 
ATOM     23  C   UNL     1       7.927   7.713  18.040  0.00  0.00    +0.000 A 
ATOM     24  C   UNL     1       7.267   7.194  16.924  0.00  0.00    +0.000 A 
ENDBRANCH  16  19
ENDBRANCH  15  16
ENDBRANCH  14  15
ENDBRANCH   3  14
TORSDOF 6
ENDMDL
MODEL 3
REMARK VINA RESULT:      -7.0      1.640      2.474
REMARK  Name = 
REMARK  7 active torsions:
REMARK  status: ('A' for Active; 'I' for Inactive)
REMARK    1  A    between atoms: C_1  and  C_2
REMARK    2  A    between atoms: N_5  and  C_6
REMARK    3  A    between atoms: C_6  and  C_7
REMARK    4  A    between atoms: N_9  and  C_10
REMARK    5  A    between atoms: C_10  and  C_11
REMARK    6  A    between atoms: C_11  and  S_12
REMARK    7  A    between atoms: S_12  and  C_15
REMARK                            x       y       z     vdW  Elec       q    Type
REMARK                         _______ _______ _______ _____ _____    ______ ____
ROOT
ATOM      1  C   UNL     1       6.569   4.611  15.554  0.00  0.00    +0.000 C 
ATOM      2  C   UNL     1       5.641   5.677  16.191  0.00  0.00    +0.000 C 
ATOM      3  N   UNL     1       5.485   5.518  17.665  0.00  0.00    +0.000 NA
ATOM      4  C   UNL     1       6.846   5.523  18.242  0.00  0.00    +0.000 C 
ATOM      5  C   UNL     1       7.768   4.465  17.621  0.00  0.00    +0.000 C 
ATOM      6  O   UNL     1       7.867   4.618  16.200  0.00  0.00    +0.000 OA
ENDROOT
BRANCH   1   7
ATOM      7  C   UNL     1       6.814   4.853  14.064  0.00  0.00    +0.000 C 
BRANCH   7  12
ATOM      8  C   UNL     1       6.177   1.177  10.739  0.00  0.00    +0.000 C 
ATOM      9  C   UNL     1       5.945   2.279  11.699  0.00  0.00    +0.000 A 
ATOM     10  C   UNL     1       4.781   3.058  11.876  0.00  0.00    +0.000 A 
ATOM     11  N   UNL     1       4.942   4.023  12.785  0.00  0.00    +0.000 NA
ATOM     12  N   UNL     1       6.216   3.867  13.190  0.00  0.00    +0.000 N 
ATOM     13  C   UNL     1       6.838   2.806  12.608  0.00  0.00    +0.000 A 
ENDBRANCH   7  12
ENDBRANCH   1   7
BRANCH   3  14
ATOM     14  C   UNL     1       4.714   4.302  17.995  0.00  0.00    +0.000 C 
BRANCH  14  15
ATOM     15  C   UNL     1       3.512   4.098  17.076  0.00  0.00    +0.000 C 
BRANCH  15  16
ATOM     16  S   UNL     1       2.040   4.784  17.801  0.00  0.00    +0.000 S 
ATOM     17  O   UNL     1       2.244   6.203  18.016  0.00  0.00    +0.000 OA
ATOM     18  O   UNL     1       0.900   4.305  17.041  0.00  0.00    +0.000 OA
BRANCH  16  19
ATOM     19  C   UNL     1       1.989   4.001  19.397  0.00  0.00    +0.000 A 
ATOM     20  C   UNL     1       2.402   4.726  20.518  0.00  0.00    +0.000 A 
ATOM     21  C   UNL     1       2.350   4.130  21.776  0.00  0.00    +0.000 A 
ATOM     22  C   UNL     1       1.882   2.822  21.911  0.00  0.00    +0.000 A 
ATOM     23  C   UNL     1       1.461   2.105  20.790  0.00  0.00    +0.000 A 
ATOM     24  C   UNL     1       1.511   2.693  19.524  0.00  0.00    +0.000 A 
ENDBRANCH  16  19
ENDBRANCH  15  16
ENDBRANCH  14  15
ENDBRANCH   3  14
TORSDOF 6
ENDMDL
MODEL 4
REMARK VINA RESULT:      -6.9      3.445      6.832
REMARK  Name = 
REMARK  7 active torsions:
REMARK  status: ('A' for Active; 'I' for Inactive)
REMARK    1  A    between atoms: C_1  and  C_2
REMARK    2  A    between atoms: N_5  and  C_6
REMARK    3  A    between atoms: C_6  and  C_7
REMARK    4  A    between atoms: N_9  and  C_10
REMARK    5  A    between atoms: C_10  and  C_11
REMARK    6  A    between atoms: C_11  and  S_12
REMARK    7  A    between atoms: S_12  and  C_15
REMARK                            x       y       z     vdW  Elec       q    Type
REMARK                         _______ _______ _______ _____ _____    ______ ____
ROOT
ATOM      1  C   UNL     1       3.161   4.101  19.878  0.00  0.00    +0.000 C 
ATOM      2  C   UNL     1       2.478   3.737  18.534  0.00  0.00    +0.000 C 
ATOM      3  N   UNL     1       3.258   2.761  17.722  0.00  0.00    +0.000 NA
ATOM      4  C   UNL     1       3.496   1.582  18.582  0.00  0.00    +0.000 C 
ATOM      5  C   UNL     1       4.178   1.934  19.911  0.00  0.00    +0.000 C 
ATOM      6  O   UNL     1       3.427   2.904  20.651  0.00  0.00    +0.000 OA
ENDROOT
BRANCH   1   7
ATOM      7  C   UNL     1       2.299   5.012  20.753  0.00  0.00    +0.000 C 
BRANCH   7  12
ATOM      8  C   UNL     1       2.397   9.051  17.812  0.00  0.00    +0.000 C 
ATOM      9  C   UNL     1       2.096   8.095  18.900  0.00  0.00    +0.000 A 
ATOM     10  C   UNL     1       1.494   8.348  20.152  0.00  0.00    +0.000 A 
ATOM     11  N   UNL     1       1.442   7.262  20.927  0.00  0.00    +0.000 NA
ATOM     12  N   UNL     1       2.018   6.307  20.174  0.00  0.00    +0.000 N 
ATOM     13  C   UNL     1       2.377   6.745  18.936  0.00  0.00    +0.000 A 
ENDBRANCH   7  12
ENDBRANCH   1   7
BRANCH   3  14
ATOM     14  C   UNL     1       4.501   3.366  17.202  0.00  0.00    +0.000 C 
BRANCH  14  15
ATOM     15  C   UNL     1       4.291   4.783  16.674  0.00  0.00    +0.000 C 
BRANCH  15  16
ATOM     16  S   UNL     1       5.714   5.334  15.762  0.00  0.00    +0.000 S 
ATOM     17  O   UNL     1       6.415   4.174  15.246  0.00  0.00    +0.000 OA
ATOM     18  O   UNL     1       5.294   6.401  14.873  0.00  0.00    +0.000 OA
BRANCH  16  19
ATOM     19  C   UNL     1       6.734   6.058  17.025  0.00  0.00    +0.000 A 
ATOM     20  C   UNL     1       7.186   5.252  18.073  0.00  0.00    +0.000 A 
ATOM     21  C   UNL     1       8.000   5.803  19.060  0.00  0.00    +0.000 A 
ATOM     22  C   UNL     1       8.363   7.148  18.995  0.00  0.00    +0.000 A 
ATOM     23  C   UNL     1       7.918   7.949  17.941  0.00  0.00    +0.000 A 
ATOM     24  C   UNL     1       7.100   7.406  16.948  0.00  0.00    +0.000 A 
ENDBRANCH  16  19
ENDBRANCH  15  16
ENDBRANCH  14  15
ENDBRANCH   3  14
TORSDOF 6
ENDMDL
MODEL 5
REMARK VINA RESULT:      -6.9      2.028      2.759
REMARK  Name = 
REMARK  7 active torsions:
REMARK  status: ('A' for Active; 'I' for Inactive)
REMARK    1  A    between atoms: C_1  and  C_2
REMARK    2  A    between atoms: N_5  and  C_6
REMARK    3  A    between atoms: C_6  and  C_7
REMARK    4  A    between atoms: N_9  and  C_10
REMARK    5  A    between atoms: C_10  and  C_11
REMARK    6  A    between atoms: C_11  and  S_12
REMARK    7  A    between atoms: S_12  and  C_15
REMARK                            x       y       z     vdW  Elec       q    Type
REMARK                         _______ _______ _______ _____ _____    ______ ____
ROOT
ATOM      1  C   UNL     1       6.701   5.004  15.505  0.00  0.00    +0.000 C 
ATOM      2  C   UNL     1       6.283   6.402  16.030  0.00  0.00    +0.000 C 
ATOM      3  N   UNL     1       6.053   6.435  17.502  0.00  0.00    +0.000 NA
ATOM      4  C   UNL     1       7.286   5.928  18.139  0.00  0.00    +0.000 C 
ATOM      5  C   UNL     1       7.702   4.541  17.630  0.00  0.00    +0.000 C 
ATOM      6  O   UNL     1       7.877   4.530  16.208  0.00  0.00    +0.000 OA
ENDROOT
BRANCH   1   7
ATOM      7  C   UNL     1       7.046   5.010  14.015  0.00  0.00    +0.000 C 
BRANCH   7  12
ATOM      8  C   UNL     1       6.085   1.311  10.795  0.00  0.00    +0.000 C 
ATOM      9  C   UNL     1       5.950   2.394  11.793  0.00  0.00    +0.000 A 
ATOM     10  C   UNL     1       4.788   3.102  12.170  0.00  0.00    +0.000 A 
ATOM     11  N   UNL     1       5.041   4.072  13.053  0.00  0.00    +0.000 NA
ATOM     12  N   UNL     1       6.370   3.992  13.240  0.00  0.00    +0.000 N 
ATOM     13  C   UNL     1       6.949   2.972  12.550  0.00  0.00    +0.000 A 
ENDBRANCH   7  12
ENDBRANCH   1   7
BRANCH   3  14
ATOM     14  C   UNL     1       4.845   5.670  17.874  0.00  0.00    +0.000 C 
BRANCH  14  15
ATOM     15  C   UNL     1       4.311   6.046  19.254  0.00  0.00    +0.000 C 
BRANCH  15  16
ATOM     16  S   UNL     1       2.560   6.352  19.191  0.00  0.00    +0.000 S 
ATOM     17  O   UNL     1       2.187   7.161  20.334  0.00  0.00    +0.000 OA
ATOM     18  O   UNL     1       2.226   6.774  17.843  0.00  0.00    +0.000 OA
BRANCH  16  19
ATOM     19  C   UNL     1       1.871   4.731  19.432  0.00  0.00    +0.000 A 
ATOM     20  C   UNL     1       1.586   3.945  18.312  0.00  0.00    +0.000 A 
ATOM     21  C   UNL     1       1.061   2.666  18.488  0.00  0.00    +0.000 A 
ATOM     22  C   UNL     1       0.831   2.177  19.774  0.00  0.00    +0.000 A 
ATOM     23  C   UNL     1       1.126   2.962  20.891  0.00  0.00    +0.000 A 
ATOM     24  C   UNL     1       1.650   4.245  20.724  0.00  0.00    +0.000 A 
ENDBRANCH  16  19
ENDBRANCH  15  16
ENDBRANCH  14  15
ENDBRANCH   3  14
TORSDOF 6
ENDMDL
MODEL 6
REMARK VINA RESULT:      -6.9      3.327      7.415
REMARK  Name = 
REMARK  7 active torsions:
REMARK  status: ('A' for Active; 'I' for Inactive)
REMARK    1  A    between atoms: C_1  and  C_2
REMARK    2  A    between atoms: N_5  and  C_6
REMARK    3  A    between atoms: C_6  and  C_7
REMARK    4  A    between atoms: N_9  and  C_10
REMARK    5  A    between atoms: C_10  and  C_11
REMARK    6  A    between atoms: C_11  and  S_12
REMARK    7  A    between atoms: S_12  and  C_15
REMARK                            x       y       z     vdW  Elec       q    Type
REMARK                         _______ _______ _______ _____ _____    ______ ____
ROOT
ATOM      1  C   UNL     1       2.549   5.144  19.814  0.00  0.00    +0.000 C 
ATOM      2  C   UNL     1       1.876   4.738  18.478  0.00  0.00    +0.000 C 
ATOM      3  N   UNL     1       2.783   3.982  17.567  0.00  0.00    +0.000 NA
ATOM      4  C   UNL     1       3.288   2.822  18.332  0.00  0.00    +0.000 C 
ATOM      5  C   UNL     1       3.961   3.218  19.653  0.00  0.00    +0.000 C 
ATOM      6  O   UNL     1       3.080   3.977  20.490  0.00  0.00    +0.000 OA
ENDROOT
BRANCH   1   7
ATOM      7  C   UNL     1       1.577   5.816  20.786  0.00  0.00    +0.000 C 
BRANCH   7  12
ATOM      8  C   UNL     1      -0.093  10.520  21.028  0.00  0.00    +0.000 C 
ATOM      9  C   UNL     1       0.666   9.300  20.676  0.00  0.00    +0.000 A 
ATOM     10  C   UNL     1       1.508   9.079  19.565  0.00  0.00    +0.000 A 
ATOM     11  N   UNL     1       1.978   7.829  19.516  0.00  0.00    +0.000 NA
ATOM     12  N   UNL     1       1.431   7.243  20.596  0.00  0.00    +0.000 N 
ATOM     13  C   UNL     1       0.682   8.095  21.348  0.00  0.00    +0.000 A 
ENDBRANCH   7  12
ENDBRANCH   1   7
BRANCH   3  14
ATOM     14  C   UNL     1       3.858   4.848  17.039  0.00  0.00    +0.000 C 
BRANCH  14  15
ATOM     15  C   UNL     1       4.936   4.061  16.299  0.00  0.00    +0.000 C 
BRANCH  15  16
ATOM     16  S   UNL     1       6.101   5.162  15.527  0.00  0.00    +0.000 S 
ATOM     17  O   UNL     1       7.045   4.376  14.758  0.00  0.00    +0.000 OA
ATOM     18  O   UNL     1       5.355   6.242  14.906  0.00  0.00    +0.000 OA
BRANCH  16  19
ATOM     19  C   UNL     1       6.976   5.843  16.916  0.00  0.00    +0.000 A 
ATOM     20  C   UNL     1       7.268   7.209  16.927  0.00  0.00    +0.000 A 
ATOM     21  C   UNL     1       7.939   7.760  18.017  0.00  0.00    +0.000 A 
ATOM     22  C   UNL     1       8.306   6.949  19.092  0.00  0.00    +0.000 A 
ATOM     23  C   UNL     1       8.004   5.586  19.083  0.00  0.00    +0.000 A 
ATOM     24  C   UNL     1       7.334   5.025  17.993  0.00  0.00    +0.000 A 
ENDBRANCH  16  19
ENDBRANCH  15  16
ENDBRANCH  14  15
ENDBRANCH   3  14
TORSDOF 6
ENDMDL
MODEL 7
REMARK VINA RESULT:      -6.8      1.799      2.642
REMARK  Name = 
REMARK  7 active torsions:
REMARK  status: ('A' for Active; 'I' for Inactive)
REMARK    1  A    between atoms: C_1  and  C_2
REMARK    2  A    between atoms: N_5  and  C_6
REMARK    3  A    between atoms: C_6  and  C_7
REMARK    4  A    between atoms: N_9  and  C_10
REMARK    5  A    between atoms: C_10  and  C_11
REMARK    6  A    between atoms: C_11  and  S_12
REMARK    7  A    between atoms: S_12  and  C_15
REMARK                            x       y       z     vdW  Elec       q    Type
REMARK                         _______ _______ _______ _____ _____    ______ ____
ROOT
ATOM      1  C   UNL     1       6.649   4.658  14.884  0.00  0.00    +0.000 C 
ATOM      2  C   UNL     1       5.999   6.042  15.137  0.00  0.00    +0.000 C 
ATOM      3  N   UNL     1       5.576   6.246  16.551  0.00  0.00    +0.000 NA
ATOM      4  C   UNL     1       6.768   6.009  17.393  0.00  0.00    +0.000 C 
ATOM      5  C   UNL     1       7.413   4.637  17.153  0.00  0.00    +0.000 C 
ATOM      6  O   UNL     1       7.772   4.455  15.778  0.00  0.00    +0.000 OA
ENDROOT
BRANCH   1   7
ATOM      7  C   UNL     1       7.183   4.506  13.459  0.00  0.00    +0.000 C 
BRANCH   7  12
ATOM      8  C   UNL     1       3.138   2.975  10.956  0.00  0.00    +0.000 C 
ATOM      9  C   UNL     1       4.509   3.100  11.496  0.00  0.00    +0.000 A 
ATOM     10  C   UNL     1       5.548   2.144  11.487  0.00  0.00    +0.000 A 
ATOM     11  N   UNL     1       6.639   2.564  12.131  0.00  0.00    +0.000 NA
ATOM     12  N   UNL     1       6.300   3.793  12.561  0.00  0.00    +0.000 N 
ATOM     13  C   UNL     1       5.057   4.177  12.162  0.00  0.00    +0.000 A 
ENDBRANCH   7  12
ENDBRANCH   1   7
BRANCH   3  14
ATOM     14  C   UNL     1       4.432   5.378  16.900  0.00  0.00    +0.000 C 
BRANCH  14  15
ATOM     15  C   UNL     1       3.270   6.154  17.515  0.00  0.00    +0.000 C 
BRANCH  15  16
ATOM     16  S   UNL     1       3.231   5.938  19.280  0.00  0.00    +0.000 S 
ATOM     17  O   UNL     1       4.570   5.634  19.742  0.00  0.00    +0.000 OA
ATOM     18  O   UNL     1       2.482   7.042  19.851  0.00  0.00    +0.000 OA
BRANCH  16  19
ATOM     19  C   UNL     1       2.250   4.468  19.472  0.00  0.00    +0.000 A 
ATOM     20  C   UNL     1       1.844   4.090  20.755  0.00  0.00    +0.000 A 
ATOM     21  C   UNL     1       1.061   2.950  20.919  0.00  0.00    +0.000 A 
ATOM     22  C   UNL     1       0.682   2.198  19.806  0.00  0.00    +0.000 A 
ATOM     23  C   UNL     1       1.081   2.584  18.524  0.00  0.00    +0.000 A 
ATOM     24  C   UNL     1       1.868   3.724  18.351  0.00  0.00    +0.000 A 
ENDBRANCH  16  19
ENDBRANCH  15  16
ENDBRANCH  14  15
ENDBRANCH   3  14
TORSDOF 6
ENDMDL
MODEL 8
REMARK VINA RESULT:      -6.8      2.564      7.509
REMARK  Name = 
REMARK  7 active torsions:
REMARK  status: ('A' for Active; 'I' for Inactive)
REMARK    1  A    between atoms: C_1  and  C_2
REMARK    2  A    between atoms: N_5  and  C_6
REMARK    3  A    between atoms: C_6  and  C_7
REMARK    4  A    between atoms: N_9  and  C_10
REMARK    5  A    between atoms: C_10  and  C_11
REMARK    6  A    between atoms: C_11  and  S_12
REMARK    7  A    between atoms: S_12  and  C_15
REMARK                            x       y       z     vdW  Elec       q    Type
REMARK                         _______ _______ _______ _____ _____    ______ ____
ROOT
ATOM      1  C   UNL     1       2.926   4.469  19.603  0.00  0.00    +0.000 C 
ATOM      2  C   UNL     1       2.477   4.510  18.119  0.00  0.00    +0.000 C 
ATOM      3  N   UNL     1       3.120   3.460  17.280  0.00  0.00    +0.000 NA
ATOM      4  C   UNL     1       2.839   2.162  17.930  0.00  0.00    +0.000 C 
ATOM      5  C   UNL     1       3.286   2.112  19.397  0.00  0.00    +0.000 C 
ATOM      6  O   UNL     1       2.684   3.157  20.169  0.00  0.00    +0.000 OA
ENDROOT
BRANCH   1   7
ATOM      7  C   UNL     1       2.173   5.475  20.477  0.00  0.00    +0.000 C 
BRANCH   7  12
ATOM      8  C   UNL     1       0.858  10.205  19.542  0.00  0.00    +0.000 C 
ATOM      9  C   UNL     1       1.522   8.883  19.509  0.00  0.00    +0.000 A 
ATOM     10  C   UNL     1       2.340   8.337  18.496  0.00  0.00    +0.000 A 
ATOM     11  N   UNL     1       2.716   7.082  18.759  0.00  0.00    +0.000 NA
ATOM     12  N   UNL     1       2.132   6.819  19.943  0.00  0.00    +0.000 N 
ATOM     13  C   UNL     1       1.453   7.881  20.454  0.00  0.00    +0.000 A 
ENDBRANCH   7  12
ENDBRANCH   1   7
BRANCH   3  14
ATOM     14  C   UNL     1       4.563   3.723  17.101  0.00  0.00    +0.000 C 
BRANCH  14  15
ATOM     15  C   UNL     1       4.841   5.113  16.532  0.00  0.00    +0.000 C 
BRANCH  15  16
ATOM     16  S   UNL     1       6.577   5.325  16.208  0.00  0.00    +0.000 S 
ATOM     17  O   UNL     1       6.897   6.736  16.289  0.00  0.00    +0.000 OA
ATOM     18  O   UNL     1       7.305   4.352  17.002  0.00  0.00    +0.000 OA
BRANCH  16  19
ATOM     19  C   UNL     1       6.719   4.839  14.503  0.00  0.00    +0.000 A 
ATOM     20  C   UNL     1       7.649   5.492  13.691  0.00  0.00    +0.000 A 
ATOM     21  C   UNL     1       7.783   5.110  12.357  0.00  0.00    +0.000 A 
ATOM     22  C   UNL     1       6.997   4.078  11.845  0.00  0.00    +0.000 A 
ATOM     23  C   UNL     1       6.075   3.420  12.663  0.00  0.00    +0.000 A 
ATOM     24  C   UNL     1       5.933   3.798  14.000  0.00  0.00    +0.000 A 
ENDBRANCH  16  19
ENDBRANCH  15  16
ENDBRANCH  14  15
ENDBRANCH   3  14
TORSDOF 6
ENDMDL
MODEL 9
REMARK VINA RESULT:      -6.8      2.624      7.635
REMARK  Name = 
REMARK  7 active torsions:
REMARK  status: ('A' for Active; 'I' for Inactive)
REMARK    1  A    between atoms: C_1  and  C_2
REMARK    2  A    between atoms: N_5  and  C_6
REMARK    3  A    between atoms: C_6  and  C_7
REMARK    4  A    between atoms: N_9  and  C_10
REMARK    5  A    between atoms: C_10  and  C_11
REMARK    6  A    between atoms: C_11  and  S_12
REMARK    7  A    between atoms: S_12  and  C_15
REMARK                            x       y       z     vdW  Elec       q    Type
REMARK                         _______ _______ _______ _____ _____    ______ ____
ROOT
ATOM      1  C   UNL     1       3.003   4.970  19.594  0.00  0.00    +0.000 C 
ATOM      2  C   UNL     1       2.240   4.429  18.357  0.00  0.00    +0.000 C 
ATOM      3  N   UNL     1       3.093   3.611  17.449  0.00  0.00    +0.000 NA
ATOM      4  C   UNL     1       3.687   2.537  18.273  0.00  0.00    +0.000 C 
ATOM      5  C   UNL     1       4.450   3.066  19.495  0.00  0.00    +0.000 C 
ATOM      6  O   UNL     1       3.616   3.881  20.327  0.00  0.00    +0.000 OA
ENDROOT
BRANCH   1   7
ATOM      7  C   UNL     1       2.092   5.709  20.576  0.00  0.00    +0.000 C 
BRANCH   7  12
ATOM      8  C   UNL     1       1.872  10.065  18.136  0.00  0.00    +0.000 C 
ATOM      9  C   UNL     1       1.653   8.968  19.104  0.00  0.00    +0.000 A 
ATOM     10  C   UNL     1       1.052   9.029  20.381  0.00  0.00    +0.000 A 
ATOM     11  N   UNL     1       1.085   7.857  21.021  0.00  0.00    +0.000 NA
ATOM     12  N   UNL     1       1.714   7.041  20.156  0.00  0.00    +0.000 N 
ATOM     13  C   UNL     1       2.026   7.646  18.978  0.00  0.00    +0.000 A 
ENDBRANCH   7  12
ENDBRANCH   1   7
BRANCH   3  14
ATOM     14  C   UNL     1       4.099   4.446  16.762  0.00  0.00    +0.000 C 
BRANCH  14  15
ATOM     15  C   UNL     1       5.449   3.746  16.622  0.00  0.00    +0.000 C 
BRANCH  15  16
ATOM     16  S   UNL     1       6.703   4.893  16.098  0.00  0.00    +0.000 S 
ATOM     17  O   UNL     1       6.211   6.242  16.295  0.00  0.00    +0.000 OA
ATOM     18  O   UNL     1       7.966   4.473  16.676  0.00  0.00    +0.000 OA
BRANCH  16  19
ATOM     19  C   UNL     1       6.792   4.603  14.346  0.00  0.00    +0.000 A 
ATOM     20  C   UNL     1       7.695   5.348  13.584  0.00  0.00    +0.000 A 
ATOM     21  C   UNL     1       7.787   5.119  12.213  0.00  0.00    +0.000 A 
ATOM     22  C   UNL     1       6.986   4.148  11.612  0.00  0.00    +0.000 A 
ATOM     23  C   UNL     1       6.091   3.399  12.379  0.00  0.00    +0.000 A 
ATOM     24  C   UNL     1       5.990   3.622  13.753  0.00  0.00    +0.000 A 
ENDBRANCH  16  19
ENDBRANCH  15  16
ENDBRANCH  14  15
ENDBRANCH   3  14
TORSDOF 6
ENDMDL
