MODEL 1
REMARK VINA RESULT:      -4.2      0.000      0.000
REMARK  Name = 
REMARK  6 active torsions:
REMARK  status: ('A' for Active; 'I' for Inactive)
REMARK    1  A    between atoms: C_1  and  C_2
REMARK    2  A    between atoms: C_2  and  C_3
REMARK    3  A    between atoms: C_3  and  C_4
REMARK    4  A    between atoms: C_4  and  C_5
REMARK    5  A    between atoms: C_5  and  C_6
REMARK    6  A    between atoms: C_6  and  O_8
REMARK                            x       y       z     vdW  Elec       q    Type
REMARK                         _______ _______ _______ _____ _____    ______ ____
ROOT
ATOM      1  C   UNL     1       5.953   3.817  14.375  0.00  0.00    +0.000 C 
ENDROOT
BRANCH   1   2
ATOM      2  C   UNL     1       6.953   4.564  15.231  0.00  0.00    +0.000 C 
ATOM      3  O   UNL     1       7.663   5.481  14.853  0.00  0.00    +0.000 OA
BRANCH   2   4
ATOM      4  O   UNL     1       6.986   4.104  16.504  0.00  0.00    +0.000 OA
ATOM      5  H   UNL     1       6.682   4.753  17.165  0.00  0.00    +0.000 HD
ENDBRANCH   2   4
ENDBRANCH   1   2
BRANCH   1   6
ATOM      6  C   UNL     1       6.424   3.730  12.924  0.00  0.00    +0.000 C 
BRANCH   6   7
ATOM      7  C   UNL     1       5.330   3.210  11.991  0.00  0.00    +0.000 C 
BRANCH   7   9
ATOM      8  C   UNL     1       7.208   1.796  11.077  0.00  0.00    +0.000 C 
ATOM      9  C   UNL     1       5.722   1.860  11.391  0.00  0.00    +0.000 C 
ENDBRANCH   7   9
ENDBRANCH   6   7
ENDBRANCH   1   6
TORSDOF 5
ENDMDL
MODEL 2
REMARK VINA RESULT:      -4.2      6.279      7.735
REMARK  Name = 
REMARK  6 active torsions:
REMARK  status: ('A' for Active; 'I' for Inactive)
REMARK    1  A    between atoms: C_1  and  C_2
REMARK    2  A    between atoms: C_2  and  C_3
REMARK    3  A    between atoms: C_3  and  C_4
REMARK    4  A    between atoms: C_4  and  C_5
REMARK    5  A    between atoms: C_5  and  C_6
REMARK    6  A    between atoms: C_6  and  O_8
REMARK                            x       y       z     vdW  Elec       q    Type
REMARK                         _______ _______ _______ _____ _____    ______ ____
ROOT
ATOM      1  C   UNL     1       3.443   1.641  18.594  0.00  0.00    +0.000 C 
ENDROOT
BRANCH   1   2
ATOM      2  C   UNL     1       4.504   2.256  19.481  0.00  0.00    +0.000 C 
ATOM      3  O   UNL     1       4.767   1.903  20.618  0.00  0.00    +0.000 OA
BRANCH   2   4
ATOM      4  O   UNL     1       5.158   3.273  18.871  0.00  0.00    +0.000 OA
ATOM      5  H   UNL     1       5.771   3.754  19.456  0.00  0.00    +0.000 HD
ENDBRANCH   2   4
ENDBRANCH   1   2
BRANCH   1   6
ATOM      6  C   UNL     1       2.388   2.672  18.197  0.00  0.00    +0.000 C 
BRANCH   6   7
ATOM      7  C   UNL     1       1.077   2.481  18.961  0.00  0.00    +0.000 C 
BRANCH   7   9
ATOM      8  C   UNL     1       1.375   2.817  21.443  0.00  0.00    +0.000 C 
ATOM      9  C   UNL     1       0.978   3.465  20.126  0.00  0.00    +0.000 C 
ENDBRANCH   7   9
ENDBRANCH   6   7
ENDBRANCH   1   6
TORSDOF 5
ENDMDL
MODEL 3
REMARK VINA RESULT:      -4.2      1.103      1.738
REMARK  Name = 
REMARK  6 active torsions:
REMARK  status: ('A' for Active; 'I' for Inactive)
REMARK    1  A    between atoms: C_1  and  C_2
REMARK    2  A    between atoms: C_2  and  C_3
REMARK    3  A    between atoms: C_3  and  C_4
REMARK    4  A    between atoms: C_4  and  C_5
REMARK    5  A    between atoms: C_5  and  C_6
REMARK    6  A    between atoms: C_6  and  O_8
REMARK                            x       y       z     vdW  Elec       q    Type
REMARK                         _______ _______ _______ _____ _____    ______ ____
ROOT
ATOM      1  C   UNL     1       5.917   3.833  13.974  0.00  0.00    +0.000 C 
ENDROOT
BRANCH   1   2
ATOM      2  C   UNL     1       6.930   4.651  14.745  0.00  0.00    +0.000 C 
ATOM      3  O   UNL     1       7.595   5.566  14.290  0.00  0.00    +0.000 OA
BRANCH   2   4
ATOM      4  O   UNL     1       7.033   4.257  16.037  0.00  0.00    +0.000 OA
ATOM      5  H   UNL     1       6.605   3.402  16.223  0.00  0.00    +0.000 HD
ENDBRANCH   2   4
ENDBRANCH   1   2
BRANCH   1   6
ATOM      6  C   UNL     1       6.312   3.709  12.503  0.00  0.00    +0.000 C 
BRANCH   6   7
ATOM      7  C   UNL     1       5.389   2.764  11.734  0.00  0.00    +0.000 C 
BRANCH   7   9
ATOM      8  C   UNL     1       3.615   3.749  10.235  0.00  0.00    +0.000 C 
ATOM      9  C   UNL     1       3.973   3.334  11.652  0.00  0.00    +0.000 C 
ENDBRANCH   7   9
ENDBRANCH   6   7
ENDBRANCH   1   6
TORSDOF 5
ENDMDL
MODEL 4
REMARK VINA RESULT:      -4.2      5.997      7.564
REMARK  Name = 
REMARK  6 active torsions:
REMARK  status: ('A' for Active; 'I' for Inactive)
REMARK    1  A    between atoms: C_1  and  C_2
REMARK    2  A    between atoms: C_2  and  C_3
REMARK    3  A    between atoms: C_3  and  C_4
REMARK    4  A    between atoms: C_4  and  C_5
REMARK    5  A    between atoms: C_5  and  C_6
REMARK    6  A    between atoms: C_6  and  O_8
REMARK                            x       y       z     vdW  Elec       q    Type
REMARK                         _______ _______ _______ _____ _____    ______ ____
ROOT
ATOM      1  C   UNL     1       3.360   3.133  18.213  0.00  0.00    +0.000 C 
ENDROOT
BRANCH   1   2
ATOM      2  C   UNL     1       4.548   3.353  19.123  0.00  0.00    +0.000 C 
ATOM      3  O   UNL     1       5.112   4.419  19.305  0.00  0.00    +0.000 OA
BRANCH   2   4
ATOM      4  O   UNL     1       4.942   2.214  19.740  0.00  0.00    +0.000 OA
ATOM      5  H   UNL     1       5.729   1.801  19.340  0.00  0.00    +0.000 HD
ENDBRANCH   2   4
ENDBRANCH   1   2
BRANCH   1   6
ATOM      6  C   UNL     1       2.419   2.071  18.779  0.00  0.00    +0.000 C 
BRANCH   6   7
ATOM      7  C   UNL     1       1.014   2.619  19.034  0.00  0.00    +0.000 C 
BRANCH   7   9
ATOM      8  C   UNL     1       1.526   2.746  21.501  0.00  0.00    +0.000 C 
ATOM      9  C   UNL     1       0.990   3.491  20.289  0.00  0.00    +0.000 C 
ENDBRANCH   7   9
ENDBRANCH   6   7
ENDBRANCH   1   6
TORSDOF 5
ENDMDL
MODEL 5
REMARK VINA RESULT:      -4.1      6.532      7.815
REMARK  Name = 
REMARK  6 active torsions:
REMARK  status: ('A' for Active; 'I' for Inactive)
REMARK    1  A    between atoms: C_1  and  C_2
REMARK    2  A    between atoms: C_2  and  C_3
REMARK    3  A    between atoms: C_3  and  C_4
REMARK    4  A    between atoms: C_4  and  C_5
REMARK    5  A    between atoms: C_5  and  C_6
REMARK    6  A    between atoms: C_6  and  O_8
REMARK                            x       y       z     vdW  Elec       q    Type
REMARK                         _______ _______ _______ _____ _____    ______ ____
ROOT
ATOM      1  C   UNL     1       0.973   3.812  20.086  0.00  0.00    +0.000 C 
ENDROOT
BRANCH   1   2
ATOM      2  C   UNL     1       1.917   3.995  21.254  0.00  0.00    +0.000 C 
ATOM      3  O   UNL     1       2.163   3.156  22.104  0.00  0.00    +0.000 OA
BRANCH   2   4
ATOM      4  O   UNL     1       2.485   5.224  21.269  0.00  0.00    +0.000 OA
ATOM      5  H   UNL     1       3.182   5.344  20.599  0.00  0.00    +0.000 HD
ENDBRANCH   2   4
ENDBRANCH   1   2
BRANCH   1   6
ATOM      6  C   UNL     1       1.174   2.451  19.421  0.00  0.00    +0.000 C 
BRANCH   6   7
ATOM      7  C   UNL     1       1.917   2.562  18.089  0.00  0.00    +0.000 C 
BRANCH   7   9
ATOM      8  C   UNL     1       3.578   4.306  17.339  0.00  0.00    +0.000 C 
ATOM      9  C   UNL     1       2.130   4.026  17.705  0.00  0.00    +0.000 C 
ENDBRANCH   7   9
ENDBRANCH   6   7
ENDBRANCH   1   6
TORSDOF 5
ENDMDL
MODEL 6
REMARK VINA RESULT:      -4.1      5.313      6.844
REMARK  Name = 
REMARK  6 active torsions:
REMARK  status: ('A' for Active; 'I' for Inactive)
REMARK    1  A    between atoms: C_1  and  C_2
REMARK    2  A    between atoms: C_2  and  C_3
REMARK    3  A    between atoms: C_3  and  C_4
REMARK    4  A    between atoms: C_4  and  C_5
REMARK    5  A    between atoms: C_5  and  C_6
REMARK    6  A    between atoms: C_6  and  O_8
REMARK                            x       y       z     vdW  Elec       q    Type
REMARK                         _______ _______ _______ _____ _____    ______ ____
ROOT
ATOM      1  C   UNL     1       3.942   4.197  17.389  0.00  0.00    +0.000 C 
ENDROOT
BRANCH   1   2
ATOM      2  C   UNL     1       4.552   4.282  18.771  0.00  0.00    +0.000 C 
ATOM      3  O   UNL     1       4.434   5.221  19.540  0.00  0.00    +0.000 OA
BRANCH   2   4
ATOM      4  O   UNL     1       5.268   3.177  19.087  0.00  0.00    +0.000 OA
ATOM      5  H   UNL     1       5.525   2.640  18.315  0.00  0.00    +0.000 HD
ENDBRANCH   2   4
ENDBRANCH   1   2
BRANCH   1   6
ATOM      6  C   UNL     1       2.732   3.265  17.375  0.00  0.00    +0.000 C 
BRANCH   6   7
ATOM      7  C   UNL     1       1.507   3.898  18.037  0.00  0.00    +0.000 C 
BRANCH   7   9
ATOM      8  C   UNL     1       1.133   3.788  20.529  0.00  0.00    +0.000 C 
ATOM      9  C   UNL     1       1.020   3.045  19.208  0.00  0.00    +0.000 C 
ENDBRANCH   7   9
ENDBRANCH   6   7
ENDBRANCH   1   6
TORSDOF 5
ENDMDL
MODEL 7
REMARK VINA RESULT:      -4.1      1.398      2.237
REMARK  Name = 
REMARK  6 active torsions:
REMARK  status: ('A' for Active; 'I' for Inactive)
REMARK    1  A    between atoms: C_1  and  C_2
REMARK    2  A    between atoms: C_2  and  C_3
REMARK    3  A    between atoms: C_3  and  C_4
REMARK    4  A    between atoms: C_4  and  C_5
REMARK    5  A    between atoms: C_5  and  C_6
REMARK    6  A    between atoms: C_6  and  O_8
REMARK                            x       y       z     vdW  Elec       q    Type
REMARK                         _______ _______ _______ _____ _____    ______ ____
ROOT
ATOM      1  C   UNL     1       6.295   3.778  14.110  0.00  0.00    +0.000 C 
ENDROOT
BRANCH   1   2
ATOM      2  C   UNL     1       7.143   5.003  14.373  0.00  0.00    +0.000 C 
ATOM      3  O   UNL     1       7.298   5.537  15.459  0.00  0.00    +0.000 OA
BRANCH   2   4
ATOM      4  O   UNL     1       7.737   5.470  13.249  0.00  0.00    +0.000 OA
ATOM      5  H   UNL     1       7.195   6.111  12.754  0.00  0.00    +0.000 HD
ENDBRANCH   2   4
ENDBRANCH   1   2
BRANCH   1   6
ATOM      6  C   UNL     1       5.177   4.083  13.114  0.00  0.00    +0.000 C 
BRANCH   6   7
ATOM      7  C   UNL     1       5.304   3.261  11.831  0.00  0.00    +0.000 C 
BRANCH   7   9
ATOM      8  C   UNL     1       3.482   3.944  10.226  0.00  0.00    +0.000 C 
ATOM      9  C   UNL     1       3.926   2.925  11.262  0.00  0.00    +0.000 C 
ENDBRANCH   7   9
ENDBRANCH   6   7
ENDBRANCH   1   6
TORSDOF 5
ENDMDL
MODEL 8
REMARK VINA RESULT:      -4.0      3.249      4.965
REMARK  Name = 
REMARK  6 active torsions:
REMARK  status: ('A' for Active; 'I' for Inactive)
REMARK    1  A    between atoms: C_1  and  C_2
REMARK    2  A    between atoms: C_2  and  C_3
REMARK    3  A    between atoms: C_3  and  C_4
REMARK    4  A    between atoms: C_4  and  C_5
REMARK    5  A    between atoms: C_5  and  C_6
REMARK    6  A    between atoms: C_6  and  O_8
REMARK                            x       y       z     vdW  Elec       q    Type
REMARK                         _______ _______ _______ _____ _____    ______ ____
ROOT
ATOM      1  C   UNL     1       5.868   3.985  15.883  0.00  0.00    +0.000 C 
ENDROOT
BRANCH   1   2
ATOM      2  C   UNL     1       7.172   4.719  16.108  0.00  0.00    +0.000 C 
ATOM      3  O   UNL     1       7.526   5.729  15.524  0.00  0.00    +0.000 OA
BRANCH   2   4
ATOM      4  O   UNL     1       7.939   4.128  17.055  0.00  0.00    +0.000 OA
ATOM      5  H   UNL     1       8.166   4.713  17.799  0.00  0.00    +0.000 HD
ENDBRANCH   2   4
ENDBRANCH   1   2
BRANCH   1   6
ATOM      6  C   UNL     1       4.780   4.488  16.830  0.00  0.00    +0.000 C 
BRANCH   6   7
ATOM      7  C   UNL     1       3.921   3.349  17.381  0.00  0.00    +0.000 C 
BRANCH   7   9
ATOM      8  C   UNL     1       1.617   4.320  17.713  0.00  0.00    +0.000 C 
ATOM      9  C   UNL     1       2.903   3.876  18.392  0.00  0.00    +0.000 C 
ENDBRANCH   7   9
ENDBRANCH   6   7
ENDBRANCH   1   6
TORSDOF 5
ENDMDL
MODEL 9
REMARK VINA RESULT:      -4.0      5.805      7.396
REMARK  Name = 
REMARK  6 active torsions:
REMARK  status: ('A' for Active; 'I' for Inactive)
REMARK    1  A    between atoms: C_1  and  C_2
REMARK    2  A    between atoms: C_2  and  C_3
REMARK    3  A    between atoms: C_3  and  C_4
REMARK    4  A    between atoms: C_4  and  C_5
REMARK    5  A    between atoms: C_5  and  C_6
REMARK    6  A    between atoms: C_6  and  O_8
REMARK                            x       y       z     vdW  Elec       q    Type
REMARK                         _______ _______ _______ _____ _____    ______ ____
ROOT
ATOM      1  C   UNL     1       3.119   4.605  18.291  0.00  0.00    +0.000 C 
ENDROOT
BRANCH   1   2
ATOM      2  C   UNL     1       4.179   3.539  18.463  0.00  0.00    +0.000 C 
ATOM      3  O   UNL     1       4.658   3.183  19.526  0.00  0.00    +0.000 OA
BRANCH   2   4
ATOM      4  O   UNL     1       4.559   2.996  17.282  0.00  0.00    +0.000 OA
ATOM      5  H   UNL     1       4.873   2.076  17.355  0.00  0.00    +0.000 HD
ENDBRANCH   2   4
ENDBRANCH   1   2
BRANCH   1   6
ATOM      6  C   UNL     1       1.807   4.005  17.789  0.00  0.00    +0.000 C 
BRANCH   6   7
ATOM      7  C   UNL     1       1.203   3.018  18.788  0.00  0.00    +0.000 C 
BRANCH   7   9
ATOM      8  C   UNL     1       1.399   2.882  21.299  0.00  0.00    +0.000 C 
ATOM      9  C   UNL     1       0.906   3.706  20.120  0.00  0.00    +0.000 C 
ENDBRANCH   7   9
ENDBRANCH   6   7
ENDBRANCH   1   6
TORSDOF 5
ENDMDL
