MODEL 1
REMARK VINA RESULT:      -6.9      0.000      0.000
REMARK  Name = 
REMARK  6 active torsions:
REMARK  status: ('A' for Active; 'I' for Inactive)
REMARK    1  A    between atoms: C_1  and  N_2
REMARK    2  A    between atoms: C_6  and  C_7
REMARK    3  A    between atoms: C_10  and  O_11
REMARK    4  A    between atoms: O_11  and  C_12
REMARK    5  A    between atoms: N_17  and  N_18
REMARK    6  A    between atoms: C_19  and  C_20
REMARK                            x       y       z     vdW  Elec       q    Type
REMARK                         _______ _______ _______ _____ _____    ______ ____
ROOT
ATOM      1  C   UNL     1       0.997   2.334  20.157  0.00  0.00    +0.000 C 
ATOM      2  N   UNL     1       1.626   3.637  19.993  0.00  0.00    +0.000 NA
ATOM      3  C   UNL     1       2.799   3.727  19.465  0.00  0.00    +0.000 A 
ATOM      4  S   UNL     1       3.730   2.298  18.871  0.00  0.00    +0.000 S 
ATOM      5  C   UNL     1       5.052   3.309  18.367  0.00  0.00    +0.000 A 
ATOM      6  C   UNL     1       4.810   4.603  18.627  0.00  0.00    +0.000 A 
ATOM      7  N   UNL     1       3.581   4.889  19.248  0.00  0.00    +0.000 N 
ENDROOT
BRANCH   6   8
ATOM      8  C   UNL     1       5.795   5.647  18.330  0.00  0.00    +0.000 A 
ATOM      9  C   UNL     1       5.566   6.579  17.312  0.00  0.00    +0.000 A 
ATOM     10  C   UNL     1       6.519   7.563  17.035  0.00  0.00    +0.000 A 
ATOM     11  C   UNL     1       7.702   7.638  17.775  0.00  0.00    +0.000 A 
ATOM     12  C   UNL     1       7.950   6.694  18.771  0.00  0.00    +0.000 A 
ATOM     13  C   UNL     1       6.998   5.705  19.047  0.00  0.00    +0.000 A 
BRANCH  11  14
ATOM     14  O   UNL     1       8.550   8.645  17.408  0.00  0.00    +0.000 OA
BRANCH  14  15
ATOM     15  C   UNL     1       8.615   9.748  18.297  0.00  0.00    +0.000 C 
ATOM     16  F   UNL     1       9.190   9.341  19.455  0.00  0.00    +0.000 F 
ATOM     17  F   UNL     1       9.454  10.660  17.743  0.00  0.00    +0.000 F 
ENDBRANCH  14  15
ENDBRANCH  11  14
ENDBRANCH   6   8
BRANCH   7  18
ATOM     18  N   UNL     1       3.221   6.212  19.486  0.00  0.00    +0.000 NA
ATOM     19  C   UNL     1       2.461   6.789  18.609  0.00  0.00    +0.000 C 
BRANCH  19  20
ATOM     20  C   UNL     1       2.003   8.156  18.782  0.00  0.00    +0.000 A 
ATOM     21  C   UNL     1       1.981   9.216  17.896  0.00  0.00    +0.000 A 
ATOM     22  C   UNL     1       1.468  10.411  18.495  0.00  0.00    +0.000 A 
ATOM     23  C   UNL     1       1.118  10.220  19.814  0.00  0.00    +0.000 A 
ATOM     24  S   UNL     1       1.393   8.610  20.318  0.00  0.00    +0.000 S 
ENDBRANCH  19  20
ENDBRANCH   7  18
TORSDOF 5
ENDMDL
MODEL 2
REMARK VINA RESULT:      -6.7      1.055      1.553
REMARK  Name = 
REMARK  6 active torsions:
REMARK  status: ('A' for Active; 'I' for Inactive)
REMARK    1  A    between atoms: C_1  and  N_2
REMARK    2  A    between atoms: C_6  and  C_7
REMARK    3  A    between atoms: C_10  and  O_11
REMARK    4  A    between atoms: O_11  and  C_12
REMARK    5  A    between atoms: N_17  and  N_18
REMARK    6  A    between atoms: C_19  and  C_20
REMARK                            x       y       z     vdW  Elec       q    Type
REMARK                         _______ _______ _______ _____ _____    ______ ____
ROOT
ATOM      1  C   UNL     1       0.427   1.937  18.959  0.00  0.00    +0.000 C 
ATOM      2  N   UNL     1       1.040   3.244  18.771  0.00  0.00    +0.000 NA
ATOM      3  C   UNL     1       2.296   3.336  18.494  0.00  0.00    +0.000 A 
ATOM      4  S   UNL     1       3.373   1.900  18.291  0.00  0.00    +0.000 S 
ATOM      5  C   UNL     1       4.744   2.915  17.954  0.00  0.00    +0.000 A 
ATOM      6  C   UNL     1       4.415   4.216  17.995  0.00  0.00    +0.000 A 
ATOM      7  N   UNL     1       3.074   4.505  18.304  0.00  0.00    +0.000 N 
ENDROOT
BRANCH   6   8
ATOM      8  C   UNL     1       5.412   5.271  17.785  0.00  0.00    +0.000 A 
ATOM      9  C   UNL     1       6.454   5.462  18.699  0.00  0.00    +0.000 A 
ATOM     10  C   UNL     1       7.391   6.478  18.490  0.00  0.00    +0.000 A 
ATOM     11  C   UNL     1       7.309   7.303  17.366  0.00  0.00    +0.000 A 
ATOM     12  C   UNL     1       6.256   7.138  16.467  0.00  0.00    +0.000 A 
ATOM     13  C   UNL     1       5.313   6.123  16.677  0.00  0.00    +0.000 A 
BRANCH  11  14
ATOM     14  O   UNL     1       8.285   8.255  17.276  0.00  0.00    +0.000 OA
BRANCH  14  15
ATOM     15  C   UNL     1       8.250   9.267  18.269  0.00  0.00    +0.000 C 
ATOM     16  F   UNL     1       9.320   9.112  19.087  0.00  0.00    +0.000 F 
ATOM     17  F   UNL     1       8.412  10.457  17.634  0.00  0.00    +0.000 F 
ENDBRANCH  14  15
ENDBRANCH  11  14
ENDBRANCH   6   8
BRANCH   7  18
ATOM     18  N   UNL     1       2.635   5.826  18.295  0.00  0.00    +0.000 NA
ATOM     19  C   UNL     1       2.301   6.349  19.434  0.00  0.00    +0.000 C 
BRANCH  19  20
ATOM     20  C   UNL     1       1.862   7.729  19.537  0.00  0.00    +0.000 A 
ATOM     21  C   UNL     1       1.324   8.424  20.602  0.00  0.00    +0.000 A 
ATOM     22  C   UNL     1       0.999   9.775  20.258  0.00  0.00    +0.000 A 
ATOM     23  C   UNL     1       1.301  10.062  18.944  0.00  0.00    +0.000 A 
ATOM     24  S   UNL     1       1.982   8.716  18.140  0.00  0.00    +0.000 S 
ENDBRANCH  19  20
ENDBRANCH   7  18
TORSDOF 5
ENDMDL
MODEL 3
REMARK VINA RESULT:      -6.6      0.680      1.273
REMARK  Name = 
REMARK  6 active torsions:
REMARK  status: ('A' for Active; 'I' for Inactive)
REMARK    1  A    between atoms: C_1  and  N_2
REMARK    2  A    between atoms: C_6  and  C_7
REMARK    3  A    between atoms: C_10  and  O_11
REMARK    4  A    between atoms: O_11  and  C_12
REMARK    5  A    between atoms: N_17  and  N_18
REMARK    6  A    between atoms: C_19  and  C_20
REMARK                            x       y       z     vdW  Elec       q    Type
REMARK                         _______ _______ _______ _____ _____    ______ ____
ROOT
ATOM      1  C   UNL     1       0.962   2.693  21.225  0.00  0.00    +0.000 C 
ATOM      2  N   UNL     1       1.597   3.937  20.814  0.00  0.00    +0.000 NA
ATOM      3  C   UNL     1       2.729   3.913  20.196  0.00  0.00    +0.000 A 
ATOM      4  S   UNL     1       3.591   2.384  19.770  0.00  0.00    +0.000 S 
ATOM      5  C   UNL     1       4.888   3.268  19.020  0.00  0.00    +0.000 A 
ATOM      6  C   UNL     1       4.685   4.593  19.090  0.00  0.00    +0.000 A 
ATOM      7  N   UNL     1       3.511   5.005  19.744  0.00  0.00    +0.000 N 
ENDROOT
BRANCH   6   8
ATOM      8  C   UNL     1       5.662   5.552  18.564  0.00  0.00    +0.000 A 
ATOM      9  C   UNL     1       6.938   5.655  19.129  0.00  0.00    +0.000 A 
ATOM     10  C   UNL     1       7.856   6.580  18.623  0.00  0.00    +0.000 A 
ATOM     11  C   UNL     1       7.518   7.401  17.544  0.00  0.00    +0.000 A 
ATOM     12  C   UNL     1       6.238   7.325  16.996  0.00  0.00    +0.000 A 
ATOM     13  C   UNL     1       5.316   6.401  17.505  0.00  0.00    +0.000 A 
BRANCH  11  14
ATOM     14  O   UNL     1       8.502   8.260  17.142  0.00  0.00    +0.000 OA
BRANCH  14  15
ATOM     15  C   UNL     1       8.609   9.462  17.886  0.00  0.00    +0.000 C 
ATOM     16  F   UNL     1       7.364   9.951  18.107  0.00  0.00    +0.000 F 
ATOM     17  F   UNL     1       9.122   9.137  19.101  0.00  0.00    +0.000 F 
ENDBRANCH  14  15
ENDBRANCH  11  14
ENDBRANCH   6   8
BRANCH   7  18
ATOM     18  N   UNL     1       3.190   6.358  19.797  0.00  0.00    +0.000 NA
ATOM     19  C   UNL     1       2.309   6.794  18.952  0.00  0.00    +0.000 C 
BRANCH  19  20
ATOM     20  C   UNL     1       1.881   8.181  18.947  0.00  0.00    +0.000 A 
ATOM     21  C   UNL     1       1.998   9.155  17.975  0.00  0.00    +0.000 A 
ATOM     22  C   UNL     1       1.462  10.413  18.400  0.00  0.00    +0.000 A 
ATOM     23  C   UNL     1       0.956  10.353  19.681  0.00  0.00    +0.000 A 
ATOM     24  S   UNL     1       1.115   8.790  20.355  0.00  0.00    +0.000 S 
ENDBRANCH  19  20
ENDBRANCH   7  18
TORSDOF 5
ENDMDL
MODEL 4
REMARK VINA RESULT:      -6.6      2.908      3.384
REMARK  Name = 
REMARK  6 active torsions:
REMARK  status: ('A' for Active; 'I' for Inactive)
REMARK    1  A    between atoms: C_1  and  N_2
REMARK    2  A    between atoms: C_6  and  C_7
REMARK    3  A    between atoms: C_10  and  O_11
REMARK    4  A    between atoms: O_11  and  C_12
REMARK    5  A    between atoms: N_17  and  N_18
REMARK    6  A    between atoms: C_19  and  C_20
REMARK                            x       y       z     vdW  Elec       q    Type
REMARK                         _______ _______ _______ _____ _____    ______ ____
ROOT
ATOM      1  C   UNL     1       1.274   2.771  22.216  0.00  0.00    +0.000 C 
ATOM      2  N   UNL     1       1.678   3.656  21.132  0.00  0.00    +0.000 NA
ATOM      3  C   UNL     1       2.706   3.366  20.409  0.00  0.00    +0.000 A 
ATOM      4  S   UNL     1       3.693   1.871  20.645  0.00  0.00    +0.000 S 
ATOM      5  C   UNL     1       4.746   2.301  19.329  0.00  0.00    +0.000 A 
ATOM      6  C   UNL     1       4.384   3.466  18.769  0.00  0.00    +0.000 A 
ATOM      7  N   UNL     1       3.268   4.105  19.338  0.00  0.00    +0.000 N 
ENDROOT
BRANCH   6   8
ATOM      8  C   UNL     1       5.145   4.060  17.666  0.00  0.00    +0.000 A 
ATOM      9  C   UNL     1       6.402   4.632  17.891  0.00  0.00    +0.000 A 
ATOM     10  C   UNL     1       7.111   5.203  16.830  0.00  0.00    +0.000 A 
ATOM     11  C   UNL     1       6.583   5.200  15.536  0.00  0.00    +0.000 A 
ATOM     12  C   UNL     1       5.318   4.660  15.311  0.00  0.00    +0.000 A 
ATOM     13  C   UNL     1       4.604   4.091  16.373  0.00  0.00    +0.000 A 
BRANCH  11  14
ATOM     14  O   UNL     1       7.374   5.787  14.589  0.00  0.00    +0.000 OA
BRANCH  14  15
ATOM     15  C   UNL     1       7.818   4.935  13.546  0.00  0.00    +0.000 C 
ATOM     16  F   UNL     1       6.735   4.409  12.923  0.00  0.00    +0.000 F 
ATOM     17  F   UNL     1       8.453   5.715  12.634  0.00  0.00    +0.000 F 
ENDBRANCH  14  15
ENDBRANCH  11  14
ENDBRANCH   6   8
BRANCH   7  18
ATOM     18  N   UNL     1       2.784   5.280  18.772  0.00  0.00    +0.000 NA
ATOM     19  C   UNL     1       2.743   6.332  19.528  0.00  0.00    +0.000 C 
BRANCH  19  20
ATOM     20  C   UNL     1       2.287   7.614  19.022  0.00  0.00    +0.000 A 
ATOM     21  C   UNL     1       2.451   8.202  17.783  0.00  0.00    +0.000 A 
ATOM     22  C   UNL     1       1.859   9.504  17.718  0.00  0.00    +0.000 A 
ATOM     23  C   UNL     1       1.265   9.862  18.909  0.00  0.00    +0.000 A 
ATOM     24  S   UNL     1       1.409   8.631  20.087  0.00  0.00    +0.000 S 
ENDBRANCH  19  20
ENDBRANCH   7  18
TORSDOF 5
ENDMDL
MODEL 5
REMARK VINA RESULT:      -6.4      3.006      3.350
REMARK  Name = 
REMARK  6 active torsions:
REMARK  status: ('A' for Active; 'I' for Inactive)
REMARK    1  A    between atoms: C_1  and  N_2
REMARK    2  A    between atoms: C_6  and  C_7
REMARK    3  A    between atoms: C_10  and  O_11
REMARK    4  A    between atoms: O_11  and  C_12
REMARK    5  A    between atoms: N_17  and  N_18
REMARK    6  A    between atoms: C_19  and  C_20
REMARK                            x       y       z     vdW  Elec       q    Type
REMARK                         _______ _______ _______ _____ _____    ______ ____
ROOT
ATOM      1  C   UNL     1       1.196   2.835  22.024  0.00  0.00    +0.000 C 
ATOM      2  N   UNL     1       1.868   3.799  21.165  0.00  0.00    +0.000 NA
ATOM      3  C   UNL     1       2.684   3.393  20.251  0.00  0.00    +0.000 A 
ATOM      4  S   UNL     1       3.036   1.649  19.943  0.00  0.00    +0.000 S 
ATOM      5  C   UNL     1       4.128   2.049  18.649  0.00  0.00    +0.000 A 
ATOM      6  C   UNL     1       4.217   3.377  18.473  0.00  0.00    +0.000 A 
ATOM      7  N   UNL     1       3.448   4.169  19.344  0.00  0.00    +0.000 N 
ENDROOT
BRANCH   6   8
ATOM      8  C   UNL     1       5.109   3.963  17.467  0.00  0.00    +0.000 A 
ATOM      9  C   UNL     1       4.679   4.142  16.148  0.00  0.00    +0.000 A 
ATOM     10  C   UNL     1       5.543   4.694  15.198  0.00  0.00    +0.000 A 
ATOM     11  C   UNL     1       6.837   5.085  15.554  0.00  0.00    +0.000 A 
ATOM     12  C   UNL     1       7.281   4.882  16.860  0.00  0.00    +0.000 A 
ATOM     13  C   UNL     1       6.418   4.324  17.812  0.00  0.00    +0.000 A 
BRANCH  11  14
ATOM     14  O   UNL     1       7.581   5.612  14.537  0.00  0.00    +0.000 OA
BRANCH  14  15
ATOM     15  C   UNL     1       7.188   5.232  13.228  0.00  0.00    +0.000 C 
ATOM     16  F   UNL     1       8.087   5.729  12.343  0.00  0.00    +0.000 F 
ATOM     17  F   UNL     1       7.279   3.879  13.159  0.00  0.00    +0.000 F 
ENDBRANCH  14  15
ENDBRANCH  11  14
ENDBRANCH   6   8
BRANCH   7  18
ATOM     18  N   UNL     1       3.428   5.551  19.181  0.00  0.00    +0.000 NA
ATOM     19  C   UNL     1       2.308   6.090  18.811  0.00  0.00    +0.000 C 
BRANCH  19  20
ATOM     20  C   UNL     1       2.175   7.526  18.646  0.00  0.00    +0.000 A 
ATOM     21  C   UNL     1       2.528   8.347  17.593  0.00  0.00    +0.000 A 
ATOM     22  C   UNL     1       2.244   9.724  17.861  0.00  0.00    +0.000 A 
ATOM     23  C   UNL     1       1.685   9.904  19.108  0.00  0.00    +0.000 A 
ATOM     24  S   UNL     1       1.493   8.423  19.939  0.00  0.00    +0.000 S 
ENDBRANCH  19  20
ENDBRANCH   7  18
TORSDOF 5
ENDMDL
MODEL 6
REMARK VINA RESULT:      -6.4      2.998      3.415
REMARK  Name = 
REMARK  6 active torsions:
REMARK  status: ('A' for Active; 'I' for Inactive)
REMARK    1  A    between atoms: C_1  and  N_2
REMARK    2  A    between atoms: C_6  and  C_7
REMARK    3  A    between atoms: C_10  and  O_11
REMARK    4  A    between atoms: O_11  and  C_12
REMARK    5  A    between atoms: N_17  and  N_18
REMARK    6  A    between atoms: C_19  and  C_20
REMARK                            x       y       z     vdW  Elec       q    Type
REMARK                         _______ _______ _______ _____ _____    ______ ____
ROOT
ATOM      1  C   UNL     1       1.245   2.667  22.322  0.00  0.00    +0.000 C 
ATOM      2  N   UNL     1       1.612   3.581  21.250  0.00  0.00    +0.000 NA
ATOM      3  C   UNL     1       2.614   3.311  20.484  0.00  0.00    +0.000 A 
ATOM      4  S   UNL     1       3.605   1.809  20.643  0.00  0.00    +0.000 S 
ATOM      5  C   UNL     1       4.613   2.274  19.304  0.00  0.00    +0.000 A 
ATOM      6  C   UNL     1       4.234   3.455  18.790  0.00  0.00    +0.000 A 
ATOM      7  N   UNL     1       3.140   4.079  19.416  0.00  0.00    +0.000 N 
ENDROOT
BRANCH   6   8
ATOM      8  C   UNL     1       4.957   4.080  17.678  0.00  0.00    +0.000 A 
ATOM      9  C   UNL     1       4.551   3.873  16.355  0.00  0.00    +0.000 A 
ATOM     10  C   UNL     1       5.256   4.468  15.305  0.00  0.00    +0.000 A 
ATOM     11  C   UNL     1       6.362   5.283  15.560  0.00  0.00    +0.000 A 
ATOM     12  C   UNL     1       6.790   5.469  16.874  0.00  0.00    +0.000 A 
ATOM     13  C   UNL     1       6.087   4.870  17.928  0.00  0.00    +0.000 A 
BRANCH  11  14
ATOM     14  O   UNL     1       6.963   5.806  14.450  0.00  0.00    +0.000 OA
BRANCH  14  15
ATOM     15  C   UNL     1       7.625   4.873  13.613  0.00  0.00    +0.000 C 
ATOM     16  F   UNL     1       6.719   4.332  12.762  0.00  0.00    +0.000 F 
ATOM     17  F   UNL     1       8.506   5.572  12.852  0.00  0.00    +0.000 F 
ENDBRANCH  14  15
ENDBRANCH  11  14
ENDBRANCH   6   8
BRANCH   7  18
ATOM     18  N   UNL     1       2.639   5.271  18.899  0.00  0.00    +0.000 NA
ATOM     19  C   UNL     1       2.691   6.318  19.662  0.00  0.00    +0.000 C 
BRANCH  19  20
ATOM     20  C   UNL     1       2.226   7.615  19.204  0.00  0.00    +0.000 A 
ATOM     21  C   UNL     1       1.358   8.516  19.789  0.00  0.00    +0.000 A 
ATOM     22  C   UNL     1       1.148   9.673  18.973  0.00  0.00    +0.000 A 
ATOM     23  C   UNL     1       1.862   9.613  17.796  0.00  0.00    +0.000 A 
ATOM     24  S   UNL     1       2.787   8.180  17.686  0.00  0.00    +0.000 S 
ENDBRANCH  19  20
ENDBRANCH   7  18
TORSDOF 5
ENDMDL
MODEL 7
REMARK VINA RESULT:      -6.3      0.959      1.137
REMARK  Name = 
REMARK  6 active torsions:
REMARK  status: ('A' for Active; 'I' for Inactive)
REMARK    1  A    between atoms: C_1  and  N_2
REMARK    2  A    between atoms: C_6  and  C_7
REMARK    3  A    between atoms: C_10  and  O_11
REMARK    4  A    between atoms: O_11  and  C_12
REMARK    5  A    between atoms: N_17  and  N_18
REMARK    6  A    between atoms: C_19  and  C_20
REMARK                            x       y       z     vdW  Elec       q    Type
REMARK                         _______ _______ _______ _____ _____    ______ ____
ROOT
ATOM      1  C   UNL     1       0.615   2.328  18.913  0.00  0.00    +0.000 C 
ATOM      2  N   UNL     1       1.339   3.582  19.074  0.00  0.00    +0.000 NA
ATOM      3  C   UNL     1       2.536   3.702  18.608  0.00  0.00    +0.000 A 
ATOM      4  S   UNL     1       3.389   2.382  17.717  0.00  0.00    +0.000 S 
ATOM      5  C   UNL     1       4.797   3.377  17.494  0.00  0.00    +0.000 A 
ATOM      6  C   UNL     1       4.635   4.590  18.045  0.00  0.00    +0.000 A 
ATOM      7  N   UNL     1       3.405   4.818  18.687  0.00  0.00    +0.000 N 
ENDROOT
BRANCH   6   8
ATOM      8  C   UNL     1       5.702   5.596  18.024  0.00  0.00    +0.000 A 
ATOM      9  C   UNL     1       5.629   6.699  17.167  0.00  0.00    +0.000 A 
ATOM     10  C   UNL     1       6.658   7.645  17.152  0.00  0.00    +0.000 A 
ATOM     11  C   UNL     1       7.763   7.508  17.997  0.00  0.00    +0.000 A 
ATOM     12  C   UNL     1       7.857   6.396  18.832  0.00  0.00    +0.000 A 
ATOM     13  C   UNL     1       6.828   5.445  18.845  0.00  0.00    +0.000 A 
BRANCH  11  14
ATOM     14  O   UNL     1       8.698   8.499  17.888  0.00  0.00    +0.000 OA
BRANCH  14  15
ATOM     15  C   UNL     1       8.323   9.759  18.421  0.00  0.00    +0.000 C 
ATOM     16  F   UNL     1       9.440  10.508  18.594  0.00  0.00    +0.000 F 
ATOM     17  F   UNL     1       7.575  10.385  17.477  0.00  0.00    +0.000 F 
ENDBRANCH  14  15
ENDBRANCH  11  14
ENDBRANCH   6   8
BRANCH   7  18
ATOM     18  N   UNL     1       3.129   6.073  19.221  0.00  0.00    +0.000 NA
ATOM     19  C   UNL     1       2.238   6.794  18.616  0.00  0.00    +0.000 C 
BRANCH  19  20
ATOM     20  C   UNL     1       1.854   8.103  19.113  0.00  0.00    +0.000 A 
ATOM     21  C   UNL     1       1.589   8.536  20.398  0.00  0.00    +0.000 A 
ATOM     22  C   UNL     1       1.212   9.916  20.438  0.00  0.00    +0.000 A 
ATOM     23  C   UNL     1       1.202  10.486  19.183  0.00  0.00    +0.000 A 
ATOM     24  S   UNL     1       1.658   9.369  17.973  0.00  0.00    +0.000 S 
ENDBRANCH  19  20
ENDBRANCH   7  18
TORSDOF 5
ENDMDL
MODEL 8
REMARK VINA RESULT:      -6.2      2.861      4.699
REMARK  Name = 
REMARK  6 active torsions:
REMARK  status: ('A' for Active; 'I' for Inactive)
REMARK    1  A    between atoms: C_1  and  N_2
REMARK    2  A    between atoms: C_6  and  C_7
REMARK    3  A    between atoms: C_10  and  O_11
REMARK    4  A    between atoms: O_11  and  C_12
REMARK    5  A    between atoms: N_17  and  N_18
REMARK    6  A    between atoms: C_19  and  C_20
REMARK                            x       y       z     vdW  Elec       q    Type
REMARK                         _______ _______ _______ _____ _____    ______ ____
ROOT
ATOM      1  C   UNL     1       1.814   1.438  18.330  0.00  0.00    +0.000 C 
ATOM      2  N   UNL     1       2.927   2.129  17.695  0.00  0.00    +0.000 NA
ATOM      3  C   UNL     1       3.435   3.180  18.243  0.00  0.00    +0.000 A 
ATOM      4  S   UNL     1       2.851   3.857  19.813  0.00  0.00    +0.000 S 
ATOM      5  C   UNL     1       4.030   5.135  19.755  0.00  0.00    +0.000 A 
ATOM      6  C   UNL     1       4.788   5.055  18.650  0.00  0.00    +0.000 A 
ATOM      7  N   UNL     1       4.491   3.998  17.771  0.00  0.00    +0.000 N 
ENDROOT
BRANCH   6   8
ATOM      8  C   UNL     1       5.827   6.047  18.354  0.00  0.00    +0.000 A 
ATOM      9  C   UNL     1       7.116   5.911  18.881  0.00  0.00    +0.000 A 
ATOM     10  C   UNL     1       8.093   6.870  18.597  0.00  0.00    +0.000 A 
ATOM     11  C   UNL     1       7.801   7.964  17.778  0.00  0.00    +0.000 A 
ATOM     12  C   UNL     1       6.510   8.121  17.276  0.00  0.00    +0.000 A 
ATOM     13  C   UNL     1       5.529   7.164  17.562  0.00  0.00    +0.000 A 
BRANCH  11  14
ATOM     14  O   UNL     1       8.841   8.828  17.576  0.00  0.00    +0.000 OA
BRANCH  14  15
ATOM     15  C   UNL     1       8.808  10.019  18.345  0.00  0.00    +0.000 C 
ATOM     16  F   UNL     1       9.288   9.751  19.584  0.00  0.00    +0.000 F 
ATOM     17  F   UNL     1       9.676  10.890  17.770  0.00  0.00    +0.000 F 
ENDBRANCH  14  15
ENDBRANCH  11  14
ENDBRANCH   6   8
BRANCH   7  18
ATOM     18  N   UNL     1       5.277   3.802  16.640  0.00  0.00    +0.000 NA
ATOM     19  C   UNL     1       4.842   4.292  15.521  0.00  0.00    +0.000 C 
BRANCH  19  20
ATOM     20  C   UNL     1       5.603   4.171  14.291  0.00  0.00    +0.000 A 
ATOM     21  C   UNL     1       5.305   3.521  13.109  0.00  0.00    +0.000 A 
ATOM     22  C   UNL     1       6.362   3.628  12.150  0.00  0.00    +0.000 A 
ATOM     23  C   UNL     1       7.428   4.355  12.635  0.00  0.00    +0.000 A 
ATOM     24  S   UNL     1       7.147   4.913  14.226  0.00  0.00    +0.000 S 
ENDBRANCH  19  20
ENDBRANCH   7  18
TORSDOF 5
ENDMDL
MODEL 9
REMARK VINA RESULT:      -6.2      1.000      1.296
REMARK  Name = 
REMARK  6 active torsions:
REMARK  status: ('A' for Active; 'I' for Inactive)
REMARK    1  A    between atoms: C_1  and  N_2
REMARK    2  A    between atoms: C_6  and  C_7
REMARK    3  A    between atoms: C_10  and  O_11
REMARK    4  A    between atoms: O_11  and  C_12
REMARK    5  A    between atoms: N_17  and  N_18
REMARK    6  A    between atoms: C_19  and  C_20
REMARK                            x       y       z     vdW  Elec       q    Type
REMARK                         _______ _______ _______ _____ _____    ______ ____
ROOT
ATOM      1  C   UNL     1       0.802   2.645  20.859  0.00  0.00    +0.000 C 
ATOM      2  N   UNL     1       1.474   3.906  20.581  0.00  0.00    +0.000 NA
ATOM      3  C   UNL     1       2.607   3.914  19.964  0.00  0.00    +0.000 A 
ATOM      4  S   UNL     1       3.426   2.414  19.381  0.00  0.00    +0.000 S 
ATOM      5  C   UNL     1       4.750   3.334  18.728  0.00  0.00    +0.000 A 
ATOM      6  C   UNL     1       4.585   4.650  18.937  0.00  0.00    +0.000 A 
ATOM      7  N   UNL     1       3.421   5.025  19.630  0.00  0.00    +0.000 N 
ENDROOT
BRANCH   6   8
ATOM      8  C   UNL     1       5.591   5.630  18.514  0.00  0.00    +0.000 A 
ATOM      9  C   UNL     1       5.308   6.556  17.505  0.00  0.00    +0.000 A 
ATOM     10  C   UNL     1       6.280   7.478  17.107  0.00  0.00    +0.000 A 
ATOM     11  C   UNL     1       7.537   7.495  17.716  0.00  0.00    +0.000 A 
ATOM     12  C   UNL     1       7.837   6.556  18.702  0.00  0.00    +0.000 A 
ATOM     13  C   UNL     1       6.865   5.628  19.099  0.00  0.00    +0.000 A 
BRANCH  11  14
ATOM     14  O   UNL     1       8.397   8.445  17.239  0.00  0.00    +0.000 OA
BRANCH  14  15
ATOM     15  C   UNL     1       8.529   9.610  18.037  0.00  0.00    +0.000 C 
ATOM     16  F   UNL     1       9.725  10.189  17.767  0.00  0.00    +0.000 F 
ATOM     17  F   UNL     1       7.572  10.483  17.632  0.00  0.00    +0.000 F 
ENDBRANCH  14  15
ENDBRANCH  11  14
ENDBRANCH   6   8
BRANCH   7  18
ATOM     18  N   UNL     1       3.139   6.373  19.824  0.00  0.00    +0.000 NA
ATOM     19  C   UNL     1       1.912   6.692  20.093  0.00  0.00    +0.000 C 
BRANCH  19  20
ATOM     20  C   UNL     1       1.521   8.067  20.345  0.00  0.00    +0.000 A 
ATOM     21  C   UNL     1       1.182   8.704  21.523  0.00  0.00    +0.000 A 
ATOM     22  C   UNL     1       0.828  10.076  21.314  0.00  0.00    +0.000 A 
ATOM     23  C   UNL     1       0.911  10.435  19.987  0.00  0.00    +0.000 A 
ATOM     24  S   UNL     1       1.424   9.133  19.006  0.00  0.00    +0.000 S 
ENDBRANCH  19  20
ENDBRANCH   7  18
TORSDOF 5
ENDMDL
