MODEL 1
REMARK VINA RESULT:      -9.7      0.000      0.000
REMARK  Name = 
REMARK  9 active torsions:
REMARK  status: ('A' for Active; 'I' for Inactive)
REMARK    1  A    between atoms: C_1  and  O_2
REMARK    2  A    between atoms: O_2  and  C_3
REMARK    3  A    between atoms: C_13  and  C_14
REMARK    4  A    between atoms: C_14  and  N_15
REMARK    5  A    between atoms: N_15  and  C_16
REMARK    6  A    between atoms: N_15  and  C_23
REMARK    7  A    between atoms: C_16  and  C_17
REMARK    8  A    between atoms: C_23  and  C_24
REMARK    9  A    between atoms: C_28  and  C_29
REMARK                            x       y       z     vdW  Elec       q    Type
REMARK                         _______ _______ _______ _____ _____    ______ ____
ROOT
ATOM      1  N   UNL     1       4.251   4.859  18.276  0.00  0.00    +0.000 NA
ENDROOT
BRANCH   1   2
ATOM      2  C   UNL     1       5.691   4.538  18.207  0.00  0.00    +0.000 C 
BRANCH   2  13
ATOM      3  C   UNL     1       7.296   5.416  16.454  0.00  0.00    +0.000 A 
ATOM      4  N   UNL     1       7.741   5.581  15.190  0.00  0.00    +0.000 NA
ATOM      5  C   UNL     1       7.193   4.847  14.222  0.00  0.00    +0.000 A 
ATOM      6  C   UNL     1       7.573   5.109  12.915  0.00  0.00    +0.000 A 
ATOM      7  C   UNL     1       7.029   4.401  11.846  0.00  0.00    +0.000 A 
ATOM      8  C   UNL     1       6.109   3.396  12.101  0.00  0.00    +0.000 A 
ATOM      9  F   UNL     1       5.592   2.703  11.079  0.00  0.00    +0.000 F 
ATOM     10  C   UNL     1       5.703   3.112  13.403  0.00  0.00    +0.000 A 
ATOM     11  C   UNL     1       6.225   3.853  14.478  0.00  0.00    +0.000 A 
ATOM     12  C   UNL     1       5.796   3.687  15.808  0.00  0.00    +0.000 A 
ATOM     13  C   UNL     1       6.311   4.503  16.827  0.00  0.00    +0.000 A 
BRANCH   3  15
ATOM     14  C   UNL     1       7.419   7.589  17.311  0.00  0.00    +0.000 C 
ATOM     15  O   UNL     1       7.835   6.230  17.430  0.00  0.00    +0.000 OA
ENDBRANCH   3  15
ENDBRANCH   2  13
ENDBRANCH   1   2
BRANCH   1  16
ATOM     16  C   UNL     1       3.367   3.675  18.242  0.00  0.00    +0.000 C 
BRANCH  16  17
ATOM     17  C   UNL     1       2.696   3.236  19.523  0.00  0.00    +0.000 A 
ATOM     18  C   UNL     1       1.323   3.408  19.716  0.00  0.00    +0.000 A 
ATOM     19  C   UNL     1       0.728   3.045  20.920  0.00  0.00    +0.000 A 
ATOM     20  C   UNL     1       1.536   2.534  21.918  0.00  0.00    +0.000 A 
ATOM     21  N   UNL     1       2.867   2.352  21.780  0.00  0.00    +0.000 NA
ATOM     22  C   UNL     1       3.412   2.704  20.591  0.00  0.00    +0.000 A 
ENDBRANCH  16  17
ENDBRANCH   1  16
BRANCH   1  23
ATOM     23  C   UNL     1       3.962   5.716  19.448  0.00  0.00    +0.000 C 
BRANCH  23  24
ATOM     24  C   UNL     1       3.101   6.910  19.115  0.00  0.00    +0.000 A 
ATOM     25  C   UNL     1       2.255   7.447  20.093  0.00  0.00    +0.000 A 
ATOM     26  C   UNL     1       1.448   8.558  19.812  0.00  0.00    +0.000 A 
ATOM     27  C   UNL     1       0.600   9.106  20.788  0.00  0.00    +0.000 A 
ATOM     28  C   UNL     1      -0.185  10.225  20.502  0.00  0.00    +0.000 A 
ATOM     29  C   UNL     1      -1.085  10.813  21.547  0.00  0.00    +0.000 C 
ATOM     30  C   UNL     1      -0.128  10.775  19.221  0.00  0.00    +0.000 A 
ATOM     31  C   UNL     1       0.716  10.216  18.251  0.00  0.00    +0.000 A 
ATOM     32  C   UNL     1       1.513   9.112  18.522  0.00  0.00    +0.000 A 
ATOM     33  N   UNL     1       2.313   8.612  17.567  0.00  0.00    +0.000 NA
ATOM     34  C   UNL     1       3.080   7.539  17.872  0.00  0.00    +0.000 A 
ATOM     35 CL   UNL     1       4.022   7.010  16.538  0.00  0.00    +0.000 Cl
ENDBRANCH  23  24
ENDBRANCH   1  23
TORSDOF 7
ENDMDL
MODEL 2
REMARK VINA RESULT:      -8.8      4.964     10.812
REMARK  Name = 
REMARK  9 active torsions:
REMARK  status: ('A' for Active; 'I' for Inactive)
REMARK    1  A    between atoms: C_1  and  O_2
REMARK    2  A    between atoms: O_2  and  C_3
REMARK    3  A    between atoms: C_13  and  C_14
REMARK    4  A    between atoms: C_14  and  N_15
REMARK    5  A    between atoms: N_15  and  C_16
REMARK    6  A    between atoms: N_15  and  C_23
REMARK    7  A    between atoms: C_16  and  C_17
REMARK    8  A    between atoms: C_23  and  C_24
REMARK    9  A    between atoms: C_28  and  C_29
REMARK                            x       y       z     vdW  Elec       q    Type
REMARK                         _______ _______ _______ _____ _____    ______ ____
ROOT
ATOM      1  N   UNL     1      -0.048  10.514  18.687  0.00  0.00    +0.000 NA
ENDROOT
BRANCH   1   2
ATOM      2  C   UNL     1      -0.310  11.965  18.785  0.00  0.00    +0.000 C 
BRANCH   2  13
ATOM      3  C   UNL     1      -0.233  12.629  21.228  0.00  0.00    +0.000 A 
ATOM      4  N   UNL     1      -0.778  12.853  22.442  0.00  0.00    +0.000 NA
ATOM      5  C   UNL     1      -2.107  12.881  22.548  0.00  0.00    +0.000 A 
ATOM      6  C   UNL     1      -2.655  12.993  23.816  0.00  0.00    +0.000 A 
ATOM      7  C   UNL     1      -4.034  13.006  24.011  0.00  0.00    +0.000 A 
ATOM      8  C   UNL     1      -4.871  12.932  22.909  0.00  0.00    +0.000 A 
ATOM      9  F   UNL     1      -6.198  12.958  23.089  0.00  0.00    +0.000 F 
ATOM     10  C   UNL     1      -4.352  12.815  21.622  0.00  0.00    +0.000 A 
ATOM     11  C   UNL     1      -2.960  12.764  21.430  0.00  0.00    +0.000 A 
ATOM     12  C   UNL     1      -2.363  12.554  20.173  0.00  0.00    +0.000 A 
ATOM     13  C   UNL     1      -0.968  12.449  20.058  0.00  0.00    +0.000 A 
BRANCH   3  15
ATOM     14  C   UNL     1       1.773  13.820  21.051  0.00  0.00    +0.000 C 
ATOM     15  O   UNL     1       1.144  12.544  21.155  0.00  0.00    +0.000 OA
ENDBRANCH   3  15
ENDBRANCH   2  13
ENDBRANCH   1   2
BRANCH   1  16
ATOM     16  C   UNL     1      -0.812   9.835  17.619  0.00  0.00    +0.000 C 
BRANCH  16  17
ATOM     17  C   UNL     1      -2.201  10.333  17.294  0.00  0.00    +0.000 A 
ATOM     18  C   UNL     1      -3.279  10.078  18.147  0.00  0.00    +0.000 A 
ATOM     19  C   UNL     1      -4.561  10.498  17.809  0.00  0.00    +0.000 A 
ATOM     20  C   UNL     1      -4.737  11.152  16.604  0.00  0.00    +0.000 A 
ATOM     21  N   UNL     1      -3.728  11.419  15.747  0.00  0.00    +0.000 NA
ATOM     22  C   UNL     1      -2.490  11.006  16.111  0.00  0.00    +0.000 A 
ENDBRANCH  16  17
ENDBRANCH   1  16
BRANCH   1  23
ATOM     23  C   UNL     1       1.403  10.252  18.564  0.00  0.00    +0.000 C 
BRANCH  23  24
ATOM     24  C   UNL     1       1.790   8.846  18.952  0.00  0.00    +0.000 A 
ATOM     25  C   UNL     1       2.499   8.047  18.046  0.00  0.00    +0.000 A 
ATOM     26  C   UNL     1       2.874   6.740  18.382  0.00  0.00    +0.000 A 
ATOM     27  C   UNL     1       3.588   5.934  17.482  0.00  0.00    +0.000 A 
ATOM     28  C   UNL     1       3.975   4.639  17.836  0.00  0.00    +0.000 A 
ATOM     29  C   UNL     1       4.743   3.782  16.876  0.00  0.00    +0.000 C 
ATOM     30  C   UNL     1       3.617   4.153  19.094  0.00  0.00    +0.000 A 
ATOM     31  C   UNL     1       2.896   4.963  19.983  0.00  0.00    +0.000 A 
ATOM     32  C   UNL     1       2.517   6.256  19.653  0.00  0.00    +0.000 A 
ATOM     33  N   UNL     1       1.834   7.001  20.537  0.00  0.00    +0.000 NA
ATOM     34  C   UNL     1       1.487   8.261  20.180  0.00  0.00    +0.000 A 
ATOM     35 CL   UNL     1       0.600   9.067  21.409  0.00  0.00    +0.000 Cl
ENDBRANCH  23  24
ENDBRANCH   1  23
TORSDOF 7
ENDMDL
MODEL 3
REMARK VINA RESULT:      -8.8      1.136      1.254
REMARK  Name = 
REMARK  9 active torsions:
REMARK  status: ('A' for Active; 'I' for Inactive)
REMARK    1  A    between atoms: C_1  and  O_2
REMARK    2  A    between atoms: O_2  and  C_3
REMARK    3  A    between atoms: C_13  and  C_14
REMARK    4  A    between atoms: C_14  and  N_15
REMARK    5  A    between atoms: N_15  and  C_16
REMARK    6  A    between atoms: N_15  and  C_23
REMARK    7  A    between atoms: C_16  and  C_17
REMARK    8  A    between atoms: C_23  and  C_24
REMARK    9  A    between atoms: C_28  and  C_29
REMARK                            x       y       z     vdW  Elec       q    Type
REMARK                         _______ _______ _______ _____ _____    ______ ____
ROOT
ATOM      1  N   UNL     1       3.869   5.778  18.146  0.00  0.00    +0.000 NA
ENDROOT
BRANCH   1   2
ATOM      2  C   UNL     1       5.277   5.342  18.242  0.00  0.00    +0.000 C 
BRANCH   2  13
ATOM      3  C   UNL     1       7.141   5.729  16.569  0.00  0.00    +0.000 A 
ATOM      4  N   UNL     1       7.702   5.669  15.343  0.00  0.00    +0.000 NA
ATOM      5  C   UNL     1       7.106   4.932  14.406  0.00  0.00    +0.000 A 
ATOM      6  C   UNL     1       7.625   4.975  13.120  0.00  0.00    +0.000 A 
ATOM      7  C   UNL     1       7.046   4.250  12.081  0.00  0.00    +0.000 A 
ATOM      8  C   UNL     1       5.944   3.452  12.348  0.00  0.00    +0.000 A 
ATOM      9  F   UNL     1       5.391   2.743  11.356  0.00  0.00    +0.000 F 
ATOM     10  C   UNL     1       5.397   3.391  13.627  0.00  0.00    +0.000 A 
ATOM     11  C   UNL     1       5.961   4.152  14.667  0.00  0.00    +0.000 A 
ATOM     12  C   UNL     1       5.410   4.215  15.961  0.00  0.00    +0.000 A 
ATOM     13  C   UNL     1       5.984   5.044  16.937  0.00  0.00    +0.000 A 
BRANCH   3  15
ATOM     14  C   UNL     1       7.416   7.923  17.329  0.00  0.00    +0.000 C 
ATOM     15  O   UNL     1       7.741   6.546  17.506  0.00  0.00    +0.000 OA
ENDBRANCH   3  15
ENDBRANCH   2  13
ENDBRANCH   1   2
BRANCH   1  16
ATOM     16  C   UNL     1       3.001   4.852  17.390  0.00  0.00    +0.000 C 
BRANCH  16  17
ATOM     17  C   UNL     1       2.388   3.678  18.117  0.00  0.00    +0.000 A 
ATOM     18  C   UNL     1       1.089   3.742  18.630  0.00  0.00    +0.000 A 
ATOM     19  C   UNL     1       0.556   2.672  19.341  0.00  0.00    +0.000 A 
ATOM     20  C   UNL     1       1.354   1.561  19.542  0.00  0.00    +0.000 A 
ATOM     21  N   UNL     1       2.615   1.454  19.071  0.00  0.00    +0.000 NA
ATOM     22  C   UNL     1       3.099   2.509  18.372  0.00  0.00    +0.000 A 
ENDBRANCH  16  17
ENDBRANCH   1  16
BRANCH   1  23
ATOM     23  C   UNL     1       3.317   6.061  19.490  0.00  0.00    +0.000 C 
BRANCH  23  24
ATOM     24  C   UNL     1       2.489   7.322  19.541  0.00  0.00    +0.000 A 
ATOM     25  C   UNL     1       1.760   7.625  20.697  0.00  0.00    +0.000 A 
ATOM     26  C   UNL     1       0.986   8.791  20.772  0.00  0.00    +0.000 A 
ATOM     27  C   UNL     1       0.255   9.105  21.929  0.00  0.00    +0.000 A 
ATOM     28  C   UNL     1      -0.496  10.280  22.000  0.00  0.00    +0.000 A 
ATOM     29  C   UNL     1      -1.271  10.617  23.238  0.00  0.00    +0.000 C 
ATOM     30  C   UNL     1      -0.525  11.126  20.890  0.00  0.00    +0.000 A 
ATOM     31  C   UNL     1       0.202  10.799  19.736  0.00  0.00    +0.000 A 
ATOM     32  C   UNL     1       0.965   9.643  19.655  0.00  0.00    +0.000 A 
ATOM     33  N   UNL     1       1.652   9.371  18.534  0.00  0.00    +0.000 NA
ATOM     34  C   UNL     1       2.390   8.236  18.494  0.00  0.00    +0.000 A 
ATOM     35 CL   UNL     1       3.184   8.026  16.987  0.00  0.00    +0.000 Cl
ENDBRANCH  23  24
ENDBRANCH   1  23
TORSDOF 7
ENDMDL
MODEL 4
REMARK VINA RESULT:      -8.7      4.900      8.843
REMARK  Name = 
REMARK  9 active torsions:
REMARK  status: ('A' for Active; 'I' for Inactive)
REMARK    1  A    between atoms: C_1  and  O_2
REMARK    2  A    between atoms: O_2  and  C_3
REMARK    3  A    between atoms: C_13  and  C_14
REMARK    4  A    between atoms: C_14  and  N_15
REMARK    5  A    between atoms: N_15  and  C_16
REMARK    6  A    between atoms: N_15  and  C_23
REMARK    7  A    between atoms: C_16  and  C_17
REMARK    8  A    between atoms: C_23  and  C_24
REMARK    9  A    between atoms: C_28  and  C_29
REMARK                            x       y       z     vdW  Elec       q    Type
REMARK                         _______ _______ _______ _____ _____    ______ ____
ROOT
ATOM      1  N   UNL     1      -0.791  12.286  18.963  0.00  0.00    +0.000 NA
ENDROOT
BRANCH   1   2
ATOM      2  C   UNL     1       0.461  11.895  19.644  0.00  0.00    +0.000 C 
BRANCH   2  13
ATOM      3  C   UNL     1       0.625   9.668  20.841  0.00  0.00    +0.000 A 
ATOM      4  N   UNL     1       1.083   8.409  21.003  0.00  0.00    +0.000 NA
ATOM      5  C   UNL     1       1.754   7.842  20.001  0.00  0.00    +0.000 A 
ATOM      6  C   UNL     1       2.321   6.596  20.223  0.00  0.00    +0.000 A 
ATOM      7  C   UNL     1       3.055   5.947  19.233  0.00  0.00    +0.000 A 
ATOM      8  C   UNL     1       3.198   6.553  17.994  0.00  0.00    +0.000 A 
ATOM      9  F   UNL     1       3.892   5.929  17.034  0.00  0.00    +0.000 F 
ATOM     10  C   UNL     1       2.644   7.805  17.741  0.00  0.00    +0.000 A 
ATOM     11  C   UNL     1       1.934   8.475  18.754  0.00  0.00    +0.000 A 
ATOM     12  C   UNL     1       1.426   9.779  18.604  0.00  0.00    +0.000 A 
ATOM     13  C   UNL     1       0.782  10.417  19.676  0.00  0.00    +0.000 A 
BRANCH   3  15
ATOM     14  C   UNL     1       0.099   9.493  23.113  0.00  0.00    +0.000 C 
ATOM     15  O   UNL     1      -0.013  10.257  21.915  0.00  0.00    +0.000 OA
ENDBRANCH   3  15
ENDBRANCH   2  13
ENDBRANCH   1   2
BRANCH   1  16
ATOM     16  C   UNL     1      -1.840  11.246  18.992  0.00  0.00    +0.000 C 
BRANCH  16  17
ATOM     17  C   UNL     1      -2.557  10.905  17.706  0.00  0.00    +0.000 A 
ATOM     18  C   UNL     1      -2.006  10.008  16.786  0.00  0.00    +0.000 A 
ATOM     19  C   UNL     1      -2.653   9.743  15.583  0.00  0.00    +0.000 A 
ATOM     20  C   UNL     1      -3.836  10.407  15.320  0.00  0.00    +0.000 A 
ATOM     21  N   UNL     1      -4.405  11.285  16.174  0.00  0.00    +0.000 NA
ATOM     22  C   UNL     1      -3.756  11.510  17.342  0.00  0.00    +0.000 A 
ENDBRANCH  16  17
ENDBRANCH   1  16
BRANCH   1  23
ATOM     23  C   UNL     1      -1.292  13.574  19.490  0.00  0.00    +0.000 C 
BRANCH  23  24
ATOM     24  C   UNL     1      -2.126  13.424  20.739  0.00  0.00    +0.000 A 
ATOM     25  C   UNL     1      -3.497  13.163  20.629  0.00  0.00    +0.000 A 
ATOM     26  C   UNL     1      -4.293  13.015  21.772  0.00  0.00    +0.000 A 
ATOM     27  C   UNL     1      -5.668  12.749  21.671  0.00  0.00    +0.000 A 
ATOM     28  C   UNL     1      -6.448  12.583  22.818  0.00  0.00    +0.000 A 
ATOM     29  C   UNL     1      -7.915  12.293  22.708  0.00  0.00    +0.000 C 
ATOM     30  C   UNL     1      -5.839  12.710  24.067  0.00  0.00    +0.000 A 
ATOM     31  C   UNL     1      -4.467  12.983  24.157  0.00  0.00    +0.000 A 
ATOM     32  C   UNL     1      -3.675  13.137  23.028  0.00  0.00    +0.000 A 
ATOM     33  N   UNL     1      -2.363  13.391  23.159  0.00  0.00    +0.000 NA
ATOM     34  C   UNL     1      -1.622  13.528  22.034  0.00  0.00    +0.000 A 
ATOM     35 CL   UNL     1       0.025  13.873  22.375  0.00  0.00    +0.000 Cl
ENDBRANCH  23  24
ENDBRANCH   1  23
TORSDOF 7
ENDMDL
MODEL 5
REMARK VINA RESULT:      -8.6      5.191     10.997
REMARK  Name = 
REMARK  9 active torsions:
REMARK  status: ('A' for Active; 'I' for Inactive)
REMARK    1  A    between atoms: C_1  and  O_2
REMARK    2  A    between atoms: O_2  and  C_3
REMARK    3  A    between atoms: C_13  and  C_14
REMARK    4  A    between atoms: C_14  and  N_15
REMARK    5  A    between atoms: N_15  and  C_16
REMARK    6  A    between atoms: N_15  and  C_23
REMARK    7  A    between atoms: C_16  and  C_17
REMARK    8  A    between atoms: C_23  and  C_24
REMARK    9  A    between atoms: C_28  and  C_29
REMARK                            x       y       z     vdW  Elec       q    Type
REMARK                         _______ _______ _______ _____ _____    ______ ____
ROOT
ATOM      1  N   UNL     1      -0.201  10.833  18.801  0.00  0.00    +0.000 NA
ENDROOT
BRANCH   1   2
ATOM      2  C   UNL     1      -0.422  12.287  18.663  0.00  0.00    +0.000 C 
BRANCH   2  13
ATOM      3  C   UNL     1      -0.503  14.197  20.326  0.00  0.00    +0.000 A 
ATOM      4  N   UNL     1      -0.853  14.773  21.496  0.00  0.00    +0.000 NA
ATOM      5  C   UNL     1      -1.740  14.150  22.272  0.00  0.00    +0.000 A 
ATOM      6  C   UNL     1      -2.001  14.690  23.522  0.00  0.00    +0.000 A 
ATOM      7  C   UNL     1      -2.897  14.086  24.400  0.00  0.00    +0.000 A 
ATOM      8  C   UNL     1      -3.559  12.935  24.001  0.00  0.00    +0.000 A 
ATOM      9  F   UNL     1      -4.432  12.356  24.835  0.00  0.00    +0.000 F 
ATOM     10  C   UNL     1      -3.315  12.365  22.754  0.00  0.00    +0.000 A 
ATOM     11  C   UNL     1      -2.382  12.956  21.884  0.00  0.00    +0.000 A 
ATOM     12  C   UNL     1      -2.015  12.389  20.649  0.00  0.00    +0.000 A 
ATOM     13  C   UNL     1      -1.029  12.995  19.855  0.00  0.00    +0.000 A 
BRANCH   3  15
ATOM     14  C   UNL     1      -0.036  15.981  18.888  0.00  0.00    +0.000 C 
ATOM     15  O   UNL     1       0.461  14.830  19.568  0.00  0.00    +0.000 OA
ENDBRANCH   3  15
ENDBRANCH   2  13
ENDBRANCH   1   2
BRANCH   1  16
ATOM     16  C   UNL     1      -0.926  10.017  17.805  0.00  0.00    +0.000 C 
BRANCH  16  17
ATOM     17  C   UNL     1      -2.306  10.457  17.375  0.00  0.00    +0.000 A 
ATOM     18  C   UNL     1      -3.388  10.416  18.260  0.00  0.00    +0.000 A 
ATOM     19  C   UNL     1      -4.662  10.777  17.834  0.00  0.00    +0.000 A 
ATOM     20  C   UNL     1      -4.827  11.153  16.515  0.00  0.00    +0.000 A 
ATOM     21  N   UNL     1      -3.814  11.205  15.622  0.00  0.00    +0.000 NA
ATOM     22  C   UNL     1      -2.584  10.859  16.072  0.00  0.00    +0.000 A 
ENDBRANCH  16  17
ENDBRANCH   1  16
BRANCH   1  23
ATOM     23  C   UNL     1       1.246  10.522  18.804  0.00  0.00    +0.000 C 
BRANCH  23  24
ATOM     24  C   UNL     1       1.550   9.106  19.229  0.00  0.00    +0.000 A 
ATOM     25  C   UNL     1       2.186   8.236  18.334  0.00  0.00    +0.000 A 
ATOM     26  C   UNL     1       2.485   6.918  18.704  0.00  0.00    +0.000 A 
ATOM     27  C   UNL     1       3.126   6.041  17.815  0.00  0.00    +0.000 A 
ATOM     28  C   UNL     1       3.437   4.736  18.203  0.00  0.00    +0.000 A 
ATOM     29  C   UNL     1       4.127   3.802  17.254  0.00  0.00    +0.000 C 
ATOM     30  C   UNL     1       3.076   4.312  19.482  0.00  0.00    +0.000 A 
ATOM     31  C   UNL     1       2.428   5.193  20.360  0.00  0.00    +0.000 A 
ATOM     32  C   UNL     1       2.125   6.497  19.996  0.00  0.00    +0.000 A 
ATOM     33  N   UNL     1       1.511   7.311  20.870  0.00  0.00    +0.000 NA
ATOM     34  C   UNL     1       1.237   8.579  20.480  0.00  0.00    +0.000 A 
ATOM     35 CL   UNL     1       0.431   9.478  21.701  0.00  0.00    +0.000 Cl
ENDBRANCH  23  24
ENDBRANCH   1  23
TORSDOF 7
ENDMDL
MODEL 6
REMARK VINA RESULT:      -8.5      3.434      5.828
REMARK  Name = 
REMARK  9 active torsions:
REMARK  status: ('A' for Active; 'I' for Inactive)
REMARK    1  A    between atoms: C_1  and  O_2
REMARK    2  A    between atoms: O_2  and  C_3
REMARK    3  A    between atoms: C_13  and  C_14
REMARK    4  A    between atoms: C_14  and  N_15
REMARK    5  A    between atoms: N_15  and  C_16
REMARK    6  A    between atoms: N_15  and  C_23
REMARK    7  A    between atoms: C_16  and  C_17
REMARK    8  A    between atoms: C_23  and  C_24
REMARK    9  A    between atoms: C_28  and  C_29
REMARK                            x       y       z     vdW  Elec       q    Type
REMARK                         _______ _______ _______ _____ _____    ______ ____
ROOT
ATOM      1  N   UNL     1       1.632   8.584  18.982  0.00  0.00    +0.000 NA
ENDROOT
BRANCH   1   2
ATOM      2  C   UNL     1       2.613   8.132  17.973  0.00  0.00    +0.000 C 
BRANCH   2  13
ATOM      3  C   UNL     1       4.273   6.283  17.481  0.00  0.00    +0.000 A 
ATOM      4  N   UNL     1       4.652   4.993  17.361  0.00  0.00    +0.000 NA
ATOM      5  C   UNL     1       3.838   4.045  17.825  0.00  0.00    +0.000 A 
ATOM      6  C   UNL     1       4.182   2.723  17.589  0.00  0.00    +0.000 A 
ATOM      7  C   UNL     1       3.372   1.675  18.023  0.00  0.00    +0.000 A 
ATOM      8  C   UNL     1       2.213   1.966  18.725  0.00  0.00    +0.000 A 
ATOM      9  F   UNL     1       1.437   0.963  19.155  0.00  0.00    +0.000 F 
ATOM     10  C   UNL     1       1.838   3.283  18.974  0.00  0.00    +0.000 A 
ATOM     11  C   UNL     1       2.637   4.340  18.504  0.00  0.00    +0.000 A 
ATOM     12  C   UNL     1       2.278   5.695  18.634  0.00  0.00    +0.000 A 
ATOM     13  C   UNL     1       3.089   6.701  18.086  0.00  0.00    +0.000 A 
BRANCH   3  15
ATOM     14  C   UNL     1       6.486   6.973  17.166  0.00  0.00    +0.000 C 
ATOM     15  O   UNL     1       5.104   7.244  16.939  0.00  0.00    +0.000 OA
ENDBRANCH   3  15
ENDBRANCH   2  13
ENDBRANCH   1   2
BRANCH   1  16
ATOM     16  C   UNL     1       1.918   8.111  20.352  0.00  0.00    +0.000 C 
BRANCH  16  17
ATOM     17  C   UNL     1       1.040   8.596  21.483  0.00  0.00    +0.000 A 
ATOM     18  C   UNL     1      -0.347   8.428  21.445  0.00  0.00    +0.000 A 
ATOM     19  C   UNL     1      -1.147   8.925  22.470  0.00  0.00    +0.000 A 
ATOM     20  C   UNL     1      -0.533   9.603  23.506  0.00  0.00    +0.000 A 
ATOM     21  N   UNL     1       0.802   9.793  23.584  0.00  0.00    +0.000 NA
ATOM     22  C   UNL     1       1.553   9.286  22.577  0.00  0.00    +0.000 A 
ENDBRANCH  16  17
ENDBRANCH   1  16
BRANCH   1  23
ATOM     23  C   UNL     1       1.478  10.055  18.938  0.00  0.00    +0.000 C 
BRANCH  23  24
ATOM     24  C   UNL     1       0.080  10.497  18.579  0.00  0.00    +0.000 A 
ATOM     25  C   UNL     1      -0.505  10.045  17.390  0.00  0.00    +0.000 A 
ATOM     26  C   UNL     1      -1.803  10.436  17.034  0.00  0.00    +0.000 A 
ATOM     27  C   UNL     1      -2.399   9.985  15.846  0.00  0.00    +0.000 A 
ATOM     28  C   UNL     1      -3.701  10.365  15.513  0.00  0.00    +0.000 A 
ATOM     29  C   UNL     1      -4.339   9.877  14.247  0.00  0.00    +0.000 C 
ATOM     30  C   UNL     1      -4.390  11.222  16.372  0.00  0.00    +0.000 A 
ATOM     31  C   UNL     1      -3.783  11.675  17.552  0.00  0.00    +0.000 A 
ATOM     32  C   UNL     1      -2.496  11.295  17.905  0.00  0.00    +0.000 A 
ATOM     33  N   UNL     1      -1.954  11.745  19.049  0.00  0.00    +0.000 NA
ATOM     34  C   UNL     1      -0.698  11.347  19.362  0.00  0.00    +0.000 A 
ATOM     35 CL   UNL     1      -0.147  12.029  20.838  0.00  0.00    +0.000 Cl
ENDBRANCH  23  24
ENDBRANCH   1  23
TORSDOF 7
ENDMDL
MODEL 7
REMARK VINA RESULT:      -8.5      3.935      7.466
REMARK  Name = 
REMARK  9 active torsions:
REMARK  status: ('A' for Active; 'I' for Inactive)
REMARK    1  A    between atoms: C_1  and  O_2
REMARK    2  A    between atoms: O_2  and  C_3
REMARK    3  A    between atoms: C_13  and  C_14
REMARK    4  A    between atoms: C_14  and  N_15
REMARK    5  A    between atoms: N_15  and  C_16
REMARK    6  A    between atoms: N_15  and  C_23
REMARK    7  A    between atoms: C_16  and  C_17
REMARK    8  A    between atoms: C_23  and  C_24
REMARK    9  A    between atoms: C_28  and  C_29
REMARK                            x       y       z     vdW  Elec       q    Type
REMARK                         _______ _______ _______ _____ _____    ______ ____
ROOT
ATOM      1  N   UNL     1       1.892   9.834  18.911  0.00  0.00    +0.000 NA
ENDROOT
BRANCH   1   2
ATOM      2  C   UNL     1       2.006   8.690  17.984  0.00  0.00    +0.000 C 
BRANCH   2  13
ATOM      3  C   UNL     1       3.658   6.769  17.937  0.00  0.00    +0.000 A 
ATOM      4  N   UNL     1       4.089   5.532  18.261  0.00  0.00    +0.000 NA
ATOM      5  C   UNL     1       3.440   4.860  19.211  0.00  0.00    +0.000 A 
ATOM      6  C   UNL     1       3.817   3.547  19.450  0.00  0.00    +0.000 A 
ATOM      7  C   UNL     1       3.173   2.772  20.411  0.00  0.00    +0.000 A 
ATOM      8  C   UNL     1       2.151   3.337  21.159  0.00  0.00    +0.000 A 
ATOM      9  F   UNL     1       1.536   2.601  22.094  0.00  0.00    +0.000 F 
ATOM     10  C   UNL     1       1.746   4.651  20.940  0.00  0.00    +0.000 A 
ATOM     11  C   UNL     1       2.373   5.421  19.944  0.00  0.00    +0.000 A 
ATOM     12  C   UNL     1       1.959   6.721  19.601  0.00  0.00    +0.000 A 
ATOM     13  C   UNL     1       2.586   7.413  18.553  0.00  0.00    +0.000 A 
BRANCH   3  15
ATOM     14  C   UNL     1       5.059   6.537  16.079  0.00  0.00    +0.000 C 
ATOM     15  O   UNL     1       4.308   7.421  16.909  0.00  0.00    +0.000 OA
ENDBRANCH   3  15
ENDBRANCH   2  13
ENDBRANCH   1   2
BRANCH   1  16
ATOM     16  C   UNL     1       1.955  11.154  18.249  0.00  0.00    +0.000 C 
BRANCH  16  17
ATOM     17  C   UNL     1       1.739  12.394  19.084  0.00  0.00    +0.000 A 
ATOM     18  C   UNL     1       1.082  13.513  18.563  0.00  0.00    +0.000 A 
ATOM     19  C   UNL     1       0.936  14.666  19.327  0.00  0.00    +0.000 A 
ATOM     20  C   UNL     1       1.476  14.677  20.599  0.00  0.00    +0.000 A 
ATOM     21  N   UNL     1       2.122  13.624  21.144  0.00  0.00    +0.000 NA
ATOM     22  C   UNL     1       2.236  12.513  20.379  0.00  0.00    +0.000 A 
ENDBRANCH  16  17
ENDBRANCH   1  16
BRANCH   1  23
ATOM     23  C   UNL     1       0.681   9.708  19.752  0.00  0.00    +0.000 C 
BRANCH  23  24
ATOM     24  C   UNL     1      -0.565  10.239  19.086  0.00  0.00    +0.000 A 
ATOM     25  C   UNL     1      -0.892   9.817  17.791  0.00  0.00    +0.000 A 
ATOM     26  C   UNL     1      -2.045  10.291  17.152  0.00  0.00    +0.000 A 
ATOM     27  C   UNL     1      -2.383   9.871  15.856  0.00  0.00    +0.000 A 
ATOM     28  C   UNL     1      -3.546  10.334  15.237  0.00  0.00    +0.000 A 
ATOM     29  C   UNL     1      -3.908   9.879  13.855  0.00  0.00    +0.000 C 
ATOM     30  C   UNL     1      -4.354  11.242  15.922  0.00  0.00    +0.000 A 
ATOM     31  C   UNL     1      -4.003  11.663  17.213  0.00  0.00    +0.000 A 
ATOM     32  C   UNL     1      -2.860  11.201  17.848  0.00  0.00    +0.000 A 
ATOM     33  N   UNL     1      -2.564  11.623  19.088  0.00  0.00    +0.000 NA
ATOM     34  C   UNL     1      -1.443  11.145  19.677  0.00  0.00    +0.000 A 
ATOM     35 CL   UNL     1      -1.199  11.801  21.245  0.00  0.00    +0.000 Cl
ENDBRANCH  23  24
ENDBRANCH   1  23
TORSDOF 7
ENDMDL
MODEL 8
REMARK VINA RESULT:      -8.5      5.488     11.197
REMARK  Name = 
REMARK  9 active torsions:
REMARK  status: ('A' for Active; 'I' for Inactive)
REMARK    1  A    between atoms: C_1  and  O_2
REMARK    2  A    between atoms: O_2  and  C_3
REMARK    3  A    between atoms: C_13  and  C_14
REMARK    4  A    between atoms: C_14  and  N_15
REMARK    5  A    between atoms: N_15  and  C_16
REMARK    6  A    between atoms: N_15  and  C_23
REMARK    7  A    between atoms: C_16  and  C_17
REMARK    8  A    between atoms: C_23  and  C_24
REMARK    9  A    between atoms: C_28  and  C_29
REMARK                            x       y       z     vdW  Elec       q    Type
REMARK                         _______ _______ _______ _____ _____    ______ ____
ROOT
ATOM      1  N   UNL     1       0.166  11.875  19.018  0.00  0.00    +0.000 NA
ENDROOT
BRANCH   1   2
ATOM      2  C   UNL     1      -0.901  12.586  18.283  0.00  0.00    +0.000 C 
BRANCH   2  13
ATOM      3  C   UNL     1      -3.040  11.481  17.494  0.00  0.00    +0.000 A 
ATOM      4  N   UNL     1      -4.362  11.215  17.554  0.00  0.00    +0.000 NA
ATOM      5  C   UNL     1      -5.038  11.590  18.640  0.00  0.00    +0.000 A 
ATOM      6  C   UNL     1      -6.414  11.419  18.639  0.00  0.00    +0.000 A 
ATOM      7  C   UNL     1      -7.192  11.805  19.728  0.00  0.00    +0.000 A 
ATOM      8  C   UNL     1      -6.571  12.348  20.842  0.00  0.00    +0.000 A 
ATOM      9  F   UNL     1      -7.313  12.710  21.896  0.00  0.00    +0.000 F 
ATOM     10  C   UNL     1      -5.192  12.536  20.872  0.00  0.00    +0.000 A 
ATOM     11  C   UNL     1      -4.412  12.180  19.758  0.00  0.00    +0.000 A 
ATOM     12  C   UNL     1      -3.028  12.424  19.677  0.00  0.00    +0.000 A 
ATOM     13  C   UNL     1      -2.317  12.102  18.510  0.00  0.00    +0.000 A 
BRANCH   3  15
ATOM     14  C   UNL     1      -2.564   9.773  15.968  0.00  0.00    +0.000 C 
ATOM     15  O   UNL     1      -2.374  11.138  16.334  0.00  0.00    +0.000 OA
ENDBRANCH   3  15
ENDBRANCH   2  13
ENDBRANCH   1   2
BRANCH   1  16
ATOM     16  C   UNL     1       1.001  12.753  19.864  0.00  0.00    +0.000 C 
BRANCH  16  17
ATOM     17  C   UNL     1       1.747  13.892  19.209  0.00  0.00    +0.000 A 
ATOM     18  C   UNL     1       1.216  15.185  19.183  0.00  0.00    +0.000 A 
ATOM     19  C   UNL     1       1.891  16.213  18.532  0.00  0.00    +0.000 A 
ATOM     20  C   UNL     1       3.082  15.912  17.899  0.00  0.00    +0.000 A 
ATOM     21  N   UNL     1       3.633  14.679  17.893  0.00  0.00    +0.000 NA
ATOM     22  C   UNL     1       2.957  13.704  18.547  0.00  0.00    +0.000 A 
ENDBRANCH  16  17
ENDBRANCH   1  16
BRANCH   1  23
ATOM     23  C   UNL     1      -0.397  10.750  19.797  0.00  0.00    +0.000 C 
BRANCH  23  24
ATOM     24  C   UNL     1       0.497   9.533  19.816  0.00  0.00    +0.000 A 
ATOM     25  C   UNL     1       1.328   9.267  18.722  0.00  0.00    +0.000 A 
ATOM     26  C   UNL     1       2.170   8.147  18.716  0.00  0.00    +0.000 A 
ATOM     27  C   UNL     1       3.011   7.875  17.625  0.00  0.00    +0.000 A 
ATOM     28  C   UNL     1       3.861   6.767  17.639  0.00  0.00    +0.000 A 
ATOM     29  C   UNL     1       4.762   6.481  16.476  0.00  0.00    +0.000 C 
ATOM     30  C   UNL     1       3.842   5.922  18.749  0.00  0.00    +0.000 A 
ATOM     31  C   UNL     1       2.993   6.198  19.830  0.00  0.00    +0.000 A 
ATOM     32  C   UNL     1       2.153   7.302  19.839  0.00  0.00    +0.000 A 
ATOM     33  N   UNL     1       1.361   7.534  20.898  0.00  0.00    +0.000 NA
ATOM     34  C   UNL     1       0.560   8.625  20.871  0.00  0.00    +0.000 A 
ATOM     35 CL   UNL     1      -0.403   8.763  22.286  0.00  0.00    +0.000 Cl
ENDBRANCH  23  24
ENDBRANCH   1  23
TORSDOF 7
ENDMDL
MODEL 9
REMARK VINA RESULT:      -8.4      1.257      1.549
REMARK  Name = 
REMARK  9 active torsions:
REMARK  status: ('A' for Active; 'I' for Inactive)
REMARK    1  A    between atoms: C_1  and  O_2
REMARK    2  A    between atoms: O_2  and  C_3
REMARK    3  A    between atoms: C_13  and  C_14
REMARK    4  A    between atoms: C_14  and  N_15
REMARK    5  A    between atoms: N_15  and  C_16
REMARK    6  A    between atoms: N_15  and  C_23
REMARK    7  A    between atoms: C_16  and  C_17
REMARK    8  A    between atoms: C_23  and  C_24
REMARK    9  A    between atoms: C_28  and  C_29
REMARK                            x       y       z     vdW  Elec       q    Type
REMARK                         _______ _______ _______ _____ _____    ______ ____
ROOT
ATOM      1  N   UNL     1       3.494   6.115  18.411  0.00  0.00    +0.000 NA
ENDROOT
BRANCH   1   2
ATOM      2  C   UNL     1       4.781   5.414  18.598  0.00  0.00    +0.000 C 
BRANCH   2  13
ATOM      3  C   UNL     1       6.756   5.884  17.083  0.00  0.00    +0.000 A 
ATOM      4  N   UNL     1       7.414   5.858  15.905  0.00  0.00    +0.000 NA
ATOM      5  C   UNL     1       6.922   5.112  14.916  0.00  0.00    +0.000 A 
ATOM      6  C   UNL     1       7.539   5.186  13.677  0.00  0.00    +0.000 A 
ATOM      7  C   UNL     1       7.070   4.454  12.589  0.00  0.00    +0.000 A 
ATOM      8  C   UNL     1       5.980   3.615  12.760  0.00  0.00    +0.000 A 
ATOM      9  F   UNL     1       5.532   2.899  11.721  0.00  0.00    +0.000 F 
ATOM     10  C   UNL     1       5.336   3.521  13.991  0.00  0.00    +0.000 A 
ATOM     11  C   UNL     1       5.787   4.289  15.079  0.00  0.00    +0.000 A 
ATOM     12  C   UNL     1       5.134   4.319  16.325  0.00  0.00    +0.000 A 
ATOM     13  C   UNL     1       5.599   5.156  17.351  0.00  0.00    +0.000 A 
BRANCH   3  15
ATOM     14  C   UNL     1       7.709   7.965  17.566  0.00  0.00    +0.000 C 
ATOM     15  O   UNL     1       7.252   6.712  18.071  0.00  0.00    +0.000 OA
ENDBRANCH   3  15
ENDBRANCH   2  13
ENDBRANCH   1   2
BRANCH   1  16
ATOM     16  C   UNL     1       2.453   5.296  17.753  0.00  0.00    +0.000 C 
BRANCH  16  17
ATOM     17  C   UNL     1       2.004   4.020  18.426  0.00  0.00    +0.000 A 
ATOM     18  C   UNL     1       2.273   2.770  17.860  0.00  0.00    +0.000 A 
ATOM     19  C   UNL     1       1.808   1.607  18.464  0.00  0.00    +0.000 A 
ATOM     20  C   UNL     1       1.060   1.727  19.620  0.00  0.00    +0.000 A 
ATOM     21  N   UNL     1       0.771   2.911  20.202  0.00  0.00    +0.000 NA
ATOM     22  C   UNL     1       1.249   4.023  19.595  0.00  0.00    +0.000 A 
ENDBRANCH  16  17
ENDBRANCH   1  16
BRANCH   1  23
ATOM     23  C   UNL     1       3.012   6.674  19.693  0.00  0.00    +0.000 C 
BRANCH  23  24
ATOM     24  C   UNL     1       2.202   7.937  19.526  0.00  0.00    +0.000 A 
ATOM     25  C   UNL     1       1.409   8.396  20.584  0.00  0.00    +0.000 A 
ATOM     26  C   UNL     1       0.651   9.568  20.457  0.00  0.00    +0.000 A 
ATOM     27  C   UNL     1      -0.143  10.039  21.515  0.00  0.00    +0.000 A 
ATOM     28  C   UNL     1      -0.878  11.219  21.383  0.00  0.00    +0.000 A 
ATOM     29  C   UNL     1      -1.721  11.724  22.516  0.00  0.00    +0.000 C 
ATOM     30  C   UNL     1      -0.828  11.909  20.171  0.00  0.00    +0.000 A 
ATOM     31  C   UNL     1      -0.038  11.426  19.118  0.00  0.00    +0.000 A 
ATOM     32  C   UNL     1       0.710  10.264  19.237  0.00  0.00    +0.000 A 
ATOM     33  N   UNL     1       1.459   9.840  18.206  0.00  0.00    +0.000 NA
ATOM     34  C   UNL     1       2.180   8.704  18.363  0.00  0.00    +0.000 A 
ATOM     35 CL   UNL     1       3.060   8.290  16.949  0.00  0.00    +0.000 Cl
ENDBRANCH  23  24
ENDBRANCH   1  23
TORSDOF 7
ENDMDL
