MODEL 1
REMARK VINA RESULT:      -8.6      0.000      0.000
REMARK  Name = 
REMARK  14 active torsions:
REMARK  status: ('A' for Active; 'I' for Inactive)
REMARK    1  A    between atoms: C_1  and  C_2
REMARK    2  A    between atoms: C_2  and  N_3
REMARK    3  A    between atoms: C_4  and  C_6
REMARK    4  A    between atoms: C_6  and  C_8
REMARK    5  A    between atoms: C_8  and  C_9
REMARK    6  A    between atoms: C_8  and  N_11
REMARK    7  A    between atoms: C_9  and  C_10
REMARK    8  A    between atoms: C_12  and  C_14
REMARK    9  A    between atoms: C_14  and  C_15
REMARK   10  A    between atoms: C_14  and  N_19
REMARK   11  A    between atoms: C_15  and  C_16
REMARK   12  A    between atoms: C_16  and  C_17
REMARK   13  A    between atoms: C_16  and  C_18
REMARK   14  A    between atoms: C_20  and  C_22
REMARK                            x       y       z     vdW  Elec       q    Type
REMARK                         _______ _______ _______ _____ _____    ______ ____
ROOT
ATOM      1  C   UNL     1       3.356   4.824  19.267  0.00  0.00    +0.000 C 
ENDROOT
BRANCH   1   3
ATOM      2  N   UNL     1       5.327   5.766  18.056  0.00  0.00    +0.000 N 
ATOM      3  C   UNL     1       4.897   5.031  19.150  0.00  0.00    +0.000 C 
ATOM      4  O   UNL     1       5.684   4.617  20.001  0.00  0.00    +0.000 OA
ATOM      5  H   UNL     1       4.632   6.171  17.431  0.00  0.00    +0.000 HD
BRANCH   2   6
ATOM      6  C   UNL     1       6.754   6.072  17.810  0.00  0.00    +0.000 C 
BRANCH   6   7
ATOM      7  C   UNL     1       7.409   5.006  16.911  0.00  0.00    +0.000 C 
ATOM      8  O   UNL     1       8.211   4.161  17.306  0.00  0.00    +0.000 OA
BRANCH   7  10
ATOM      9  N   UNL     1       5.903   4.320  15.087  0.00  0.00    +0.000 N 
ATOM     10  C   UNL     1       7.046   5.029  15.409  0.00  0.00    +0.000 C 
ATOM     11  O   UNL     1       7.738   5.633  14.606  0.00  0.00    +0.000 OA
ATOM     12  H   UNL     1       5.413   3.858  15.849  0.00  0.00    +0.000 HD
BRANCH   9  14
ATOM     13  C   UNL     1       6.241   3.309  12.865  0.00  0.00    +0.000 C 
ATOM     14  C   UNL     1       5.393   4.224  13.732  0.00  0.00    +0.000 C 
ENDBRANCH   9  14
ENDBRANCH   7  10
ENDBRANCH   6   7
BRANCH   6  15
ATOM     15  C   UNL     1       6.934   7.501  17.269  0.00  0.00    +0.000 C 
ATOM     16  C   UNL     1       8.110   8.256  17.873  0.00  0.00    +0.000 C 
ENDBRANCH   6  15
ENDBRANCH   2   6
ENDBRANCH   1   3
BRANCH   1  17
ATOM     17  N   UNL     1       2.730   5.991  19.892  0.00  0.00    +0.000 N 
ATOM     18  C   UNL     1       2.320   7.092  19.158  0.00  0.00    +0.000 C 
ATOM     19  O   UNL     1       2.465   7.156  17.943  0.00  0.00    +0.000 OA
ATOM     20  H   UNL     1       2.683   6.069  20.904  0.00  0.00    +0.000 HD
BRANCH  18  21
ATOM     21  C   UNL     1       1.686   8.213  19.937  0.00  0.00    +0.000 A 
ATOM     22  C   UNL     1       1.447   8.025  21.289  0.00  0.00    +0.000 A 
ATOM     23  C   UNL     1       0.825   9.047  22.000  0.00  0.00    +0.000 A 
ATOM     24  C   UNL     1       0.449  10.222  21.340  0.00  0.00    +0.000 A 
ATOM     25  C   UNL     1      -0.215  11.258  22.022  0.00  0.00    +0.000 A 
ATOM     26  C   UNL     1      -0.609  12.409  21.345  0.00  0.00    +0.000 A 
ATOM     27  C   UNL     1      -0.323  12.532  19.989  0.00  0.00    +0.000 A 
ATOM     28  C   UNL     1       0.352  11.503  19.318  0.00  0.00    +0.000 A 
ATOM     29  C   UNL     1       0.744  10.332  19.959  0.00  0.00    +0.000 A 
ATOM     30  N   UNL     1       1.361   9.349  19.262  0.00  0.00    +0.000 NA
ENDBRANCH  18  21
ENDBRANCH   1  17
BRANCH   1  31
ATOM     31  C   UNL     1       3.051   3.538  20.074  0.00  0.00    +0.000 C 
BRANCH  31  32
ATOM     32  C   UNL     1       1.569   3.309  20.455  0.00  0.00    +0.000 C 
ATOM     33  C   UNL     1       0.751   2.592  19.378  0.00  0.00    +0.000 C 
ATOM     34  C   UNL     1       1.469   2.505  21.760  0.00  0.00    +0.000 C 
ENDBRANCH  31  32
ENDBRANCH   1  31
TORSDOF 10
ENDMDL
MODEL 2
REMARK VINA RESULT:      -8.5      0.903      1.078
REMARK  Name = 
REMARK  14 active torsions:
REMARK  status: ('A' for Active; 'I' for Inactive)
REMARK    1  A    between atoms: C_1  and  C_2
REMARK    2  A    between atoms: C_2  and  N_3
REMARK    3  A    between atoms: C_4  and  C_6
REMARK    4  A    between atoms: C_6  and  C_8
REMARK    5  A    between atoms: C_8  and  C_9
REMARK    6  A    between atoms: C_8  and  N_11
REMARK    7  A    between atoms: C_9  and  C_10
REMARK    8  A    between atoms: C_12  and  C_14
REMARK    9  A    between atoms: C_14  and  C_15
REMARK   10  A    between atoms: C_14  and  N_19
REMARK   11  A    between atoms: C_15  and  C_16
REMARK   12  A    between atoms: C_16  and  C_17
REMARK   13  A    between atoms: C_16  and  C_18
REMARK   14  A    between atoms: C_20  and  C_22
REMARK                            x       y       z     vdW  Elec       q    Type
REMARK                         _______ _______ _______ _____ _____    ______ ____
ROOT
ATOM      1  C   UNL     1       3.108   4.755  19.423  0.00  0.00    +0.000 C 
ENDROOT
BRANCH   1   3
ATOM      2  N   UNL     1       5.060   5.561  18.091  0.00  0.00    +0.000 N 
ATOM      3  C   UNL     1       4.648   4.930  19.254  0.00  0.00    +0.000 C 
ATOM      4  O   UNL     1       5.451   4.580  20.120  0.00  0.00    +0.000 OA
ATOM      5  H   UNL     1       4.356   5.920  17.449  0.00  0.00    +0.000 HD
BRANCH   2   6
ATOM      6  C   UNL     1       6.485   5.825  17.788  0.00  0.00    +0.000 C 
BRANCH   6   7
ATOM      7  C   UNL     1       7.101   4.686  16.953  0.00  0.00    +0.000 C 
ATOM      8  O   UNL     1       8.241   4.250  17.107  0.00  0.00    +0.000 OA
BRANCH   7  10
ATOM      9  N   UNL     1       6.710   4.281  14.555  0.00  0.00    +0.000 N 
ATOM     10  C   UNL     1       6.226   4.077  15.834  0.00  0.00    +0.000 C 
ATOM     11  O   UNL     1       5.198   3.476  16.101  0.00  0.00    +0.000 OA
ATOM     12  H   UNL     1       7.581   4.799  14.465  0.00  0.00    +0.000 HD
BRANCH   9  14
ATOM     13  C   UNL     1       6.919   3.858  12.137  0.00  0.00    +0.000 C 
ATOM     14  C   UNL     1       6.036   3.782  13.371  0.00  0.00    +0.000 C 
ENDBRANCH   9  14
ENDBRANCH   7  10
ENDBRANCH   6   7
BRANCH   6  15
ATOM     15  C   UNL     1       6.671   7.207  17.138  0.00  0.00    +0.000 C 
ATOM     16  C   UNL     1       7.838   8.010  17.696  0.00  0.00    +0.000 C 
ENDBRANCH   6  15
ENDBRANCH   2   6
ENDBRANCH   1   3
BRANCH   1  17
ATOM     17  N   UNL     1       2.518   5.959  20.011  0.00  0.00    +0.000 N 
ATOM     18  C   UNL     1       2.223   7.082  19.256  0.00  0.00    +0.000 C 
ATOM     19  O   UNL     1       2.447   7.134  18.052  0.00  0.00    +0.000 OA
ATOM     20  H   UNL     1       2.415   6.042  21.019  0.00  0.00    +0.000 HD
BRANCH  18  21
ATOM     21  C   UNL     1       1.614   8.242  19.996  0.00  0.00    +0.000 A 
ATOM     22  C   UNL     1       1.488   8.153  21.374  0.00  0.00    +0.000 A 
ATOM     23  C   UNL     1       0.888   9.209  22.053  0.00  0.00    +0.000 A 
ATOM     24  C   UNL     1       0.422  10.318  21.338  0.00  0.00    +0.000 A 
ATOM     25  C   UNL     1      -0.223  11.385  21.992  0.00  0.00    +0.000 A 
ATOM     26  C   UNL     1      -0.707  12.468  21.264  0.00  0.00    +0.000 A 
ATOM     27  C   UNL     1      -0.533  12.494  19.885  0.00  0.00    +0.000 A 
ATOM     28  C   UNL     1       0.124  11.435  19.241  0.00  0.00    +0.000 A 
ATOM     29  C   UNL     1       0.604  10.329  19.935  0.00  0.00    +0.000 A 
ATOM     30  N   UNL     1       1.199   9.313  19.266  0.00  0.00    +0.000 NA
ENDBRANCH  18  21
ENDBRANCH   1  17
BRANCH   1  31
ATOM     31  C   UNL     1       2.806   3.512  20.298  0.00  0.00    +0.000 C 
BRANCH  31  32
ATOM     32  C   UNL     1       2.197   2.295  19.562  0.00  0.00    +0.000 C 
ATOM     33  C   UNL     1       0.901   2.605  18.807  0.00  0.00    +0.000 C 
ATOM     34  C   UNL     1       3.211   1.705  18.570  0.00  0.00    +0.000 C 
ENDBRANCH  31  32
ENDBRANCH   1  31
TORSDOF 10
ENDMDL
MODEL 3
REMARK VINA RESULT:      -8.2      1.292      1.996
REMARK  Name = 
REMARK  14 active torsions:
REMARK  status: ('A' for Active; 'I' for Inactive)
REMARK    1  A    between atoms: C_1  and  C_2
REMARK    2  A    between atoms: C_2  and  N_3
REMARK    3  A    between atoms: C_4  and  C_6
REMARK    4  A    between atoms: C_6  and  C_8
REMARK    5  A    between atoms: C_8  and  C_9
REMARK    6  A    between atoms: C_8  and  N_11
REMARK    7  A    between atoms: C_9  and  C_10
REMARK    8  A    between atoms: C_12  and  C_14
REMARK    9  A    between atoms: C_14  and  C_15
REMARK   10  A    between atoms: C_14  and  N_19
REMARK   11  A    between atoms: C_15  and  C_16
REMARK   12  A    between atoms: C_16  and  C_17
REMARK   13  A    between atoms: C_16  and  C_18
REMARK   14  A    between atoms: C_20  and  C_22
REMARK                            x       y       z     vdW  Elec       q    Type
REMARK                         _______ _______ _______ _____ _____    ______ ____
ROOT
ATOM      1  C   UNL     1       2.501   5.702  17.961  0.00  0.00    +0.000 C 
ENDROOT
BRANCH   1   3
ATOM      2  N   UNL     1       4.919   5.193  17.598  0.00  0.00    +0.000 N 
ATOM      3  C   UNL     1       3.926   5.431  18.534  0.00  0.00    +0.000 C 
ATOM      4  O   UNL     1       4.171   5.478  19.740  0.00  0.00    +0.000 OA
ATOM      5  H   UNL     1       4.689   5.261  16.608  0.00  0.00    +0.000 HD
BRANCH   2   6
ATOM      6  C   UNL     1       6.329   4.942  17.975  0.00  0.00    +0.000 C 
BRANCH   6   7
ATOM      7  C   UNL     1       7.176   4.555  16.748  0.00  0.00    +0.000 C 
ATOM      8  O   UNL     1       8.316   4.095  16.807  0.00  0.00    +0.000 OA
BRANCH   7  10
ATOM      9  N   UNL     1       6.445   3.651  14.576  0.00  0.00    +0.000 N 
ATOM     10  C   UNL     1       6.550   4.789  15.354  0.00  0.00    +0.000 C 
ATOM     11  O   UNL     1       6.194   5.904  15.008  0.00  0.00    +0.000 OA
ATOM     12  H   UNL     1       6.779   2.780  14.981  0.00  0.00    +0.000 HD
BRANCH   9  14
ATOM     13  C   UNL     1       6.953   3.623  12.166  0.00  0.00    +0.000 C 
ATOM     14  C   UNL     1       5.880   3.662  13.240  0.00  0.00    +0.000 C 
ENDBRANCH   9  14
ENDBRANCH   7  10
ENDBRANCH   6   7
BRANCH   6  15
ATOM     15  C   UNL     1       6.918   6.129  18.756  0.00  0.00    +0.000 C 
ATOM     16  C   UNL     1       7.626   7.160  17.888  0.00  0.00    +0.000 C 
ENDBRANCH   6  15
ENDBRANCH   2   6
ENDBRANCH   1   3
BRANCH   1  17
ATOM     17  N   UNL     1       1.864   6.809  18.677  0.00  0.00    +0.000 N 
ATOM     18  C   UNL     1       2.044   8.131  18.304  0.00  0.00    +0.000 C 
ATOM     19  O   UNL     1       2.753   8.450  17.358  0.00  0.00    +0.000 OA
ATOM     20  H   UNL     1       1.360   6.640  19.543  0.00  0.00    +0.000 HD
BRANCH  18  21
ATOM     21  C   UNL     1       1.320   9.160  19.129  0.00  0.00    +0.000 A 
ATOM     22  C   UNL     1       1.201  10.446  18.626  0.00  0.00    +0.000 A 
ATOM     23  C   UNL     1       0.566  11.408  19.406  0.00  0.00    +0.000 A 
ATOM     24  C   UNL     1       0.079  11.062  20.672  0.00  0.00    +0.000 A 
ATOM     25  C   UNL     1      -0.533  12.020  21.501  0.00  0.00    +0.000 A 
ATOM     26  C   UNL     1      -0.987  11.668  22.769  0.00  0.00    +0.000 A 
ATOM     27  C   UNL     1      -0.844  10.354  23.203  0.00  0.00    +0.000 A 
ATOM     28  C   UNL     1      -0.247   9.401  22.366  0.00  0.00    +0.000 A 
ATOM     29  C   UNL     1       0.234   9.722  21.101  0.00  0.00    +0.000 A 
ATOM     30  N   UNL     1       0.838   8.775  20.343  0.00  0.00    +0.000 NA
ENDBRANCH  18  21
ENDBRANCH   1  17
BRANCH   1  31
ATOM     31  C   UNL     1       1.638   4.419  18.052  0.00  0.00    +0.000 C 
BRANCH  31  32
ATOM     32  C   UNL     1       2.312   3.191  18.708  0.00  0.00    +0.000 C 
ATOM     33  C   UNL     1       1.481   2.540  19.818  0.00  0.00    +0.000 C 
ATOM     34  C   UNL     1       2.631   2.125  17.649  0.00  0.00    +0.000 C 
ENDBRANCH  31  32
ENDBRANCH   1  31
TORSDOF 10
ENDMDL
MODEL 4
REMARK VINA RESULT:      -8.1      1.215      1.504
REMARK  Name = 
REMARK  14 active torsions:
REMARK  status: ('A' for Active; 'I' for Inactive)
REMARK    1  A    between atoms: C_1  and  C_2
REMARK    2  A    between atoms: C_2  and  N_3
REMARK    3  A    between atoms: C_4  and  C_6
REMARK    4  A    between atoms: C_6  and  C_8
REMARK    5  A    between atoms: C_8  and  C_9
REMARK    6  A    between atoms: C_8  and  N_11
REMARK    7  A    between atoms: C_9  and  C_10
REMARK    8  A    between atoms: C_12  and  C_14
REMARK    9  A    between atoms: C_14  and  C_15
REMARK   10  A    between atoms: C_14  and  N_19
REMARK   11  A    between atoms: C_15  and  C_16
REMARK   12  A    between atoms: C_16  and  C_17
REMARK   13  A    between atoms: C_16  and  C_18
REMARK   14  A    between atoms: C_20  and  C_22
REMARK                            x       y       z     vdW  Elec       q    Type
REMARK                         _______ _______ _______ _____ _____    ______ ____
ROOT
ATOM      1  C   UNL     1       2.678   6.011  18.140  0.00  0.00    +0.000 C 
ENDROOT
BRANCH   1   3
ATOM      2  N   UNL     1       5.104   5.690  17.644  0.00  0.00    +0.000 N 
ATOM      3  C   UNL     1       4.119   5.652  18.618  0.00  0.00    +0.000 C 
ATOM      4  O   UNL     1       4.380   5.403  19.795  0.00  0.00    +0.000 OA
ATOM      5  H   UNL     1       4.857   5.996  16.705  0.00  0.00    +0.000 HD
BRANCH   2   6
ATOM      6  C   UNL     1       6.526   5.399  17.936  0.00  0.00    +0.000 C 
BRANCH   6   7
ATOM      7  C   UNL     1       7.231   4.771  16.718  0.00  0.00    +0.000 C 
ATOM      8  O   UNL     1       8.235   4.063  16.785  0.00  0.00    +0.000 OA
BRANCH   7  10
ATOM      9  N   UNL     1       7.012   4.189  14.335  0.00  0.00    +0.000 N 
ATOM     10  C   UNL     1       6.643   5.083  15.324  0.00  0.00    +0.000 C 
ATOM     11  O   UNL     1       5.919   6.050  15.151  0.00  0.00    +0.000 OA
ATOM     12  H   UNL     1       7.622   3.422  14.607  0.00  0.00    +0.000 HD
BRANCH   9  14
ATOM     13  C   UNL     1       5.481   3.290  12.627  0.00  0.00    +0.000 C 
ATOM     14  C   UNL     1       6.560   4.305  12.961  0.00  0.00    +0.000 C 
ENDBRANCH   9  14
ENDBRANCH   7  10
ENDBRANCH   6   7
BRANCH   6  15
ATOM     15  C   UNL     1       7.254   6.645  18.469  0.00  0.00    +0.000 C 
ATOM     16  C   UNL     1       7.639   7.652  17.395  0.00  0.00    +0.000 C 
ENDBRANCH   6  15
ENDBRANCH   2   6
ENDBRANCH   1   3
BRANCH   1  17
ATOM     17  N   UNL     1       1.996   6.830  19.144  0.00  0.00    +0.000 N 
ATOM     18  C   UNL     1       1.854   8.201  19.007  0.00  0.00    +0.000 C 
ATOM     19  O   UNL     1       2.299   8.809  18.040  0.00  0.00    +0.000 OA
ATOM     20  H   UNL     1       1.707   6.424  20.030  0.00  0.00    +0.000 HD
BRANCH  18  21
ATOM     21  C   UNL     1       1.124   8.910  20.116  0.00  0.00    +0.000 A 
ATOM     22  C   UNL     1       1.186   8.376  21.394  0.00  0.00    +0.000 A 
ATOM     23  C   UNL     1       0.479   9.010  22.411  0.00  0.00    +0.000 A 
ATOM     24  C   UNL     1      -0.279  10.150  22.122  0.00  0.00    +0.000 A 
ATOM     25  C   UNL     1      -1.036  10.791  23.121  0.00  0.00    +0.000 A 
ATOM     26  C   UNL     1      -1.808  11.907  22.813  0.00  0.00    +0.000 A 
ATOM     27  C   UNL     1      -1.811  12.394  21.510  0.00  0.00    +0.000 A 
ATOM     28  C   UNL     1      -1.043  11.760  20.523  0.00  0.00    +0.000 A 
ATOM     29  C   UNL     1      -0.275  10.632  20.792  0.00  0.00    +0.000 A 
ATOM     30  N   UNL     1       0.421  10.031  19.797  0.00  0.00    +0.000 NA
ENDBRANCH  18  21
ENDBRANCH   1  17
BRANCH   1  31
ATOM     31  C   UNL     1       1.876   4.718  17.849  0.00  0.00    +0.000 C 
BRANCH  31  32
ATOM     32  C   UNL     1       2.006   3.587  18.897  0.00  0.00    +0.000 C 
ATOM     33  C   UNL     1       0.896   3.584  19.953  0.00  0.00    +0.000 C 
ATOM     34  C   UNL     1       2.025   2.215  18.206  0.00  0.00    +0.000 C 
ENDBRANCH  31  32
ENDBRANCH   1  31
TORSDOF 10
ENDMDL
MODEL 5
REMARK VINA RESULT:      -8.1      1.530      1.888
REMARK  Name = 
REMARK  14 active torsions:
REMARK  status: ('A' for Active; 'I' for Inactive)
REMARK    1  A    between atoms: C_1  and  C_2
REMARK    2  A    between atoms: C_2  and  N_3
REMARK    3  A    between atoms: C_4  and  C_6
REMARK    4  A    between atoms: C_6  and  C_8
REMARK    5  A    between atoms: C_8  and  C_9
REMARK    6  A    between atoms: C_8  and  N_11
REMARK    7  A    between atoms: C_9  and  C_10
REMARK    8  A    between atoms: C_12  and  C_14
REMARK    9  A    between atoms: C_14  and  C_15
REMARK   10  A    between atoms: C_14  and  N_19
REMARK   11  A    between atoms: C_15  and  C_16
REMARK   12  A    between atoms: C_16  and  C_17
REMARK   13  A    between atoms: C_16  and  C_18
REMARK   14  A    between atoms: C_20  and  C_22
REMARK                            x       y       z     vdW  Elec       q    Type
REMARK                         _______ _______ _______ _____ _____    ______ ____
ROOT
ATOM      1  C   UNL     1       2.799   5.879  18.749  0.00  0.00    +0.000 C 
ENDROOT
BRANCH   1   3
ATOM      2  N   UNL     1       5.075   6.165  17.762  0.00  0.00    +0.000 N 
ATOM      3  C   UNL     1       4.349   5.747  18.866  0.00  0.00    +0.000 C 
ATOM      4  O   UNL     1       4.901   5.347  19.891  0.00  0.00    +0.000 OA
ATOM      5  H   UNL     1       4.580   6.580  16.975  0.00  0.00    +0.000 HD
BRANCH   2   6
ATOM      6  C   UNL     1       6.555   6.128  17.719  0.00  0.00    +0.000 C 
BRANCH   6   7
ATOM      7  C   UNL     1       7.063   4.852  17.021  0.00  0.00    +0.000 C 
ATOM      8  O   UNL     1       8.131   4.298  17.278  0.00  0.00    +0.000 OA
BRANCH   7  10
ATOM      9  N   UNL     1       6.710   4.339  14.638  0.00  0.00    +0.000 N 
ATOM     10  C   UNL     1       6.173   4.252  15.909  0.00  0.00    +0.000 C 
ATOM     11  O   UNL     1       5.090   3.756  16.174  0.00  0.00    +0.000 OA
ATOM     12  H   UNL     1       7.624   4.777  14.549  0.00  0.00    +0.000 HD
BRANCH   9  14
ATOM     13  C   UNL     1       6.937   3.815  12.242  0.00  0.00    +0.000 C 
ATOM     14  C   UNL     1       6.032   3.829  13.461  0.00  0.00    +0.000 C 
ENDBRANCH   9  14
ENDBRANCH   7  10
ENDBRANCH   6   7
BRANCH   6  15
ATOM     15  C   UNL     1       7.129   7.414  17.100  0.00  0.00    +0.000 C 
ATOM     16  C   UNL     1       8.116   8.152  17.992  0.00  0.00    +0.000 C 
ENDBRANCH   6  15
ENDBRANCH   2   6
ENDBRANCH   1   3
BRANCH   1  17
ATOM     17  N   UNL     1       2.372   7.227  19.127  0.00  0.00    +0.000 N 
ATOM     18  C   UNL     1       2.261   8.253  18.203  0.00  0.00    +0.000 C 
ATOM     19  O   UNL     1       2.522   8.093  17.017  0.00  0.00    +0.000 OA
ATOM     20  H   UNL     1       2.254   7.475  20.106  0.00  0.00    +0.000 HD
BRANCH  18  21
ATOM     21  C   UNL     1       1.803   9.584  18.737  0.00  0.00    +0.000 A 
ATOM     22  C   UNL     1       0.852   9.599  19.745  0.00  0.00    +0.000 A 
ATOM     23  C   UNL     1       0.400  10.830  20.211  0.00  0.00    +0.000 A 
ATOM     24  C   UNL     1       0.901  12.010  19.650  0.00  0.00    +0.000 A 
ATOM     25  C   UNL     1       0.437  13.270  20.072  0.00  0.00    +0.000 A 
ATOM     26  C   UNL     1       0.924  14.434  19.485  0.00  0.00    +0.000 A 
ATOM     27  C   UNL     1       1.888  14.341  18.487  0.00  0.00    +0.000 A 
ATOM     28  C   UNL     1       2.357  13.084  18.080  0.00  0.00    +0.000 A 
ATOM     29  C   UNL     1       1.879  11.900  18.633  0.00  0.00    +0.000 A 
ATOM     30  N   UNL     1       2.336  10.707  18.182  0.00  0.00    +0.000 NA
ENDBRANCH  18  21
ENDBRANCH   1  17
BRANCH   1  31
ATOM     31  C   UNL     1       2.106   4.814  19.636  0.00  0.00    +0.000 C 
BRANCH  31  32
ATOM     32  C   UNL     1       1.378   3.674  18.885  0.00  0.00    +0.000 C 
ATOM     33  C   UNL     1       1.952   3.373  17.497  0.00  0.00    +0.000 C 
ATOM     34  C   UNL     1       1.406   2.382  19.715  0.00  0.00    +0.000 C 
ENDBRANCH  31  32
ENDBRANCH   1  31
TORSDOF 10
ENDMDL
MODEL 6
REMARK VINA RESULT:      -7.9      1.205      2.028
REMARK  Name = 
REMARK  14 active torsions:
REMARK  status: ('A' for Active; 'I' for Inactive)
REMARK    1  A    between atoms: C_1  and  C_2
REMARK    2  A    between atoms: C_2  and  N_3
REMARK    3  A    between atoms: C_4  and  C_6
REMARK    4  A    between atoms: C_6  and  C_8
REMARK    5  A    between atoms: C_8  and  C_9
REMARK    6  A    between atoms: C_8  and  N_11
REMARK    7  A    between atoms: C_9  and  C_10
REMARK    8  A    between atoms: C_12  and  C_14
REMARK    9  A    between atoms: C_14  and  C_15
REMARK   10  A    between atoms: C_14  and  N_19
REMARK   11  A    between atoms: C_15  and  C_16
REMARK   12  A    between atoms: C_16  and  C_17
REMARK   13  A    between atoms: C_16  and  C_18
REMARK   14  A    between atoms: C_20  and  C_22
REMARK                            x       y       z     vdW  Elec       q    Type
REMARK                         _______ _______ _______ _____ _____    ______ ____
ROOT
ATOM      1  C   UNL     1       3.741   4.346  18.891  0.00  0.00    +0.000 C 
ENDROOT
BRANCH   1   3
ATOM      2  N   UNL     1       5.586   4.961  17.324  0.00  0.00    +0.000 N 
ATOM      3  C   UNL     1       5.252   4.622  18.626  0.00  0.00    +0.000 C 
ATOM      4  O   UNL     1       6.095   4.595  19.524  0.00  0.00    +0.000 OA
ATOM      5  H   UNL     1       4.842   5.066  16.637  0.00  0.00    +0.000 HD
BRANCH   2   6
ATOM      6  C   UNL     1       6.972   5.275  16.911  0.00  0.00    +0.000 C 
BRANCH   6   7
ATOM      7  C   UNL     1       7.173   5.046  15.401  0.00  0.00    +0.000 C 
ATOM      8  O   UNL     1       7.898   5.733  14.684  0.00  0.00    +0.000 OA
BRANCH   7  10
ATOM      9  N   UNL     1       6.316   3.944  13.372  0.00  0.00    +0.000 N 
ATOM     10  C   UNL     1       6.383   3.886  14.752  0.00  0.00    +0.000 C 
ATOM     11  O   UNL     1       5.875   3.014  15.438  0.00  0.00    +0.000 OA
ATOM     12  H   UNL     1       6.782   4.724  12.916  0.00  0.00    +0.000 HD
BRANCH   9  14
ATOM     13  C   UNL     1       4.623   3.570  11.622  0.00  0.00    +0.000 C 
ATOM     14  C   UNL     1       5.625   2.946  12.577  0.00  0.00    +0.000 C 
ENDBRANCH   9  14
ENDBRANCH   7  10
ENDBRANCH   6   7
BRANCH   6  15
ATOM     15  C   UNL     1       7.381   6.690  17.358  0.00  0.00    +0.000 C 
ATOM     16  C   UNL     1       6.301   7.745  17.161  0.00  0.00    +0.000 C 
ENDBRANCH   6  15
ENDBRANCH   2   6
ENDBRANCH   1   3
BRANCH   1  17
ATOM     17  N   UNL     1       3.063   5.574  19.314  0.00  0.00    +0.000 N 
ATOM     18  C   UNL     1       2.810   6.616  18.438  0.00  0.00    +0.000 C 
ATOM     19  O   UNL     1       3.145   6.574  17.260  0.00  0.00    +0.000 OA
ATOM     20  H   UNL     1       2.862   5.738  20.296  0.00  0.00    +0.000 HD
BRANCH  18  21
ATOM     21  C   UNL     1       2.100   7.812  19.014  0.00  0.00    +0.000 A 
ATOM     22  C   UNL     1       1.937   8.932  18.213  0.00  0.00    +0.000 A 
ATOM     23  C   UNL     1       1.315  10.051  18.758  0.00  0.00    +0.000 A 
ATOM     24  C   UNL     1       0.885  10.025  20.089  0.00  0.00    +0.000 A 
ATOM     25  C   UNL     1       0.288  11.154  20.682  0.00  0.00    +0.000 A 
ATOM     26  C   UNL     1      -0.108  11.124  22.015  0.00  0.00    +0.000 A 
ATOM     27  C   UNL     1       0.076   9.960  22.754  0.00  0.00    +0.000 A 
ATOM     28  C   UNL     1       0.659   8.834  22.155  0.00  0.00    +0.000 A 
ATOM     29  C   UNL     1       1.083   8.835  20.830  0.00  0.00    +0.000 A 
ATOM     30  N   UNL     1       1.673   7.736  20.304  0.00  0.00    +0.000 NA
ENDBRANCH  18  21
ENDBRANCH   1  17
BRANCH   1  31
ATOM     31  C   UNL     1       3.581   3.235  19.959  0.00  0.00    +0.000 C 
BRANCH  31  32
ATOM     32  C   UNL     1       2.163   2.635  20.109  0.00  0.00    +0.000 C 
ATOM     33  C   UNL     1       1.161   3.564  20.800  0.00  0.00    +0.000 C 
ATOM     34  C   UNL     1       1.598   2.243  18.734  0.00  0.00    +0.000 C 
ENDBRANCH  31  32
ENDBRANCH   1  31
TORSDOF 10
ENDMDL
MODEL 7
REMARK VINA RESULT:      -7.8      1.082      1.614
REMARK  Name = 
REMARK  14 active torsions:
REMARK  status: ('A' for Active; 'I' for Inactive)
REMARK    1  A    between atoms: C_1  and  C_2
REMARK    2  A    between atoms: C_2  and  N_3
REMARK    3  A    between atoms: C_4  and  C_6
REMARK    4  A    between atoms: C_6  and  C_8
REMARK    5  A    between atoms: C_8  and  C_9
REMARK    6  A    between atoms: C_8  and  N_11
REMARK    7  A    between atoms: C_9  and  C_10
REMARK    8  A    between atoms: C_12  and  C_14
REMARK    9  A    between atoms: C_14  and  C_15
REMARK   10  A    between atoms: C_14  and  N_19
REMARK   11  A    between atoms: C_15  and  C_16
REMARK   12  A    between atoms: C_16  and  C_17
REMARK   13  A    between atoms: C_16  and  C_18
REMARK   14  A    between atoms: C_20  and  C_22
REMARK                            x       y       z     vdW  Elec       q    Type
REMARK                         _______ _______ _______ _____ _____    ______ ____
ROOT
ATOM      1  C   UNL     1       3.164   4.170  18.138  0.00  0.00    +0.000 C 
ENDROOT
BRANCH   1   3
ATOM      2  N   UNL     1       5.180   5.474  17.454  0.00  0.00    +0.000 N 
ATOM      3  C   UNL     1       4.709   4.379  18.161  0.00  0.00    +0.000 C 
ATOM      4  O   UNL     1       5.463   3.653  18.808  0.00  0.00    +0.000 OA
ATOM      5  H   UNL     1       4.510   6.103  17.015  0.00  0.00    +0.000 HD
BRANCH   2   6
ATOM      6  C   UNL     1       6.617   5.828  17.394  0.00  0.00    +0.000 C 
BRANCH   6   7
ATOM      7  C   UNL     1       7.391   4.869  16.469  0.00  0.00    +0.000 C 
ATOM      8  O   UNL     1       8.270   4.096  16.848  0.00  0.00    +0.000 OA
BRANCH   7  10
ATOM      9  N   UNL     1       5.964   4.131  14.601  0.00  0.00    +0.000 N 
ATOM     10  C   UNL     1       7.048   4.910  14.962  0.00  0.00    +0.000 C 
ATOM     11  O   UNL     1       7.706   5.586  14.189  0.00  0.00    +0.000 OA
ATOM     12  H   UNL     1       5.498   3.612  15.342  0.00  0.00    +0.000 HD
BRANCH   9  14
ATOM     13  C   UNL     1       6.289   3.054  12.409  0.00  0.00    +0.000 C 
ATOM     14  C   UNL     1       5.481   4.039  13.236  0.00  0.00    +0.000 C 
ENDBRANCH   9  14
ENDBRANCH   7  10
ENDBRANCH   6   7
BRANCH   6  15
ATOM     15  C   UNL     1       6.813   7.306  17.018  0.00  0.00    +0.000 C 
ATOM     16  C   UNL     1       7.912   8.011  17.802  0.00  0.00    +0.000 C 
ENDBRANCH   6  15
ENDBRANCH   2   6
ENDBRANCH   1   3
BRANCH   1  17
ATOM     17  N   UNL     1       2.472   5.435  18.394  0.00  0.00    +0.000 N 
ATOM     18  C   UNL     1       2.809   6.258  19.455  0.00  0.00    +0.000 C 
ATOM     19  O   UNL     1       3.699   5.971  20.246  0.00  0.00    +0.000 OA
ATOM     20  H   UNL     1       1.645   5.687  17.859  0.00  0.00    +0.000 HD
BRANCH  18  21
ATOM     21  C   UNL     1       2.015   7.530  19.589  0.00  0.00    +0.000 A 
ATOM     22  C   UNL     1       1.949   8.385  18.499  0.00  0.00    +0.000 A 
ATOM     23  C   UNL     1       1.248   9.579  18.636  0.00  0.00    +0.000 A 
ATOM     24  C   UNL     1       0.644   9.892  19.858  0.00  0.00    +0.000 A 
ATOM     25  C   UNL     1      -0.040  11.110  20.040  0.00  0.00    +0.000 A 
ATOM     26  C   UNL     1      -0.611  11.420  21.270  0.00  0.00    +0.000 A 
ATOM     27  C   UNL     1      -0.514  10.508  22.316  0.00  0.00    +0.000 A 
ATOM     28  C   UNL     1       0.155   9.291  22.124  0.00  0.00    +0.000 A 
ATOM     29  C   UNL     1       0.753   8.956  20.914  0.00  0.00    +0.000 A 
ATOM     30  N   UNL     1       1.420   7.784  20.787  0.00  0.00    +0.000 NA
ENDBRANCH  18  21
ENDBRANCH   1  17
BRANCH   1  31
ATOM     31  C   UNL     1       2.756   3.100  19.181  0.00  0.00    +0.000 C 
BRANCH  31  32
ATOM     32  C   UNL     1       1.289   3.150  19.669  0.00  0.00    +0.000 C 
ATOM     33  C   UNL     1       0.352   2.187  18.933  0.00  0.00    +0.000 C 
ATOM     34  C   UNL     1       1.213   2.850  21.174  0.00  0.00    +0.000 C 
ENDBRANCH  31  32
ENDBRANCH   1  31
TORSDOF 10
ENDMDL
MODEL 8
REMARK VINA RESULT:      -7.8      1.346      1.916
REMARK  Name = 
REMARK  14 active torsions:
REMARK  status: ('A' for Active; 'I' for Inactive)
REMARK    1  A    between atoms: C_1  and  C_2
REMARK    2  A    between atoms: C_2  and  N_3
REMARK    3  A    between atoms: C_4  and  C_6
REMARK    4  A    between atoms: C_6  and  C_8
REMARK    5  A    between atoms: C_8  and  C_9
REMARK    6  A    between atoms: C_8  and  N_11
REMARK    7  A    between atoms: C_9  and  C_10
REMARK    8  A    between atoms: C_12  and  C_14
REMARK    9  A    between atoms: C_14  and  C_15
REMARK   10  A    between atoms: C_14  and  N_19
REMARK   11  A    between atoms: C_15  and  C_16
REMARK   12  A    between atoms: C_16  and  C_17
REMARK   13  A    between atoms: C_16  and  C_18
REMARK   14  A    between atoms: C_20  and  C_22
REMARK                            x       y       z     vdW  Elec       q    Type
REMARK                         _______ _______ _______ _____ _____    ______ ____
ROOT
ATOM      1  C   UNL     1       2.583   5.744  18.436  0.00  0.00    +0.000 C 
ENDROOT
BRANCH   1   3
ATOM      2  N   UNL     1       4.985   5.551  17.780  0.00  0.00    +0.000 N 
ATOM      3  C   UNL     1       4.074   5.500  18.823  0.00  0.00    +0.000 C 
ATOM      4  O   UNL     1       4.433   5.325  19.988  0.00  0.00    +0.000 OA
ATOM      5  H   UNL     1       4.654   5.795  16.849  0.00  0.00    +0.000 HD
BRANCH   2   6
ATOM      6  C   UNL     1       6.440   5.364  17.981  0.00  0.00    +0.000 C 
BRANCH   6   7
ATOM      7  C   UNL     1       7.105   4.757  16.730  0.00  0.00    +0.000 C 
ATOM      8  O   UNL     1       8.203   4.203  16.727  0.00  0.00    +0.000 OA
BRANCH   7  10
ATOM      9  N   UNL     1       6.382   3.750  14.602  0.00  0.00    +0.000 N 
ATOM     10  C   UNL     1       6.341   4.883  15.393  0.00  0.00    +0.000 C 
ATOM     11  O   UNL     1       5.764   5.917  15.096  0.00  0.00    +0.000 OA
ATOM     12  H   UNL     1       6.898   2.950  14.963  0.00  0.00    +0.000 HD
BRANCH   9  14
ATOM     13  C   UNL     1       6.716   3.546  12.170  0.00  0.00    +0.000 C 
ATOM     14  C   UNL     1       5.723   3.666  13.312  0.00  0.00    +0.000 C 
ENDBRANCH   9  14
ENDBRANCH   7  10
ENDBRANCH   6   7
BRANCH   6  15
ATOM     15  C   UNL     1       7.113   6.669  18.440  0.00  0.00    +0.000 C 
ATOM     16  C   UNL     1       7.461   7.626  17.308  0.00  0.00    +0.000 C 
ENDBRANCH   6  15
ENDBRANCH   2   6
ENDBRANCH   1   3
BRANCH   1  17
ATOM     17  N   UNL     1       2.132   7.045  18.934  0.00  0.00    +0.000 N 
ATOM     18  C   UNL     1       2.198   8.194  18.164  0.00  0.00    +0.000 C 
ATOM     19  O   UNL     1       2.644   8.190  17.024  0.00  0.00    +0.000 OA
ATOM     20  H   UNL     1       1.863   7.158  19.908  0.00  0.00    +0.000 HD
BRANCH  18  21
ATOM     21  C   UNL     1       1.692   9.457  18.808  0.00  0.00    +0.000 A 
ATOM     22  C   UNL     1       2.024  10.672  18.230  0.00  0.00    +0.000 A 
ATOM     23  C   UNL     1       1.589  11.841  18.847  0.00  0.00    +0.000 A 
ATOM     24  C   UNL     1       0.845  11.764  20.029  0.00  0.00    +0.000 A 
ATOM     25  C   UNL     1       0.422  12.929  20.699  0.00  0.00    +0.000 A 
ATOM     26  C   UNL     1      -0.293  12.837  21.889  0.00  0.00    +0.000 A 
ATOM     27  C   UNL     1      -0.601  11.582  22.403  0.00  0.00    +0.000 A 
ATOM     28  C   UNL     1      -0.191  10.426  21.724  0.00  0.00    +0.000 A 
ATOM     29  C   UNL     1       0.541  10.481  20.542  0.00  0.00    +0.000 A 
ATOM     30  N   UNL     1       0.947   9.337  19.941  0.00  0.00    +0.000 NA
ENDBRANCH  18  21
ENDBRANCH   1  17
BRANCH   1  31
ATOM     31  C   UNL     1       1.695   4.604  18.993  0.00  0.00    +0.000 C 
BRANCH  31  32
ATOM     32  C   UNL     1       1.378   3.449  18.014  0.00  0.00    +0.000 C 
ATOM     33  C   UNL     1       2.588   2.957  17.215  0.00  0.00    +0.000 C 
ATOM     34  C   UNL     1       0.775   2.255  18.771  0.00  0.00    +0.000 C 
ENDBRANCH  31  32
ENDBRANCH   1  31
TORSDOF 10
ENDMDL
MODEL 9
REMARK VINA RESULT:      -7.6      1.028      1.214
REMARK  Name = 
REMARK  14 active torsions:
REMARK  status: ('A' for Active; 'I' for Inactive)
REMARK    1  A    between atoms: C_1  and  C_2
REMARK    2  A    between atoms: C_2  and  N_3
REMARK    3  A    between atoms: C_4  and  C_6
REMARK    4  A    between atoms: C_6  and  C_8
REMARK    5  A    between atoms: C_8  and  C_9
REMARK    6  A    between atoms: C_8  and  N_11
REMARK    7  A    between atoms: C_9  and  C_10
REMARK    8  A    between atoms: C_12  and  C_14
REMARK    9  A    between atoms: C_14  and  C_15
REMARK   10  A    between atoms: C_14  and  N_19
REMARK   11  A    between atoms: C_15  and  C_16
REMARK   12  A    between atoms: C_16  and  C_17
REMARK   13  A    between atoms: C_16  and  C_18
REMARK   14  A    between atoms: C_20  and  C_22
REMARK                            x       y       z     vdW  Elec       q    Type
REMARK                         _______ _______ _______ _____ _____    ______ ____
ROOT
ATOM      1  C   UNL     1       3.571   4.557  18.703  0.00  0.00    +0.000 C 
ENDROOT
BRANCH   1   3
ATOM      2  N   UNL     1       5.473   5.335  17.284  0.00  0.00    +0.000 N 
ATOM      3  C   UNL     1       5.104   4.667  18.441  0.00  0.00    +0.000 C 
ATOM      4  O   UNL     1       5.941   4.238  19.236  0.00  0.00    +0.000 OA
ATOM      5  H   UNL     1       4.748   5.758  16.708  0.00  0.00    +0.000 HD
BRANCH   2   6
ATOM      6  C   UNL     1       6.888   5.546  16.901  0.00  0.00    +0.000 C 
BRANCH   6   7
ATOM      7  C   UNL     1       7.131   5.169  15.427  0.00  0.00    +0.000 C 
ATOM      8  O   UNL     1       7.979   5.694  14.706  0.00  0.00    +0.000 OA
BRANCH   7  10
ATOM      9  N   UNL     1       5.853   4.305  13.507  0.00  0.00    +0.000 N 
ATOM     10  C   UNL     1       6.225   4.075  14.819  0.00  0.00    +0.000 C 
ATOM     11  O   UNL     1       5.886   3.105  15.478  0.00  0.00    +0.000 OA
ATOM     12  H   UNL     1       6.203   5.153  13.067  0.00  0.00    +0.000 HD
BRANCH   9  14
ATOM     13  C   UNL     1       5.808   2.556  11.772  0.00  0.00    +0.000 C 
ATOM     14  C   UNL     1       5.010   3.393  12.757  0.00  0.00    +0.000 C 
ENDBRANCH   9  14
ENDBRANCH   7  10
ENDBRANCH   6   7
BRANCH   6  15
ATOM     15  C   UNL     1       7.349   6.976  17.234  0.00  0.00    +0.000 C 
ATOM     16  C   UNL     1       8.114   7.098  18.544  0.00  0.00    +0.000 C 
ENDBRANCH   6  15
ENDBRANCH   2   6
ENDBRANCH   1   3
BRANCH   1  17
ATOM     17  N   UNL     1       3.070   5.782  19.330  0.00  0.00    +0.000 N 
ATOM     18  C   UNL     1       2.240   6.667  18.662  0.00  0.00    +0.000 C 
ATOM     19  O   UNL     1       1.883   6.480  17.505  0.00  0.00    +0.000 OA
ATOM     20  H   UNL     1       3.415   6.072  20.241  0.00  0.00    +0.000 HD
BRANCH  18  21
ATOM     21  C   UNL     1       1.799   7.880  19.436  0.00  0.00    +0.000 A 
ATOM     22  C   UNL     1       1.601   7.756  20.803  0.00  0.00    +0.000 A 
ATOM     23  C   UNL     1       1.156   8.867  21.512  0.00  0.00    +0.000 A 
ATOM     24  C   UNL     1       0.910  10.067  20.835  0.00  0.00    +0.000 A 
ATOM     25  C   UNL     1       0.423  11.199  21.517  0.00  0.00    +0.000 A 
ATOM     26  C   UNL     1       0.156  12.377  20.827  0.00  0.00    +0.000 A 
ATOM     27  C   UNL     1       0.391  12.431  19.457  0.00  0.00    +0.000 A 
ATOM     28  C   UNL     1       0.890  11.306  18.786  0.00  0.00    +0.000 A 
ATOM     29  C   UNL     1       1.151  10.107  19.441  0.00  0.00    +0.000 A 
ATOM     30  N   UNL     1       1.598   9.035  18.745  0.00  0.00    +0.000 NA
ENDBRANCH  18  21
ENDBRANCH   1  17
BRANCH   1  31
ATOM     31  C   UNL     1       3.269   3.323  19.590  0.00  0.00    +0.000 C 
BRANCH  31  32
ATOM     32  C   UNL     1       2.093   3.471  20.584  0.00  0.00    +0.000 C 
ATOM     33  C   UNL     1       0.738   3.039  20.017  0.00  0.00    +0.000 C 
ATOM     34  C   UNL     1       2.367   2.665  21.862  0.00  0.00    +0.000 C 
ENDBRANCH  31  32
ENDBRANCH   1  31
TORSDOF 10
ENDMDL
