MODEL 1
REMARK VINA RESULT:      -8.0      0.000      0.000
REMARK  Name = 
REMARK  3 active torsions:
REMARK  status: ('A' for Active; 'I' for Inactive)
REMARK    1  A    between atoms: C_2  and  C_5
REMARK    2  A    between atoms: C_9  and  C_10
REMARK    3  A    between atoms: C_13  and  C_14
REMARK                            x       y       z     vdW  Elec       q    Type
REMARK                         _______ _______ _______ _____ _____    ______ ____
ROOT
ATOM      1  C   UNL     1       4.335   5.463  17.076  0.00  0.00    +0.000 A 
ATOM      2  C   UNL     1       5.014   6.577  16.639  0.00  0.00    +0.000 A 
ATOM      3  N   UNL     1       5.764   6.148  15.591  0.00  0.00    +0.000 N 
ATOM      4  C   UNL     1       5.507   4.807  15.399  0.00  0.00    +0.000 A 
ATOM      5  N   UNL     1       4.651   4.372  16.296  0.00  0.00    +0.000 NA
ATOM      6  H   UNL     1       6.404   6.694  15.026  0.00  0.00    +0.000 HD
ENDROOT
BRANCH   1  11
ATOM      7  C   UNL     1       1.943   4.071  19.604  0.00  0.00    +0.000 A 
ATOM      8  C   UNL     1       1.635   5.227  20.340  0.00  0.00    +0.000 A 
ATOM      9  C   UNL     1       2.199   6.457  19.999  0.00  0.00    +0.000 A 
ATOM     10  C   UNL     1       3.081   6.545  18.927  0.00  0.00    +0.000 A 
ATOM     11  C   UNL     1       3.425   5.400  18.196  0.00  0.00    +0.000 A 
ATOM     12  C   UNL     1       2.852   4.169  18.544  0.00  0.00    +0.000 A 
BRANCH   7  14
ATOM     13  F   UNL     1       0.143   2.552  19.177  0.00  0.00    +0.000 F 
ATOM     14  C   UNL     1       1.276   2.754  19.905  0.00  0.00    +0.000 C 
ATOM     15  F   UNL     1       0.907   2.623  21.210  0.00  0.00    +0.000 F 
ATOM     16  F   UNL     1       2.081   1.687  19.637  0.00  0.00    +0.000 F 
ENDBRANCH   7  14
ENDBRANCH   1  11
BRANCH   4  17
ATOM     17  C   UNL     1       6.143   4.021  14.299  0.00  0.00    +0.000 C 
ATOM     18  C   UNL     1       7.112   4.852  13.472  0.00  0.00    +0.000 C 
ATOM     19  C   UNL     1       7.236   4.044  12.194  0.00  0.00    +0.000 C 
ATOM     20  C   UNL     1       5.891   3.342  12.052  0.00  0.00    +0.000 C 
ATOM     21  N   UNL     1       5.156   3.582  13.297  0.00  0.00    +0.000 NA
ATOM     22  H   UNL     1       4.677   2.741  13.617  0.00  0.00    +0.000 HD
ENDBRANCH   4  17
TORSDOF 3
ENDMDL
MODEL 2
REMARK VINA RESULT:      -7.9      1.303      1.641
REMARK  Name = 
REMARK  3 active torsions:
REMARK  status: ('A' for Active; 'I' for Inactive)
REMARK    1  A    between atoms: C_2  and  C_5
REMARK    2  A    between atoms: C_9  and  C_10
REMARK    3  A    between atoms: C_13  and  C_14
REMARK                            x       y       z     vdW  Elec       q    Type
REMARK                         _______ _______ _______ _____ _____    ______ ____
ROOT
ATOM      1  C   UNL     1       4.901   4.850  17.784  0.00  0.00    +0.000 A 
ATOM      2  C   UNL     1       6.183   4.400  18.001  0.00  0.00    +0.000 A 
ATOM      3  N   UNL     1       6.774   4.412  16.778  0.00  0.00    +0.000 N 
ATOM      4  C   UNL     1       5.860   4.888  15.862  0.00  0.00    +0.000 A 
ATOM      5  N   UNL     1       4.715   5.149  16.452  0.00  0.00    +0.000 NA
ATOM      6  H   UNL     1       7.721   4.133  16.548  0.00  0.00    +0.000 HD
ENDROOT
BRANCH   1  11
ATOM      7  C   UNL     1       2.431   3.950  20.457  0.00  0.00    +0.000 A 
ATOM      8  C   UNL     1       1.838   5.200  20.699  0.00  0.00    +0.000 A 
ATOM      9  C   UNL     1       2.239   6.327  19.981  0.00  0.00    +0.000 A 
ATOM     10  C   UNL     1       3.238   6.221  19.020  0.00  0.00    +0.000 A 
ATOM     11  C   UNL     1       3.863   4.989  18.779  0.00  0.00    +0.000 A 
ATOM     12  C   UNL     1       3.453   3.862  19.505  0.00  0.00    +0.000 A 
BRANCH   7  14
ATOM     13  F   UNL     1       1.577   1.719  20.303  0.00  0.00    +0.000 F 
ATOM     14  C   UNL     1       1.950   2.709  21.162  0.00  0.00    +0.000 C 
ATOM     15  F   UNL     1       0.872   2.929  21.965  0.00  0.00    +0.000 F 
ATOM     16  F   UNL     1       2.906   2.160  21.963  0.00  0.00    +0.000 F 
ENDBRANCH   7  14
ENDBRANCH   1  11
BRANCH   4  17
ATOM     17  C   UNL     1       6.195   5.065  14.417  0.00  0.00    +0.000 C 
ATOM     18  C   UNL     1       6.117   3.762  13.636  0.00  0.00    +0.000 C 
ATOM     19  C   UNL     1       6.938   4.069  12.396  0.00  0.00    +0.000 C 
ATOM     20  C   UNL     1       7.972   5.086  12.863  0.00  0.00    +0.000 C 
ATOM     21  N   UNL     1       7.597   5.476  14.225  0.00  0.00    +0.000 NA
ATOM     22  H   UNL     1       7.695   6.480  14.367  0.00  0.00    +0.000 HD
ENDBRANCH   4  17
TORSDOF 3
ENDMDL
MODEL 3
REMARK VINA RESULT:      -7.7      0.732      1.204
REMARK  Name = 
REMARK  3 active torsions:
REMARK  status: ('A' for Active; 'I' for Inactive)
REMARK    1  A    between atoms: C_2  and  C_5
REMARK    2  A    between atoms: C_9  and  C_10
REMARK    3  A    between atoms: C_13  and  C_14
REMARK                            x       y       z     vdW  Elec       q    Type
REMARK                         _______ _______ _______ _____ _____    ______ ____
ROOT
ATOM      1  C   UNL     1       4.374   5.609  17.122  0.00  0.00    +0.000 A 
ATOM      2  C   UNL     1       4.938   6.722  16.542  0.00  0.00    +0.000 A 
ATOM      3  N   UNL     1       5.641   6.251  15.480  0.00  0.00    +0.000 N 
ATOM      4  C   UNL     1       5.469   4.884  15.422  0.00  0.00    +0.000 A 
ATOM      5  N   UNL     1       4.712   4.476  16.415  0.00  0.00    +0.000 NA
ATOM      6  H   UNL     1       6.198   6.785  14.823  0.00  0.00    +0.000 HD
ENDROOT
BRANCH   1  11
ATOM      7  C   UNL     1       2.575   4.312  20.144  0.00  0.00    +0.000 A 
ATOM      8  C   UNL     1       1.947   5.482  20.600  0.00  0.00    +0.000 A 
ATOM      9  C   UNL     1       2.104   6.686  19.912  0.00  0.00    +0.000 A 
ATOM     10  C   UNL     1       2.893   6.736  18.768  0.00  0.00    +0.000 A 
ATOM     11  C   UNL     1       3.551   5.587  18.309  0.00  0.00    +0.000 A 
ATOM     12  C   UNL     1       3.387   4.382  19.006  0.00  0.00    +0.000 A 
BRANCH   7  14
ATOM     13  F   UNL     1       3.506   2.333  21.119  0.00  0.00    +0.000 F 
ATOM     14  C   UNL     1       2.347   2.988  20.826  0.00  0.00    +0.000 C 
ATOM     15  F   UNL     1       1.607   2.119  20.082  0.00  0.00    +0.000 F 
ATOM     16  F   UNL     1       1.688   3.118  22.012  0.00  0.00    +0.000 F 
ENDBRANCH   7  14
ENDBRANCH   1  11
BRANCH   4  17
ATOM     17  C   UNL     1       6.081   4.047  14.346  0.00  0.00    +0.000 C 
ATOM     18  C   UNL     1       7.111   4.809  13.528  0.00  0.00    +0.000 C 
ATOM     19  C   UNL     1       7.214   3.975  12.263  0.00  0.00    +0.000 C 
ATOM     20  C   UNL     1       5.835   3.348  12.105  0.00  0.00    +0.000 C 
ATOM     21  N   UNL     1       5.090   3.648  13.331  0.00  0.00    +0.000 NA
ATOM     22  H   UNL     1       4.558   2.841  13.653  0.00  0.00    +0.000 HD
ENDBRANCH   4  17
TORSDOF 3
ENDMDL
MODEL 4
REMARK VINA RESULT:      -7.6      3.699      7.111
REMARK  Name = 
REMARK  3 active torsions:
REMARK  status: ('A' for Active; 'I' for Inactive)
REMARK    1  A    between atoms: C_2  and  C_5
REMARK    2  A    between atoms: C_9  and  C_10
REMARK    3  A    between atoms: C_13  and  C_14
REMARK                            x       y       z     vdW  Elec       q    Type
REMARK                         _______ _______ _______ _____ _____    ______ ____
ROOT
ATOM      1  C   UNL     1       6.078   4.343  16.225  0.00  0.00    +0.000 A 
ATOM      2  C   UNL     1       7.008   4.434  17.235  0.00  0.00    +0.000 A 
ATOM      3  N   UNL     1       6.290   4.375  18.386  0.00  0.00    +0.000 N 
ATOM      4  C   UNL     1       4.960   4.224  18.056  0.00  0.00    +0.000 A 
ATOM      5  N   UNL     1       4.811   4.213  16.750  0.00  0.00    +0.000 NA
ATOM      6  H   UNL     1       6.641   4.424  19.335  0.00  0.00    +0.000 HD
ENDROOT
BRANCH   1  11
ATOM      7  C   UNL     1       5.654   3.835  12.536  0.00  0.00    +0.000 A 
ATOM      8  C   UNL     1       6.832   4.426  12.051  0.00  0.00    +0.000 A 
ATOM      9  C   UNL     1       7.764   4.975  12.931  0.00  0.00    +0.000 A 
ATOM     10  C   UNL     1       7.528   4.948  14.302  0.00  0.00    +0.000 A 
ATOM     11  C   UNL     1       6.347   4.388  14.807  0.00  0.00    +0.000 A 
ATOM     12  C   UNL     1       5.416   3.837  13.915  0.00  0.00    +0.000 A 
BRANCH   7  14
ATOM     13  F   UNL     1       4.424   3.891  10.483  0.00  0.00    +0.000 F 
ATOM     14  C   UNL     1       4.679   3.161  11.605  0.00  0.00    +0.000 C 
ATOM     15  F   UNL     1       3.466   2.923  12.176  0.00  0.00    +0.000 F 
ATOM     16  F   UNL     1       5.128   1.953  11.164  0.00  0.00    +0.000 F 
ENDBRANCH   7  14
ENDBRANCH   1  11
BRANCH   4  17
ATOM     17  C   UNL     1       3.890   4.090  19.090  0.00  0.00    +0.000 C 
ATOM     18  C   UNL     1       2.517   3.848  18.482  0.00  0.00    +0.000 C 
ATOM     19  C   UNL     1       1.580   4.231  19.613  0.00  0.00    +0.000 C 
ATOM     20  C   UNL     1       2.336   5.302  20.390  0.00  0.00    +0.000 C 
ATOM     21  N   UNL     1       3.695   5.342  19.843  0.00  0.00    +0.000 NA
ATOM     22  H   UNL     1       4.393   5.424  20.581  0.00  0.00    +0.000 HD
ENDBRANCH   4  17
TORSDOF 3
ENDMDL
MODEL 5
REMARK VINA RESULT:      -7.6      1.763      1.978
REMARK  Name = 
REMARK  3 active torsions:
REMARK  status: ('A' for Active; 'I' for Inactive)
REMARK    1  A    between atoms: C_2  and  C_5
REMARK    2  A    between atoms: C_9  and  C_10
REMARK    3  A    between atoms: C_13  and  C_14
REMARK                            x       y       z     vdW  Elec       q    Type
REMARK                         _______ _______ _______ _____ _____    ______ ____
ROOT
ATOM      1  C   UNL     1       4.824   4.067  17.436  0.00  0.00    +0.000 A 
ATOM      2  C   UNL     1       6.005   4.423  18.046  0.00  0.00    +0.000 A 
ATOM      3  N   UNL     1       6.934   4.413  17.056  0.00  0.00    +0.000 N 
ATOM      4  C   UNL     1       6.302   4.082  15.876  0.00  0.00    +0.000 A 
ATOM      5  N   UNL     1       5.024   3.859  16.089  0.00  0.00    +0.000 NA
ATOM      6  H   UNL     1       7.924   4.614  17.136  0.00  0.00    +0.000 HD
ENDROOT
BRANCH   1  11
ATOM      7  C   UNL     1       2.271   3.444  20.108  0.00  0.00    +0.000 A 
ATOM      8  C   UNL     1       1.082   3.567  19.371  0.00  0.00    +0.000 A 
ATOM      9  C   UNL     1       1.120   3.839  18.003  0.00  0.00    +0.000 A 
ATOM     10  C   UNL     1       2.343   3.999  17.360  0.00  0.00    +0.000 A 
ATOM     11  C   UNL     1       3.542   3.908  18.080  0.00  0.00    +0.000 A 
ATOM     12  C   UNL     1       3.493   3.633  19.454  0.00  0.00    +0.000 A 
BRANCH   7  14
ATOM     13  F   UNL     1       1.063   2.516  21.956  0.00  0.00    +0.000 F 
ATOM     14  C   UNL     1       2.248   3.065  21.566  0.00  0.00    +0.000 C 
ATOM     15  F   UNL     1       2.460   4.121  22.401  0.00  0.00    +0.000 F 
ATOM     16  F   UNL     1       3.202   2.144  21.882  0.00  0.00    +0.000 F 
ENDBRANCH   7  14
ENDBRANCH   1  11
BRANCH   4  17
ATOM     17  C   UNL     1       7.028   4.013  14.572  0.00  0.00    +0.000 C 
ATOM     18  C   UNL     1       7.328   5.389  13.997  0.00  0.00    +0.000 C 
ATOM     19  C   UNL     1       7.590   5.087  12.533  0.00  0.00    +0.000 C 
ATOM     20  C   UNL     1       6.734   3.862  12.234  0.00  0.00    +0.000 C 
ATOM     21  N   UNL     1       6.206   3.393  13.518  0.00  0.00    +0.000 NA
ATOM     22  H   UNL     1       6.244   2.377  13.590  0.00  0.00    +0.000 HD
ENDBRANCH   4  17
TORSDOF 3
ENDMDL
MODEL 6
REMARK VINA RESULT:      -7.6      1.259      1.650
REMARK  Name = 
REMARK  3 active torsions:
REMARK  status: ('A' for Active; 'I' for Inactive)
REMARK    1  A    between atoms: C_2  and  C_5
REMARK    2  A    between atoms: C_9  and  C_10
REMARK    3  A    between atoms: C_13  and  C_14
REMARK                            x       y       z     vdW  Elec       q    Type
REMARK                         _______ _______ _______ _____ _____    ______ ____
ROOT
ATOM      1  C   UNL     1       5.312   5.978  17.005  0.00  0.00    +0.000 A 
ATOM      2  C   UNL     1       6.582   6.494  17.127  0.00  0.00    +0.000 A 
ATOM      3  N   UNL     1       7.302   5.901  16.140  0.00  0.00    +0.000 N 
ATOM      4  C   UNL     1       6.460   5.070  15.432  0.00  0.00    +0.000 A 
ATOM      5  N   UNL     1       5.251   5.097  15.948  0.00  0.00    +0.000 NA
ATOM      6  H   UNL     1       8.286   6.030  15.931  0.00  0.00    +0.000 HD
ENDROOT
BRANCH   1  11
ATOM      7  C   UNL     1       2.612   5.556  19.571  0.00  0.00    +0.000 A 
ATOM      8  C   UNL     1       1.977   6.805  19.493  0.00  0.00    +0.000 A 
ATOM      9  C   UNL     1       2.424   7.774  18.594  0.00  0.00    +0.000 A 
ATOM     10  C   UNL     1       3.513   7.510  17.771  0.00  0.00    +0.000 A 
ATOM     11  C   UNL     1       4.181   6.280  17.850  0.00  0.00    +0.000 A 
ATOM     12  C   UNL     1       3.723   5.312  18.755  0.00  0.00    +0.000 A 
BRANCH   7  14
ATOM     13  F   UNL     1       2.547   3.230  20.137  0.00  0.00    +0.000 F 
ATOM     14  C   UNL     1       2.088   4.469  20.473  0.00  0.00    +0.000 C 
ATOM     15  F   UNL     1       0.729   4.375  20.469  0.00  0.00    +0.000 F 
ATOM     16  F   UNL     1       2.446   4.653  21.775  0.00  0.00    +0.000 F 
ENDBRANCH   7  14
ENDBRANCH   1  11
BRANCH   4  17
ATOM     17  C   UNL     1       6.921   4.285  14.247  0.00  0.00    +0.000 C 
ATOM     18  C   UNL     1       7.425   5.172  13.119  0.00  0.00    +0.000 C 
ATOM     19  C   UNL     1       7.362   4.248  11.917  0.00  0.00    +0.000 C 
ATOM     20  C   UNL     1       6.213   3.297  12.224  0.00  0.00    +0.000 C 
ATOM     21  N   UNL     1       5.815   3.549  13.612  0.00  0.00    +0.000 NA
ATOM     22  H   UNL     1       5.633   2.681  14.113  0.00  0.00    +0.000 HD
ENDBRANCH   4  17
TORSDOF 3
ENDMDL
MODEL 7
REMARK VINA RESULT:      -7.5      3.714      7.090
REMARK  Name = 
REMARK  3 active torsions:
REMARK  status: ('A' for Active; 'I' for Inactive)
REMARK    1  A    between atoms: C_2  and  C_5
REMARK    2  A    between atoms: C_9  and  C_10
REMARK    3  A    between atoms: C_13  and  C_14
REMARK                            x       y       z     vdW  Elec       q    Type
REMARK                         _______ _______ _______ _____ _____    ______ ____
ROOT
ATOM      1  C   UNL     1       6.268   4.345  16.186  0.00  0.00    +0.000 A 
ATOM      2  C   UNL     1       7.241   4.425  17.156  0.00  0.00    +0.000 A 
ATOM      3  N   UNL     1       6.571   4.367  18.336  0.00  0.00    +0.000 N 
ATOM      4  C   UNL     1       5.227   4.226  18.062  0.00  0.00    +0.000 A 
ATOM      5  N   UNL     1       5.023   4.221  16.764  0.00  0.00    +0.000 NA
ATOM      6  H   UNL     1       6.962   4.411  19.270  0.00  0.00    +0.000 HD
ENDROOT
BRANCH   1  11
ATOM      7  C   UNL     1       5.696   3.833  12.517  0.00  0.00    +0.000 A 
ATOM      8  C   UNL     1       6.846   4.437  11.984  0.00  0.00    +0.000 A 
ATOM      9  C   UNL     1       7.808   4.997  12.825  0.00  0.00    +0.000 A 
ATOM     10  C   UNL     1       7.630   4.967  14.204  0.00  0.00    +0.000 A 
ATOM     11  C   UNL     1       6.477   4.393  14.758  0.00  0.00    +0.000 A 
ATOM     12  C   UNL     1       5.517   3.832  13.905  0.00  0.00    +0.000 A 
BRANCH   7  14
ATOM     13  F   UNL     1       3.501   2.916  12.249  0.00  0.00    +0.000 F 
ATOM     14  C   UNL     1       4.691   3.149  11.627  0.00  0.00    +0.000 C 
ATOM     15  F   UNL     1       5.114   1.938  11.169  0.00  0.00    +0.000 F 
ATOM     16  F   UNL     1       4.390   3.882  10.519  0.00  0.00    +0.000 F 
ENDBRANCH   7  14
ENDBRANCH   1  11
BRANCH   4  17
ATOM     17  C   UNL     1       4.201   4.096  19.140  0.00  0.00    +0.000 C 
ATOM     18  C   UNL     1       4.161   2.699  19.742  0.00  0.00    +0.000 C 
ATOM     19  C   UNL     1       2.796   2.663  20.406  0.00  0.00    +0.000 C 
ATOM     20  C   UNL     1       1.934   3.591  19.560  0.00  0.00    +0.000 C 
ATOM     21  N   UNL     1       2.834   4.264  18.619  0.00  0.00    +0.000 NA
ATOM     22  H   UNL     1       2.608   5.254  18.529  0.00  0.00    +0.000 HD
ENDBRANCH   4  17
TORSDOF 3
ENDMDL
MODEL 8
REMARK VINA RESULT:      -7.5      1.893      2.352
REMARK  Name = 
REMARK  3 active torsions:
REMARK  status: ('A' for Active; 'I' for Inactive)
REMARK    1  A    between atoms: C_2  and  C_5
REMARK    2  A    between atoms: C_9  and  C_10
REMARK    3  A    between atoms: C_13  and  C_14
REMARK                            x       y       z     vdW  Elec       q    Type
REMARK                         _______ _______ _______ _____ _____    ______ ____
ROOT
ATOM      1  C   UNL     1       4.407   4.064  17.299  0.00  0.00    +0.000 A 
ATOM      2  C   UNL     1       5.700   4.047  17.772  0.00  0.00    +0.000 A 
ATOM      3  N   UNL     1       6.474   4.348  16.698  0.00  0.00    +0.000 N 
ATOM      4  C   UNL     1       5.646   4.566  15.617  0.00  0.00    +0.000 A 
ATOM      5  N   UNL     1       4.390   4.389  15.960  0.00  0.00    +0.000 NA
ATOM      6  H   UNL     1       7.485   4.414  16.666  0.00  0.00    +0.000 HD
ENDROOT
BRANCH   1  11
ATOM      7  C   UNL     1       2.192   3.203  20.198  0.00  0.00    +0.000 A 
ATOM      8  C   UNL     1       0.934   3.187  19.572  0.00  0.00    +0.000 A 
ATOM      9  C   UNL     1       0.818   3.444  18.206  0.00  0.00    +0.000 A 
ATOM     10  C   UNL     1       1.951   3.727  17.452  0.00  0.00    +0.000 A 
ATOM     11  C   UNL     1       3.214   3.776  18.059  0.00  0.00    +0.000 A 
ATOM     12  C   UNL     1       3.321   3.514  19.432  0.00  0.00    +0.000 A 
BRANCH   7  14
ATOM     13  F   UNL     1       2.457   3.933  22.462  0.00  0.00    +0.000 F 
ATOM     14  C   UNL     1       2.344   2.843  21.652  0.00  0.00    +0.000 C 
ATOM     15  F   UNL     1       3.442   2.077  21.906  0.00  0.00    +0.000 F 
ATOM     16  F   UNL     1       1.280   2.139  22.131  0.00  0.00    +0.000 F 
ENDBRANCH   7  14
ENDBRANCH   1  11
BRANCH   4  17
ATOM     17  C   UNL     1       6.172   4.955  14.274  0.00  0.00    +0.000 C 
ATOM     18  C   UNL     1       6.219   3.785  13.304  0.00  0.00    +0.000 C 
ATOM     19  C   UNL     1       7.195   4.268  12.247  0.00  0.00    +0.000 C 
ATOM     20  C   UNL     1       8.142   5.197  12.997  0.00  0.00    +0.000 C 
ATOM     21  N   UNL     1       7.581   5.380  14.338  0.00  0.00    +0.000 NA
ATOM     22  H   UNL     1       7.645   6.351  14.641  0.00  0.00    +0.000 HD
ENDBRANCH   4  17
TORSDOF 3
ENDMDL
MODEL 9
REMARK VINA RESULT:      -7.5      3.741      7.126
REMARK  Name = 
REMARK  3 active torsions:
REMARK  status: ('A' for Active; 'I' for Inactive)
REMARK    1  A    between atoms: C_2  and  C_5
REMARK    2  A    between atoms: C_9  and  C_10
REMARK    3  A    between atoms: C_13  and  C_14
REMARK                            x       y       z     vdW  Elec       q    Type
REMARK                         _______ _______ _______ _____ _____    ______ ____
ROOT
ATOM      1  C   UNL     1       5.699   4.088  16.340  0.00  0.00    +0.000 A 
ATOM      2  C   UNL     1       6.500   4.363  17.425  0.00  0.00    +0.000 A 
ATOM      3  N   UNL     1       5.719   4.128  18.511  0.00  0.00    +0.000 N 
ATOM      4  C   UNL     1       4.487   3.694  18.070  0.00  0.00    +0.000 A 
ATOM      5  N   UNL     1       4.453   3.673  16.756  0.00  0.00    +0.000 NA
ATOM      6  H   UNL     1       5.970   4.237  19.487  0.00  0.00    +0.000 HD
ENDROOT
BRANCH   1  11
ATOM      7  C   UNL     1       5.541   3.796  12.607  0.00  0.00    +0.000 A 
ATOM      8  C   UNL     1       6.748   4.414  12.242  0.00  0.00    +0.000 A 
ATOM      9  C   UNL     1       7.613   4.911  13.217  0.00  0.00    +0.000 A 
ATOM     10  C   UNL     1       7.280   4.804  14.563  0.00  0.00    +0.000 A 
ATOM     11  C   UNL     1       6.068   4.215  14.950  0.00  0.00    +0.000 A 
ATOM     12  C   UNL     1       5.206   3.717  13.963  0.00  0.00    +0.000 A 
BRANCH   7  14
ATOM     13  F   UNL     1       5.102   1.985  11.104  0.00  0.00    +0.000 F 
ATOM     14  C   UNL     1       4.638   3.178  11.571  0.00  0.00    +0.000 C 
ATOM     15  F   UNL     1       4.462   3.963  10.472  0.00  0.00    +0.000 F 
ATOM     16  F   UNL     1       3.388   2.924  12.052  0.00  0.00    +0.000 F 
ENDBRANCH   7  14
ENDBRANCH   1  11
BRANCH   4  17
ATOM     17  C   UNL     1       3.391   3.310  19.010  0.00  0.00    +0.000 C 
ATOM     18  C   UNL     1       2.274   2.541  18.322  0.00  0.00    +0.000 C 
ATOM     19  C   UNL     1       1.117   2.695  19.292  0.00  0.00    +0.000 C 
ATOM     20  C   UNL     1       1.359   4.040  19.966  0.00  0.00    +0.000 C 
ATOM     21  N   UNL     1       2.690   4.490  19.546  0.00  0.00    +0.000 NA
ATOM     22  H   UNL     1       3.212   4.890  20.324  0.00  0.00    +0.000 HD
ENDBRANCH   4  17
TORSDOF 3
ENDMDL
