MODEL 1
REMARK VINA RESULT:      -7.2      0.000      0.000
REMARK  Name = 
REMARK  6 active torsions:
REMARK  status: ('A' for Active; 'I' for Inactive)
REMARK    1  A    between atoms: C_2  and  C_3
REMARK    2  A    between atoms: C_7  and  O_8
REMARK    3  A    between atoms: O_8  and  C_9
REMARK    4  A    between atoms: C_9  and  C_10
REMARK    5  A    between atoms: C_10  and  N_11
REMARK    6  A    between atoms: C_18  and  C_19
REMARK                            x       y       z     vdW  Elec       q    Type
REMARK                         _______ _______ _______ _____ _____    ______ ____
ROOT
ATOM      1  N   UNL     1       2.991   3.026  19.323  0.00  0.00    +0.000 NA
ATOM      2  C   UNL     1       4.366   2.890  19.846  0.00  0.00    +0.000 C 
ATOM      3  C   UNL     1       5.235   4.111  19.557  0.00  0.00    +0.000 C 
ATOM      4  N   UNL     1       5.258   4.311  18.131  0.00  0.00    +0.000 N 
ATOM      5  C   UNL     1       4.224   3.933  17.321  0.00  0.00    +0.000 A 
ATOM      6  N   UNL     1       4.587   4.127  16.071  0.00  0.00    +0.000 NA
ATOM      7  N   UNL     1       5.873   4.641  16.079  0.00  0.00    +0.000 NA
ATOM      8  C   UNL     1       6.267   4.742  17.332  0.00  0.00    +0.000 A 
ATOM      9  C   UNL     1       2.979   3.294  17.861  0.00  0.00    +0.000 C 
ENDROOT
BRANCH   8  10
ATOM     10  C   UNL     1       7.619   5.260  17.796  0.00  0.00    +0.000 C 
ATOM     11  C   UNL     1       7.784   6.735  18.093  0.00  0.00    +0.000 C 
ATOM     12  C   UNL     1       7.728   5.761  19.220  0.00  0.00    +0.000 C 
ENDBRANCH   8  10
BRANCH   1  13
ATOM     13  C   UNL     1       2.105   3.904  20.118  0.00  0.00    +0.000 C 
BRANCH  13  14
ATOM     14  C   UNL     1       1.808   5.183  19.309  0.00  0.00    +0.000 C 
BRANCH  14  15
ATOM     15  O   UNL     1       2.717   6.269  19.489  0.00  0.00    +0.000 OA
BRANCH  15  20
ATOM     16  C   UNL     1       0.944   9.109  21.167  0.00  0.00    +0.000 A 
ATOM     17  C   UNL     1       0.768   9.941  20.061  0.00  0.00    +0.000 A 
ATOM     18  C   UNL     1       1.246   9.547  18.811  0.00  0.00    +0.000 A 
ATOM     19  C   UNL     1       1.899   8.314  18.656  0.00  0.00    +0.000 A 
ATOM     20  C   UNL     1       2.074   7.469  19.750  0.00  0.00    +0.000 A 
ATOM     21  C   UNL     1       1.595   7.880  21.007  0.00  0.00    +0.000 A 
BRANCH  16  23
ATOM     22  N   UNL     1       0.080   9.807  23.515  0.00  0.00    +0.000 NA
ATOM     23  C   UNL     1       0.468   9.503  22.466  0.00  0.00    +0.000 C 
ENDBRANCH  16  23
ENDBRANCH  15  20
ENDBRANCH  14  15
ENDBRANCH  13  14
ENDBRANCH   1  13
TORSDOF 6
ENDMDL
MODEL 2
REMARK VINA RESULT:      -7.2      4.598      7.625
REMARK  Name = 
REMARK  6 active torsions:
REMARK  status: ('A' for Active; 'I' for Inactive)
REMARK    1  A    between atoms: C_2  and  C_3
REMARK    2  A    between atoms: C_7  and  O_8
REMARK    3  A    between atoms: O_8  and  C_9
REMARK    4  A    between atoms: C_9  and  C_10
REMARK    5  A    between atoms: C_10  and  N_11
REMARK    6  A    between atoms: C_18  and  C_19
REMARK                            x       y       z     vdW  Elec       q    Type
REMARK                         _______ _______ _______ _____ _____    ______ ____
ROOT
ATOM      1  N   UNL     1       7.451   6.987  17.440  0.00  0.00    +0.000 NA
ATOM      2  C   UNL     1       6.700   6.383  16.321  0.00  0.00    +0.000 C 
ATOM      3  C   UNL     1       5.242   6.099  16.669  0.00  0.00    +0.000 C 
ATOM      4  N   UNL     1       5.221   5.227  17.814  0.00  0.00    +0.000 N 
ATOM      5  C   UNL     1       6.218   5.222  18.750  0.00  0.00    +0.000 A 
ATOM      6  N   UNL     1       5.985   4.241  19.596  0.00  0.00    +0.000 NA
ATOM      7  N   UNL     1       4.818   3.608  19.199  0.00  0.00    +0.000 NA
ATOM      8  C   UNL     1       4.372   4.212  18.117  0.00  0.00    +0.000 A 
ATOM      9  C   UNL     1       7.401   6.139  18.661  0.00  0.00    +0.000 C 
ENDROOT
BRANCH   8  10
ATOM     10  C   UNL     1       3.114   3.837  17.348  0.00  0.00    +0.000 C 
ATOM     11  C   UNL     1       2.072   2.964  18.015  0.00  0.00    +0.000 C 
ATOM     12  C   UNL     1       1.801   4.417  17.824  0.00  0.00    +0.000 C 
ENDBRANCH   8  10
BRANCH   1  13
ATOM     13  C   UNL     1       7.177   8.422  17.674  0.00  0.00    +0.000 C 
BRANCH  13  14
ATOM     14  C   UNL     1       8.515   9.162  17.876  0.00  0.00    +0.000 C 
BRANCH  14  15
ATOM     15  O   UNL     1       8.928   9.361  19.228  0.00  0.00    +0.000 OA
BRANCH  15  20
ATOM     16  C   UNL     1      10.942  12.482  18.753  0.00  0.00    +0.000 A 
ATOM     17  C   UNL     1      10.797  13.032  20.028  0.00  0.00    +0.000 A 
ATOM     18  C   UNL     1      10.036  12.367  20.990  0.00  0.00    +0.000 A 
ATOM     19  C   UNL     1       9.419  11.143  20.687  0.00  0.00    +0.000 A 
ATOM     20  C   UNL     1       9.563  10.577  19.422  0.00  0.00    +0.000 A 
ATOM     21  C   UNL     1      10.326  11.260  18.457  0.00  0.00    +0.000 A 
BRANCH  16  23
ATOM     22  N   UNL     1      12.333  13.692  16.924  0.00  0.00    +0.000 NA
ATOM     23  C   UNL     1      11.714  13.157  17.745  0.00  0.00    +0.000 C 
ENDBRANCH  16  23
ENDBRANCH  15  20
ENDBRANCH  14  15
ENDBRANCH  13  14
ENDBRANCH   1  13
TORSDOF 6
ENDMDL
MODEL 3
REMARK VINA RESULT:      -7.1      2.926      4.968
REMARK  Name = 
REMARK  6 active torsions:
REMARK  status: ('A' for Active; 'I' for Inactive)
REMARK    1  A    between atoms: C_2  and  C_3
REMARK    2  A    between atoms: C_7  and  O_8
REMARK    3  A    between atoms: O_8  and  C_9
REMARK    4  A    between atoms: C_9  and  C_10
REMARK    5  A    between atoms: C_10  and  N_11
REMARK    6  A    between atoms: C_18  and  C_19
REMARK                            x       y       z     vdW  Elec       q    Type
REMARK                         _______ _______ _______ _____ _____    ______ ____
ROOT
ATOM      1  N   UNL     1       6.411   5.612  17.127  0.00  0.00    +0.000 NA
ATOM      2  C   UNL     1       5.115   5.192  16.557  0.00  0.00    +0.000 C 
ATOM      3  C   UNL     1       5.232   3.964  15.657  0.00  0.00    +0.000 C 
ATOM      4  N   UNL     1       6.166   4.273  14.606  0.00  0.00    +0.000 N 
ATOM      5  C   UNL     1       7.188   5.167  14.772  0.00  0.00    +0.000 A 
ATOM      6  N   UNL     1       7.785   5.330  13.610  0.00  0.00    +0.000 NA
ATOM      7  N   UNL     1       7.140   4.526  12.685  0.00  0.00    +0.000 NA
ATOM      8  C   UNL     1       6.160   3.897  13.301  0.00  0.00    +0.000 A 
ATOM      9  C   UNL     1       7.420   5.882  16.069  0.00  0.00    +0.000 C 
ENDROOT
BRANCH   8  10
ATOM     10  C   UNL     1       5.195   2.914  12.657  0.00  0.00    +0.000 C 
ATOM     11  C   UNL     1       4.482   3.306  11.380  0.00  0.00    +0.000 C 
ATOM     12  C   UNL     1       5.590   2.311  11.327  0.00  0.00    +0.000 C 
ENDBRANCH   8  10
BRANCH   1  13
ATOM     13  C   UNL     1       6.899   4.779  18.247  0.00  0.00    +0.000 C 
BRANCH  13  14
ATOM     14  C   UNL     1       5.807   4.707  19.334  0.00  0.00    +0.000 C 
BRANCH  14  15
ATOM     15  O   UNL     1       4.883   3.624  19.229  0.00  0.00    +0.000 OA
BRANCH  15  20
ATOM     16  C   UNL     1       1.878   5.496  20.450  0.00  0.00    +0.000 A 
ATOM     17  C   UNL     1       0.979   4.433  20.537  0.00  0.00    +0.000 A 
ATOM     18  C   UNL     1       1.386   3.146  20.181  0.00  0.00    +0.000 A 
ATOM     19  C   UNL     1       2.698   2.912  19.742  0.00  0.00    +0.000 A 
ATOM     20  C   UNL     1       3.610   3.962  19.659  0.00  0.00    +0.000 A 
ATOM     21  C   UNL     1       3.187   5.257  20.013  0.00  0.00    +0.000 A 
BRANCH  16  23
ATOM     22  N   UNL     1       1.149   7.902  21.099  0.00  0.00    +0.000 NA
ATOM     23  C   UNL     1       1.474   6.831  20.802  0.00  0.00    +0.000 C 
ENDBRANCH  16  23
ENDBRANCH  15  20
ENDBRANCH  14  15
ENDBRANCH  13  14
ENDBRANCH   1  13
TORSDOF 6
ENDMDL
MODEL 4
REMARK VINA RESULT:      -7.1      1.914      2.858
REMARK  Name = 
REMARK  6 active torsions:
REMARK  status: ('A' for Active; 'I' for Inactive)
REMARK    1  A    between atoms: C_2  and  C_3
REMARK    2  A    between atoms: C_7  and  O_8
REMARK    3  A    between atoms: O_8  and  C_9
REMARK    4  A    between atoms: C_9  and  C_10
REMARK    5  A    between atoms: C_10  and  N_11
REMARK    6  A    between atoms: C_18  and  C_19
REMARK                            x       y       z     vdW  Elec       q    Type
REMARK                         _______ _______ _______ _____ _____    ______ ____
ROOT
ATOM      1  N   UNL     1       4.822   5.792  19.237  0.00  0.00    +0.000 NA
ATOM      2  C   UNL     1       4.483   6.495  17.984  0.00  0.00    +0.000 C 
ATOM      3  C   UNL     1       4.552   5.589  16.757  0.00  0.00    +0.000 C 
ATOM      4  N   UNL     1       5.883   5.046  16.682  0.00  0.00    +0.000 N 
ATOM      5  C   UNL     1       6.657   4.847  17.792  0.00  0.00    +0.000 A 
ATOM      6  N   UNL     1       7.854   4.465  17.397  0.00  0.00    +0.000 NA
ATOM      7  N   UNL     1       7.846   4.414  16.013  0.00  0.00    +0.000 NA
ATOM      8  C   UNL     1       6.650   4.774  15.595  0.00  0.00    +0.000 A 
ATOM      9  C   UNL     1       6.170   5.166  19.173  0.00  0.00    +0.000 C 
ENDROOT
BRANCH   8  10
ATOM     10  C   UNL     1       6.207   4.859  14.143  0.00  0.00    +0.000 C 
ATOM     11  C   UNL     1       6.646   3.786  13.171  0.00  0.00    +0.000 C 
ATOM     12  C   UNL     1       5.233   3.815  13.643  0.00  0.00    +0.000 C 
ENDBRANCH   8  10
BRANCH   1  13
ATOM     13  C   UNL     1       3.758   4.911  19.768  0.00  0.00    +0.000 C 
BRANCH  13  14
ATOM     14  C   UNL     1       2.395   5.614  19.600  0.00  0.00    +0.000 C 
BRANCH  14  15
ATOM     15  O   UNL     1       1.823   6.170  20.784  0.00  0.00    +0.000 OA
BRANCH  15  20
ATOM     16  C   UNL     1       0.488   9.621  21.357  0.00  0.00    +0.000 A 
ATOM     17  C   UNL     1       0.789  10.181  20.115  0.00  0.00    +0.000 A 
ATOM     18  C   UNL     1       1.427   9.412  19.141  0.00  0.00    +0.000 A 
ATOM     19  C   UNL     1       1.764   8.074  19.400  0.00  0.00    +0.000 A 
ATOM     20  C   UNL     1       1.463   7.499  20.633  0.00  0.00    +0.000 A 
ATOM     21  C   UNL     1       0.825   8.286  21.610  0.00  0.00    +0.000 A 
BRANCH  16  23
ATOM     22  N   UNL     1      -0.691  11.019  23.201  0.00  0.00    +0.000 NA
ATOM     23  C   UNL     1      -0.160  10.401  22.377  0.00  0.00    +0.000 C 
ENDBRANCH  16  23
ENDBRANCH  15  20
ENDBRANCH  14  15
ENDBRANCH  13  14
ENDBRANCH   1  13
TORSDOF 6
ENDMDL
MODEL 5
REMARK VINA RESULT:      -7.1      1.213      1.445
REMARK  Name = 
REMARK  6 active torsions:
REMARK  status: ('A' for Active; 'I' for Inactive)
REMARK    1  A    between atoms: C_2  and  C_3
REMARK    2  A    between atoms: C_7  and  O_8
REMARK    3  A    between atoms: O_8  and  C_9
REMARK    4  A    between atoms: C_9  and  C_10
REMARK    5  A    between atoms: C_10  and  N_11
REMARK    6  A    between atoms: C_18  and  C_19
REMARK                            x       y       z     vdW  Elec       q    Type
REMARK                         _______ _______ _______ _____ _____    ______ ____
ROOT
ATOM      1  N   UNL     1       2.401   2.626  20.086  0.00  0.00    +0.000 NA
ATOM      2  C   UNL     1       3.841   2.345  20.249  0.00  0.00    +0.000 C 
ATOM      3  C   UNL     1       4.725   3.520  19.842  0.00  0.00    +0.000 C 
ATOM      4  N   UNL     1       4.430   3.842  18.469  0.00  0.00    +0.000 N 
ATOM      5  C   UNL     1       3.203   3.612  17.910  0.00  0.00    +0.000 A 
ATOM      6  N   UNL     1       3.278   3.887  16.625  0.00  0.00    +0.000 NA
ATOM      7  N   UNL     1       4.571   4.304  16.356  0.00  0.00    +0.000 NA
ATOM      8  C   UNL     1       5.257   4.266  17.480  0.00  0.00    +0.000 A 
ATOM      9  C   UNL     1       2.068   3.020  18.691  0.00  0.00    +0.000 C 
ENDROOT
BRANCH   8  10
ATOM     10  C   UNL     1       6.722   4.641  17.636  0.00  0.00    +0.000 C 
ATOM     11  C   UNL     1       7.229   5.923  17.011  0.00  0.00    +0.000 C 
ATOM     12  C   UNL     1       7.051   5.847  18.489  0.00  0.00    +0.000 C 
ENDBRANCH   8  10
BRANCH   1  13
ATOM     13  C   UNL     1       1.811   3.494  21.129  0.00  0.00    +0.000 C 
BRANCH  13  14
ATOM     14  C   UNL     1       1.476   4.866  20.511  0.00  0.00    +0.000 C 
BRANCH  14  15
ATOM     15  O   UNL     1       2.500   5.858  20.586  0.00  0.00    +0.000 OA
BRANCH  15  20
ATOM     16  C   UNL     1       1.163   9.242  19.700  0.00  0.00    +0.000 A 
ATOM     17  C   UNL     1       1.567   9.294  18.365  0.00  0.00    +0.000 A 
ATOM     18  C   UNL     1       2.272   8.226  17.809  0.00  0.00    +0.000 A 
ATOM     19  C   UNL     1       2.572   7.094  18.583  0.00  0.00    +0.000 A 
ATOM     20  C   UNL     1       2.168   7.024  19.914  0.00  0.00    +0.000 A 
ATOM     21  C   UNL     1       1.464   8.110  20.466  0.00  0.00    +0.000 A 
BRANCH  16  23
ATOM     22  N   UNL     1      -0.144  11.214  20.772  0.00  0.00    +0.000 NA
ATOM     23  C   UNL     1       0.446  10.338  20.294  0.00  0.00    +0.000 C 
ENDBRANCH  16  23
ENDBRANCH  15  20
ENDBRANCH  14  15
ENDBRANCH  13  14
ENDBRANCH   1  13
TORSDOF 6
ENDMDL
MODEL 6
REMARK VINA RESULT:      -7.0      2.129      3.176
REMARK  Name = 
REMARK  6 active torsions:
REMARK  status: ('A' for Active; 'I' for Inactive)
REMARK    1  A    between atoms: C_2  and  C_3
REMARK    2  A    between atoms: C_7  and  O_8
REMARK    3  A    between atoms: O_8  and  C_9
REMARK    4  A    between atoms: C_9  and  C_10
REMARK    5  A    between atoms: C_10  and  N_11
REMARK    6  A    between atoms: C_18  and  C_19
REMARK                            x       y       z     vdW  Elec       q    Type
REMARK                         _______ _______ _______ _____ _____    ______ ____
ROOT
ATOM      1  N   UNL     1       4.476   5.496  18.072  0.00  0.00    +0.000 NA
ATOM      2  C   UNL     1       3.791   4.924  16.896  0.00  0.00    +0.000 C 
ATOM      3  C   UNL     1       4.651   3.912  16.142  0.00  0.00    +0.000 C 
ATOM      4  N   UNL     1       5.866   4.573  15.743  0.00  0.00    +0.000 N 
ATOM      5  C   UNL     1       6.401   5.614  16.450  0.00  0.00    +0.000 A 
ATOM      6  N   UNL     1       7.428   6.085  15.776  0.00  0.00    +0.000 NA
ATOM      7  N   UNL     1       7.558   5.333  14.621  0.00  0.00    +0.000 NA
ATOM      8  C   UNL     1       6.603   4.426  14.612  0.00  0.00    +0.000 A 
ATOM      9  C   UNL     1       5.767   6.136  17.705  0.00  0.00    +0.000 C 
ENDROOT
BRANCH   8  10
ATOM     10  C   UNL     1       6.374   3.390  13.523  0.00  0.00    +0.000 C 
ATOM     11  C   UNL     1       5.311   3.640  12.475  0.00  0.00    +0.000 C 
ATOM     12  C   UNL     1       6.750   3.766  12.106  0.00  0.00    +0.000 C 
ENDBRANCH   8  10
BRANCH   1  13
ATOM     13  C   UNL     1       4.544   4.603  19.251  0.00  0.00    +0.000 C 
BRANCH  13  14
ATOM     14  C   UNL     1       3.495   5.059  20.286  0.00  0.00    +0.000 C 
BRANCH  14  15
ATOM     15  O   UNL     1       2.203   5.386  19.773  0.00  0.00    +0.000 OA
BRANCH  15  20
ATOM     16  C   UNL     1       1.133   8.730  21.073  0.00  0.00    +0.000 A 
ATOM     17  C   UNL     1       1.330   9.487  19.917  0.00  0.00    +0.000 A 
ATOM     18  C   UNL     1       1.816   8.877  18.760  0.00  0.00    +0.000 A 
ATOM     19  C   UNL     1       2.104   7.503  18.749  0.00  0.00    +0.000 A 
ATOM     20  C   UNL     1       1.904   6.733  19.892  0.00  0.00    +0.000 A 
ATOM     21  C   UNL     1       1.420   7.360  21.056  0.00  0.00    +0.000 A 
BRANCH  16  23
ATOM     22  N   UNL     1       0.246   9.850  23.242  0.00  0.00    +0.000 NA
ATOM     23  C   UNL     1       0.643   9.344  22.278  0.00  0.00    +0.000 C 
ENDBRANCH  16  23
ENDBRANCH  15  20
ENDBRANCH  14  15
ENDBRANCH  13  14
ENDBRANCH   1  13
TORSDOF 6
ENDMDL
MODEL 7
REMARK VINA RESULT:      -6.9      5.003      7.507
REMARK  Name = 
REMARK  6 active torsions:
REMARK  status: ('A' for Active; 'I' for Inactive)
REMARK    1  A    between atoms: C_2  and  C_3
REMARK    2  A    between atoms: C_7  and  O_8
REMARK    3  A    between atoms: O_8  and  C_9
REMARK    4  A    between atoms: C_9  and  C_10
REMARK    5  A    between atoms: C_10  and  N_11
REMARK    6  A    between atoms: C_18  and  C_19
REMARK                            x       y       z     vdW  Elec       q    Type
REMARK                         _______ _______ _______ _____ _____    ______ ____
ROOT
ATOM      1  N   UNL     1       7.649   7.445  17.343  0.00  0.00    +0.000 NA
ATOM      2  C   UNL     1       6.626   6.964  16.391  0.00  0.00    +0.000 C 
ATOM      3  C   UNL     1       5.254   6.785  17.035  0.00  0.00    +0.000 C 
ATOM      4  N   UNL     1       5.395   5.860  18.129  0.00  0.00    +0.000 N 
ATOM      5  C   UNL     1       6.562   5.725  18.829  0.00  0.00    +0.000 A 
ATOM      6  N   UNL     1       6.423   4.724  19.673  0.00  0.00    +0.000 NA
ATOM      7  N   UNL     1       5.146   4.212  19.516  0.00  0.00    +0.000 NA
ATOM      8  C   UNL     1       4.539   4.905  18.575  0.00  0.00    +0.000 A 
ATOM      9  C   UNL     1       7.780   6.543  18.517  0.00  0.00    +0.000 C 
ENDROOT
BRANCH   8  10
ATOM     10  C   UNL     1       3.119   4.676  18.082  0.00  0.00    +0.000 C 
ATOM     11  C   UNL     1       2.829   3.491  17.186  0.00  0.00    +0.000 C 
ATOM     12  C   UNL     1       2.380   3.464  18.607  0.00  0.00    +0.000 C 
ENDBRANCH   8  10
BRANCH   1  13
ATOM     13  C   UNL     1       7.564   8.884  17.676  0.00  0.00    +0.000 C 
BRANCH  13  14
ATOM     14  C   UNL     1       8.859   9.310  18.397  0.00  0.00    +0.000 C 
BRANCH  14  15
ATOM     15  O   UNL     1       8.774  10.482  19.207  0.00  0.00    +0.000 OA
BRANCH  15  20
ATOM     16  C   UNL     1       9.527  13.937  17.975  0.00  0.00    +0.000 A 
ATOM     17  C   UNL     1      10.749  13.684  17.350  0.00  0.00    +0.000 A 
ATOM     18  C   UNL     1      11.287  12.396  17.366  0.00  0.00    +0.000 A 
ATOM     19  C   UNL     1      10.602  11.349  18.002  0.00  0.00    +0.000 A 
ATOM     20  C   UNL     1       9.376  11.584  18.622  0.00  0.00    +0.000 A 
ATOM     21  C   UNL     1       8.848  12.888  18.606  0.00  0.00    +0.000 A 
BRANCH  16  23
ATOM     22  N   UNL     1       8.511  16.327  17.966  0.00  0.00    +0.000 NA
ATOM     23  C   UNL     1       8.963  15.259  17.978  0.00  0.00    +0.000 C 
ENDBRANCH  16  23
ENDBRANCH  15  20
ENDBRANCH  14  15
ENDBRANCH  13  14
ENDBRANCH   1  13
TORSDOF 6
ENDMDL
MODEL 8
REMARK VINA RESULT:      -6.9      2.528      8.795
REMARK  Name = 
REMARK  6 active torsions:
REMARK  status: ('A' for Active; 'I' for Inactive)
REMARK    1  A    between atoms: C_2  and  C_3
REMARK    2  A    between atoms: C_7  and  O_8
REMARK    3  A    between atoms: O_8  and  C_9
REMARK    4  A    between atoms: C_9  and  C_10
REMARK    5  A    between atoms: C_10  and  N_11
REMARK    6  A    between atoms: C_18  and  C_19
REMARK                            x       y       z     vdW  Elec       q    Type
REMARK                         _______ _______ _______ _____ _____    ______ ____
ROOT
ATOM      1  N   UNL     1       0.559   9.361  19.189  0.00  0.00    +0.000 NA
ATOM      2  C   UNL     1      -0.747  10.029  19.015  0.00  0.00    +0.000 C 
ATOM      3  C   UNL     1      -0.813  11.391  19.702  0.00  0.00    +0.000 C 
ATOM      4  N   UNL     1      -0.532  11.196  21.100  0.00  0.00    +0.000 N 
ATOM      5  C   UNL     1       0.261  10.179  21.554  0.00  0.00    +0.000 A 
ATOM      6  N   UNL     1       0.227  10.185  22.870  0.00  0.00    +0.000 NA
ATOM      7  N   UNL     1      -0.598  11.224  23.267  0.00  0.00    +0.000 NA
ATOM      8  C   UNL     1      -1.053  11.823  22.186  0.00  0.00    +0.000 A 
ATOM      9  C   UNL     1       0.910   9.197  20.625  0.00  0.00    +0.000 C 
ENDROOT
BRANCH   8  10
ATOM     10  C   UNL     1      -1.996  13.016  22.164  0.00  0.00    +0.000 C 
ATOM     11  C   UNL     1      -3.490  12.778  22.117  0.00  0.00    +0.000 C 
ATOM     12  C   UNL     1      -2.861  13.249  23.383  0.00  0.00    +0.000 C 
ENDBRANCH   8  10
BRANCH   1  13
ATOM     13  C   UNL     1       1.651   9.894  18.344  0.00  0.00    +0.000 C 
BRANCH  13  14
ATOM     14  C   UNL     1       2.507   8.719  17.830  0.00  0.00    +0.000 C 
BRANCH  14  15
ATOM     15  O   UNL     1       2.371   7.484  18.534  0.00  0.00    +0.000 OA
BRANCH  15  20
ATOM     16  C   UNL     1       5.038   5.500  16.811  0.00  0.00    +0.000 A 
ATOM     17  C   UNL     1       4.427   4.246  16.834  0.00  0.00    +0.000 A 
ATOM     18  C   UNL     1       3.171   4.094  17.423  0.00  0.00    +0.000 A 
ATOM     19  C   UNL     1       2.514   5.198  17.988  0.00  0.00    +0.000 A 
ATOM     20  C   UNL     1       3.107   6.458  17.964  0.00  0.00    +0.000 A 
ATOM     21  C   UNL     1       4.378   6.598  17.374  0.00  0.00    +0.000 A 
BRANCH  16  23
ATOM     22  N   UNL     1       7.381   5.827  15.739  0.00  0.00    +0.000 NA
ATOM     23  C   UNL     1       6.337   5.673  16.218  0.00  0.00    +0.000 C 
ENDBRANCH  16  23
ENDBRANCH  15  20
ENDBRANCH  14  15
ENDBRANCH  13  14
ENDBRANCH   1  13
TORSDOF 6
ENDMDL
MODEL 9
REMARK VINA RESULT:      -6.9      2.335      6.444
REMARK  Name = 
REMARK  6 active torsions:
REMARK  status: ('A' for Active; 'I' for Inactive)
REMARK    1  A    between atoms: C_2  and  C_3
REMARK    2  A    between atoms: C_7  and  O_8
REMARK    3  A    between atoms: O_8  and  C_9
REMARK    4  A    between atoms: C_9  and  C_10
REMARK    5  A    between atoms: C_10  and  N_11
REMARK    6  A    between atoms: C_18  and  C_19
REMARK                            x       y       z     vdW  Elec       q    Type
REMARK                         _______ _______ _______ _____ _____    ______ ____
ROOT
ATOM      1  N   UNL     1       2.192   3.401  19.096  0.00  0.00    +0.000 NA
ATOM      2  C   UNL     1       1.633   4.148  17.950  0.00  0.00    +0.000 C 
ATOM      3  C   UNL     1       2.311   5.498  17.735  0.00  0.00    +0.000 C 
ATOM      4  N   UNL     1       2.172   6.262  18.947  0.00  0.00    +0.000 N 
ATOM      5  C   UNL     1       2.074   5.674  20.177  0.00  0.00    +0.000 A 
ATOM      6  N   UNL     1       1.831   6.614  21.066  0.00  0.00    +0.000 NA
ATOM      7  N   UNL     1       1.776   7.825  20.397  0.00  0.00    +0.000 NA
ATOM      8  C   UNL     1       1.978   7.596  19.115  0.00  0.00    +0.000 A 
ATOM      9  C   UNL     1       2.119   4.186  20.357  0.00  0.00    +0.000 C 
ENDROOT
BRANCH   8  10
ATOM     10  C   UNL     1       1.998   8.649  18.019  0.00  0.00    +0.000 C 
ATOM     11  C   UNL     1       0.693   9.262  17.558  0.00  0.00    +0.000 C 
ATOM     12  C   UNL     1       1.625  10.065  18.399  0.00  0.00    +0.000 C 
ENDBRANCH   8  10
BRANCH   1  13
ATOM     13  C   UNL     1       3.501   2.759  18.844  0.00  0.00    +0.000 C 
BRANCH  13  14
ATOM     14  C   UNL     1       4.602   3.564  19.563  0.00  0.00    +0.000 C 
BRANCH  14  15
ATOM     15  O   UNL     1       5.856   3.660  18.888  0.00  0.00    +0.000 OA
BRANCH  15  20
ATOM     16  C   UNL     1       5.773   4.682  15.286  0.00  0.00    +0.000 A 
ATOM     17  C   UNL     1       5.629   6.060  15.453  0.00  0.00    +0.000 A 
ATOM     18  C   UNL     1       5.552   6.601  16.738  0.00  0.00    +0.000 A 
ATOM     19  C   UNL     1       5.626   5.768  17.865  0.00  0.00    +0.000 A 
ATOM     20  C   UNL     1       5.779   4.392  17.714  0.00  0.00    +0.000 A 
ATOM     21  C   UNL     1       5.848   3.856  16.414  0.00  0.00    +0.000 A 
BRANCH  16  23
ATOM     22  N   UNL     1       5.893   3.629  12.916  0.00  0.00    +0.000 NA
ATOM     23  C   UNL     1       5.843   4.105  13.971  0.00  0.00    +0.000 C 
ENDBRANCH  16  23
ENDBRANCH  15  20
ENDBRANCH  14  15
ENDBRANCH  13  14
ENDBRANCH   1  13
TORSDOF 6
ENDMDL
