MODEL 1
REMARK VINA RESULT:      -6.0      0.000      0.000
REMARK  Name = 
REMARK  19 active torsions:
REMARK  status: ('A' for Active; 'I' for Inactive)
REMARK    1  A    between atoms: C_1  and  C_2
REMARK    2  A    between atoms: C_2  and  C_3
REMARK    3  A    between atoms: C_3  and  C_4
REMARK    4  A    between atoms: C_4  and  C_5
REMARK    5  A    between atoms: C_5  and  C_6
REMARK    6  A    between atoms: C_6  and  C_7
REMARK    7  A    between atoms: C_8  and  C_9
REMARK    8  A    between atoms: C_9  and  C_10
REMARK    9  A    between atoms: C_10  and  C_11
REMARK   10  A    between atoms: C_11  and  C_12
REMARK   11  A    between atoms: C_12  and  C_13
REMARK   12  A    between atoms: C_13  and  C_14
REMARK   13  A    between atoms: C_14  and  C_15
REMARK   14  A    between atoms: C_15  and  C_16
REMARK   15  A    between atoms: C_16  and  O_18
REMARK   16  A    between atoms: O_18  and  C_19
REMARK   17  A    between atoms: C_19  and  C_20
REMARK   18  A    between atoms: C_22  and  C_24
REMARK   19  A    between atoms: C_24  and  O_26
REMARK                            x       y       z     vdW  Elec       q    Type
REMARK                         _______ _______ _______ _____ _____    ______ ____
ROOT
ATOM      1  C   UNL     1       2.472   6.829  19.104  0.00  0.00    +0.000 C 
ENDROOT
BRANCH   1   2
ATOM      2  C   UNL     1       2.007   8.236  18.840  0.00  0.00    +0.000 C 
ATOM      3  O   UNL     1       2.225   8.885  17.829  0.00  0.00    +0.000 OA
BRANCH   2   4
ATOM      4  O   UNL     1       1.400   8.723  19.958  0.00  0.00    +0.000 OA
BRANCH   4   5
ATOM      5  C   UNL     1       0.974  10.083  19.840  0.00  0.00    +0.000 C 
BRANCH   5   6
ATOM      6  C   UNL     1      -0.536  10.235  19.663  0.00  0.00    +0.000 C 
ATOM      7  C   UNL     1      -0.972  10.396  18.221  0.00  0.00    +0.000 C 
ATOM      8  C   UNL     1      -1.986  11.516  18.244  0.00  0.00    +0.000 C 
ATOM      9  F   UNL     1      -1.611  12.439  17.291  0.00  0.00    +0.000 F 
ATOM     10  C   UNL     1      -1.892  12.081  19.626  0.00  0.00    +0.000 C 
ATOM     11  O   UNL     1      -2.506  13.047  20.049  0.00  0.00    +0.000 OA
ATOM     12  O   UNL     1      -0.956  11.413  20.357  0.00  0.00    +0.000 OA
BRANCH   8  13
ATOM     13  C   UNL     1      -3.373  11.016  17.927  0.00  0.00    +0.000 C 
ATOM     14  O   UNL     1      -3.637  10.192  17.059  0.00  0.00    +0.000 OA
BRANCH  13  15
ATOM     15  O   UNL     1      -4.326  11.633  18.663  0.00  0.00    +0.000 OA
ATOM     16  H   UNL     1      -3.941  12.346  19.226  0.00  0.00    +0.000 HD
ENDBRANCH  13  15
ENDBRANCH   8  13
ENDBRANCH   5   6
ENDBRANCH   4   5
ENDBRANCH   2   4
ENDBRANCH   1   2
BRANCH   1  17
ATOM     17  C   UNL     1       2.121   6.373  20.520  0.00  0.00    +0.000 C 
BRANCH  17  18
ATOM     18  C   UNL     1       1.359   5.046  20.553  0.00  0.00    +0.000 C 
BRANCH  18  19
ATOM     19  C   UNL     1       2.220   3.829  20.893  0.00  0.00    +0.000 C 
BRANCH  19  20
ATOM     20  C   UNL     1       1.551   2.500  20.530  0.00  0.00    +0.000 C 
BRANCH  20  21
ATOM     21  C   UNL     1       1.093   2.446  19.074  0.00  0.00    +0.000 C 
BRANCH  21  22
ATOM     22  C   UNL     1       2.216   2.171  18.070  0.00  0.00    +0.000 C 
BRANCH  22  24
ATOM     23  C   UNL     1       3.716   4.022  17.231  0.00  0.00    +0.000 C 
ATOM     24  C   UNL     1       2.546   3.369  17.218  0.00  0.00    +0.000 C 
BRANCH  23  25
ATOM     25  C   UNL     1       4.847   3.613  18.117  0.00  0.00    +0.000 C 
BRANCH  25  26
ATOM     26  C   UNL     1       5.269   4.710  19.078  0.00  0.00    +0.000 C 
BRANCH  26  27
ATOM     27  C   UNL     1       6.547   5.359  18.555  0.00  0.00    +0.000 C 
BRANCH  27  28
ATOM     28  C   UNL     1       6.222   6.431  17.528  0.00  0.00    +0.000 C 
BRANCH  28  30
ATOM     29  C   UNL     1       8.238   7.477  18.572  0.00  0.00    +0.000 C 
ATOM     30  C   UNL     1       7.422   7.344  17.300  0.00  0.00    +0.000 C 
ENDBRANCH  28  30
ENDBRANCH  27  28
ENDBRANCH  26  27
ENDBRANCH  25  26
ENDBRANCH  23  25
ENDBRANCH  22  24
ENDBRANCH  21  22
ENDBRANCH  20  21
ENDBRANCH  19  20
ENDBRANCH  18  19
ENDBRANCH  17  18
ENDBRANCH   1  17
TORSDOF 18
ENDMDL
MODEL 2
REMARK VINA RESULT:      -5.9      4.500      9.000
REMARK  Name = 
REMARK  19 active torsions:
REMARK  status: ('A' for Active; 'I' for Inactive)
REMARK    1  A    between atoms: C_1  and  C_2
REMARK    2  A    between atoms: C_2  and  C_3
REMARK    3  A    between atoms: C_3  and  C_4
REMARK    4  A    between atoms: C_4  and  C_5
REMARK    5  A    between atoms: C_5  and  C_6
REMARK    6  A    between atoms: C_6  and  C_7
REMARK    7  A    between atoms: C_8  and  C_9
REMARK    8  A    between atoms: C_9  and  C_10
REMARK    9  A    between atoms: C_10  and  C_11
REMARK   10  A    between atoms: C_11  and  C_12
REMARK   11  A    between atoms: C_12  and  C_13
REMARK   12  A    between atoms: C_13  and  C_14
REMARK   13  A    between atoms: C_14  and  C_15
REMARK   14  A    between atoms: C_15  and  C_16
REMARK   15  A    between atoms: C_16  and  O_18
REMARK   16  A    between atoms: O_18  and  C_19
REMARK   17  A    between atoms: C_19  and  C_20
REMARK   18  A    between atoms: C_22  and  C_24
REMARK   19  A    between atoms: C_24  and  O_26
REMARK                            x       y       z     vdW  Elec       q    Type
REMARK                         _______ _______ _______ _____ _____    ______ ____
ROOT
ATOM      1  C   UNL     1       1.058   3.280  20.458  0.00  0.00    +0.000 C 
ENDROOT
BRANCH   1   2
ATOM      2  C   UNL     1       1.208   2.726  19.067  0.00  0.00    +0.000 C 
ATOM      3  O   UNL     1       0.319   2.226  18.394  0.00  0.00    +0.000 OA
BRANCH   2   4
ATOM      4  O   UNL     1       2.523   2.760  18.711  0.00  0.00    +0.000 OA
BRANCH   4   5
ATOM      5  C   UNL     1       2.776   3.468  17.495  0.00  0.00    +0.000 C 
BRANCH   5   6
ATOM      6  C   UNL     1       4.226   3.929  17.349  0.00  0.00    +0.000 C 
ATOM      7  C   UNL     1       4.404   5.431  17.428  0.00  0.00    +0.000 C 
ATOM      8  C   UNL     1       5.354   5.768  16.302  0.00  0.00    +0.000 C 
ATOM      9  F   UNL     1       4.782   6.780  15.560  0.00  0.00    +0.000 F 
ATOM     10  C   UNL     1       5.469   4.503  15.513  0.00  0.00    +0.000 C 
ATOM     11  O   UNL     1       6.100   4.358  14.478  0.00  0.00    +0.000 OA
ATOM     12  O   UNL     1       4.702   3.521  16.063  0.00  0.00    +0.000 OA
BRANCH   8  13
ATOM     13  C   UNL     1       6.690   6.236  16.824  0.00  0.00    +0.000 C 
ATOM     14  O   UNL     1       6.883   6.680  17.949  0.00  0.00    +0.000 OA
BRANCH  13  15
ATOM     15  O   UNL     1       7.661   6.181  15.883  0.00  0.00    +0.000 OA
ATOM     16  H   UNL     1       7.296   6.336  14.979  0.00  0.00    +0.000 HD
ENDBRANCH  13  15
ENDBRANCH   8  13
ENDBRANCH   5   6
ENDBRANCH   4   5
ENDBRANCH   2   4
ENDBRANCH   1   2
BRANCH   1  17
ATOM     17  C   UNL     1       2.019   4.442  20.711  0.00  0.00    +0.000 C 
BRANCH  17  18
ATOM     18  C   UNL     1       1.342   5.812  20.622  0.00  0.00    +0.000 C 
BRANCH  18  19
ATOM     19  C   UNL     1       2.208   6.905  19.996  0.00  0.00    +0.000 C 
BRANCH  19  20
ATOM     20  C   UNL     1       1.694   8.319  20.289  0.00  0.00    +0.000 C 
BRANCH  20  21
ATOM     21  C   UNL     1       0.774   8.373  21.508  0.00  0.00    +0.000 C 
BRANCH  21  22
ATOM     22  C   UNL     1      -0.171   9.578  21.531  0.00  0.00    +0.000 C 
BRANCH  22  24
ATOM     23  C   UNL     1      -0.097  12.048  21.007  0.00  0.00    +0.000 C 
ATOM     24  C   UNL     1       0.519  10.870  21.181  0.00  0.00    +0.000 C 
BRANCH  23  25
ATOM     25  C   UNL     1      -1.575  12.201  21.149  0.00  0.00    +0.000 C 
BRANCH  25  26
ATOM     26  C   UNL     1      -2.212  12.900  19.960  0.00  0.00    +0.000 C 
BRANCH  26  27
ATOM     27  C   UNL     1      -2.753  11.845  19.000  0.00  0.00    +0.000 C 
BRANCH  27  28
ATOM     28  C   UNL     1      -1.769  11.593  17.869  0.00  0.00    +0.000 C 
BRANCH  28  30
ATOM     29  C   UNL     1      -2.694   9.880  16.301  0.00  0.00    +0.000 C 
ATOM     30  C   UNL     1      -1.763  10.121  17.475  0.00  0.00    +0.000 C 
ENDBRANCH  28  30
ENDBRANCH  27  28
ENDBRANCH  26  27
ENDBRANCH  25  26
ENDBRANCH  23  25
ENDBRANCH  22  24
ENDBRANCH  21  22
ENDBRANCH  20  21
ENDBRANCH  19  20
ENDBRANCH  18  19
ENDBRANCH  17  18
ENDBRANCH   1  17
TORSDOF 18
ENDMDL
MODEL 3
REMARK VINA RESULT:      -5.9      4.471      8.728
REMARK  Name = 
REMARK  19 active torsions:
REMARK  status: ('A' for Active; 'I' for Inactive)
REMARK    1  A    between atoms: C_1  and  C_2
REMARK    2  A    between atoms: C_2  and  C_3
REMARK    3  A    between atoms: C_3  and  C_4
REMARK    4  A    between atoms: C_4  and  C_5
REMARK    5  A    between atoms: C_5  and  C_6
REMARK    6  A    between atoms: C_6  and  C_7
REMARK    7  A    between atoms: C_8  and  C_9
REMARK    8  A    between atoms: C_9  and  C_10
REMARK    9  A    between atoms: C_10  and  C_11
REMARK   10  A    between atoms: C_11  and  C_12
REMARK   11  A    between atoms: C_12  and  C_13
REMARK   12  A    between atoms: C_13  and  C_14
REMARK   13  A    between atoms: C_14  and  C_15
REMARK   14  A    between atoms: C_15  and  C_16
REMARK   15  A    between atoms: C_16  and  O_18
REMARK   16  A    between atoms: O_18  and  C_19
REMARK   17  A    between atoms: C_19  and  C_20
REMARK   18  A    between atoms: C_22  and  C_24
REMARK   19  A    between atoms: C_24  and  O_26
REMARK                            x       y       z     vdW  Elec       q    Type
REMARK                         _______ _______ _______ _____ _____    ______ ____
ROOT
ATOM      1  C   UNL     1       0.795   2.668  19.183  0.00  0.00    +0.000 C 
ENDROOT
BRANCH   1   2
ATOM      2  C   UNL     1       1.821   2.867  18.100  0.00  0.00    +0.000 C 
ATOM      3  O   UNL     1       1.636   3.430  17.032  0.00  0.00    +0.000 OA
BRANCH   2   4
ATOM      4  O   UNL     1       2.967   2.216  18.444  0.00  0.00    +0.000 OA
BRANCH   4   5
ATOM      5  C   UNL     1       4.067   2.475  17.568  0.00  0.00    +0.000 C 
BRANCH   5   6
ATOM      6  C   UNL     1       4.583   3.911  17.646  0.00  0.00    +0.000 C 
ATOM      7  C   UNL     1       5.731   4.203  16.702  0.00  0.00    +0.000 C 
ATOM      8  C   UNL     1       6.725   4.983  17.531  0.00  0.00    +0.000 C 
ATOM      9  F   UNL     1       7.954   4.371  17.397  0.00  0.00    +0.000 F 
ATOM     10  C   UNL     1       6.210   4.883  18.931  0.00  0.00    +0.000 C 
ATOM     11  O   UNL     1       6.753   5.330  19.929  0.00  0.00    +0.000 OA
ATOM     12  O   UNL     1       5.064   4.147  18.972  0.00  0.00    +0.000 OA
BRANCH   8  13
ATOM     13  C   UNL     1       6.835   6.413  17.066  0.00  0.00    +0.000 C 
ATOM     14  O   UNL     1       7.764   6.864  16.408  0.00  0.00    +0.000 OA
BRANCH  13  15
ATOM     15  O   UNL     1       5.817   7.183  17.518  0.00  0.00    +0.000 OA
ATOM     16  H   UNL     1       5.065   6.633  17.840  0.00  0.00    +0.000 HD
ENDBRANCH  13  15
ENDBRANCH   8  13
ENDBRANCH   5   6
ENDBRANCH   4   5
ENDBRANCH   2   4
ENDBRANCH   1   2
BRANCH   1  17
ATOM     17  C   UNL     1       1.447   2.476  20.552  0.00  0.00    +0.000 C 
BRANCH  17  18
ATOM     18  C   UNL     1       1.791   3.796  21.245  0.00  0.00    +0.000 C 
BRANCH  18  19
ATOM     19  C   UNL     1       1.294   5.043  20.514  0.00  0.00    +0.000 C 
BRANCH  19  20
ATOM     20  C   UNL     1       2.361   6.137  20.398  0.00  0.00    +0.000 C 
BRANCH  20  21
ATOM     21  C   UNL     1       2.375   6.807  19.025  0.00  0.00    +0.000 C 
BRANCH  21  22
ATOM     22  C   UNL     1       1.799   8.226  19.011  0.00  0.00    +0.000 C 
BRANCH  22  24
ATOM     23  C   UNL     1       0.609   9.601  20.764  0.00  0.00    +0.000 C 
ATOM     24  C   UNL     1       1.614   8.797  20.392  0.00  0.00    +0.000 C 
BRANCH  23  25
ATOM     25  C   UNL     1      -0.465  10.022  19.815  0.00  0.00    +0.000 C 
BRANCH  25  26
ATOM     26  C   UNL     1      -0.185  11.366  19.167  0.00  0.00    +0.000 C 
BRANCH  26  27
ATOM     27  C   UNL     1      -1.512  12.040  18.833  0.00  0.00    +0.000 C 
BRANCH  27  28
ATOM     28  C   UNL     1      -2.045  11.545  17.498  0.00  0.00    +0.000 C 
BRANCH  28  30
ATOM     29  C   UNL     1      -4.026  10.073  17.896  0.00  0.00    +0.000 C 
ATOM     30  C   UNL     1      -3.567  11.469  17.517  0.00  0.00    +0.000 C 
ENDBRANCH  28  30
ENDBRANCH  27  28
ENDBRANCH  26  27
ENDBRANCH  25  26
ENDBRANCH  23  25
ENDBRANCH  22  24
ENDBRANCH  21  22
ENDBRANCH  20  21
ENDBRANCH  19  20
ENDBRANCH  18  19
ENDBRANCH  17  18
ENDBRANCH   1  17
TORSDOF 18
ENDMDL
MODEL 4
REMARK VINA RESULT:      -5.9      5.312      9.430
REMARK  Name = 
REMARK  19 active torsions:
REMARK  status: ('A' for Active; 'I' for Inactive)
REMARK    1  A    between atoms: C_1  and  C_2
REMARK    2  A    between atoms: C_2  and  C_3
REMARK    3  A    between atoms: C_3  and  C_4
REMARK    4  A    between atoms: C_4  and  C_5
REMARK    5  A    between atoms: C_5  and  C_6
REMARK    6  A    between atoms: C_6  and  C_7
REMARK    7  A    between atoms: C_8  and  C_9
REMARK    8  A    between atoms: C_9  and  C_10
REMARK    9  A    between atoms: C_10  and  C_11
REMARK   10  A    between atoms: C_11  and  C_12
REMARK   11  A    between atoms: C_12  and  C_13
REMARK   12  A    between atoms: C_13  and  C_14
REMARK   13  A    between atoms: C_14  and  C_15
REMARK   14  A    between atoms: C_15  and  C_16
REMARK   15  A    between atoms: C_16  and  O_18
REMARK   16  A    between atoms: O_18  and  C_19
REMARK   17  A    between atoms: C_19  and  C_20
REMARK   18  A    between atoms: C_22  and  C_24
REMARK   19  A    between atoms: C_24  and  O_26
REMARK                            x       y       z     vdW  Elec       q    Type
REMARK                         _______ _______ _______ _____ _____    ______ ____
ROOT
ATOM      1  C   UNL     1       7.080   6.162  17.499  0.00  0.00    +0.000 C 
ENDROOT
BRANCH   1   2
ATOM      2  C   UNL     1       5.688   5.851  17.021  0.00  0.00    +0.000 C 
ATOM      3  O   UNL     1       4.860   6.666  16.645  0.00  0.00    +0.000 OA
BRANCH   2   4
ATOM      4  O   UNL     1       5.447   4.519  17.180  0.00  0.00    +0.000 OA
BRANCH   4   5
ATOM      5  C   UNL     1       5.573   4.065  18.529  0.00  0.00    +0.000 C 
BRANCH   5   6
ATOM      6  C   UNL     1       4.236   3.723  19.185  0.00  0.00    +0.000 C 
ATOM      7  C   UNL     1       3.148   3.345  18.200  0.00  0.00    +0.000 C 
ATOM      8  C   UNL     1       1.921   4.088  18.674  0.00  0.00    +0.000 C 
ATOM      9  F   UNL     1       1.407   4.778  17.595  0.00  0.00    +0.000 F 
ATOM     10  C   UNL     1       2.427   5.017  19.731  0.00  0.00    +0.000 C 
ATOM     11  O   UNL     1       1.764   5.845  20.335  0.00  0.00    +0.000 OA
ATOM     12  O   UNL     1       3.772   4.876  19.893  0.00  0.00    +0.000 OA
BRANCH   8  13
ATOM     13  C   UNL     1       0.869   3.145  19.201  0.00  0.00    +0.000 C 
ATOM     14  O   UNL     1       0.267   2.321  18.523  0.00  0.00    +0.000 OA
BRANCH  13  15
ATOM     15  O   UNL     1       0.599   3.352  20.511  0.00  0.00    +0.000 OA
ATOM     16  H   UNL     1      -0.356   3.553  20.655  0.00  0.00    +0.000 HD
ENDBRANCH  13  15
ENDBRANCH   8  13
ENDBRANCH   5   6
ENDBRANCH   4   5
ENDBRANCH   2   4
ENDBRANCH   1   2
BRANCH   1  17
ATOM     17  C   UNL     1       7.435   7.634  17.291  0.00  0.00    +0.000 C 
BRANCH  17  18
ATOM     18  C   UNL     1       8.387   8.180  18.358  0.00  0.00    +0.000 C 
BRANCH  18  19
ATOM     19  C   UNL     1       8.528   9.702  18.363  0.00  0.00    +0.000 C 
BRANCH  19  20
ATOM     20  C   UNL     1       9.249  10.235  19.605  0.00  0.00    +0.000 C 
BRANCH  20  21
ATOM     21  C   UNL     1       9.705  11.684  19.447  0.00  0.00    +0.000 C 
BRANCH  21  22
ATOM     22  C   UNL     1      11.145  11.945  19.899  0.00  0.00    +0.000 C 
BRANCH  22  24
ATOM     23  C   UNL     1      12.333  13.043  17.959  0.00  0.00    +0.000 C 
ATOM     24  C   UNL     1      12.121  11.984  18.752  0.00  0.00    +0.000 C 
BRANCH  23  25
ATOM     25  C   UNL     1      11.602  14.332  18.141  0.00  0.00    +0.000 C 
BRANCH  25  26
ATOM     26  C   UNL     1      12.208  15.204  19.226  0.00  0.00    +0.000 C 
BRANCH  26  27
ATOM     27  C   UNL     1      11.087  15.748  20.106  0.00  0.00    +0.000 C 
BRANCH  27  28
ATOM     28  C   UNL     1       9.728  15.407  19.514  0.00  0.00    +0.000 C 
BRANCH  28  30
ATOM     29  C   UNL     1       7.683  16.349  18.430  0.00  0.00    +0.000 C 
ATOM     30  C   UNL     1       8.924  16.672  19.241  0.00  0.00    +0.000 C 
ENDBRANCH  28  30
ENDBRANCH  27  28
ENDBRANCH  26  27
ENDBRANCH  25  26
ENDBRANCH  23  25
ENDBRANCH  22  24
ENDBRANCH  21  22
ENDBRANCH  20  21
ENDBRANCH  19  20
ENDBRANCH  18  19
ENDBRANCH  17  18
ENDBRANCH   1  17
TORSDOF 18
ENDMDL
MODEL 5
REMARK VINA RESULT:      -5.8      4.567      8.477
REMARK  Name = 
REMARK  19 active torsions:
REMARK  status: ('A' for Active; 'I' for Inactive)
REMARK    1  A    between atoms: C_1  and  C_2
REMARK    2  A    between atoms: C_2  and  C_3
REMARK    3  A    between atoms: C_3  and  C_4
REMARK    4  A    between atoms: C_4  and  C_5
REMARK    5  A    between atoms: C_5  and  C_6
REMARK    6  A    between atoms: C_6  and  C_7
REMARK    7  A    between atoms: C_8  and  C_9
REMARK    8  A    between atoms: C_9  and  C_10
REMARK    9  A    between atoms: C_10  and  C_11
REMARK   10  A    between atoms: C_11  and  C_12
REMARK   11  A    between atoms: C_12  and  C_13
REMARK   12  A    between atoms: C_13  and  C_14
REMARK   13  A    between atoms: C_14  and  C_15
REMARK   14  A    between atoms: C_15  and  C_16
REMARK   15  A    between atoms: C_16  and  O_18
REMARK   16  A    between atoms: O_18  and  C_19
REMARK   17  A    between atoms: C_19  and  C_20
REMARK   18  A    between atoms: C_22  and  C_24
REMARK   19  A    between atoms: C_24  and  O_26
REMARK                            x       y       z     vdW  Elec       q    Type
REMARK                         _______ _______ _______ _____ _____    ______ ____
ROOT
ATOM      1  C   UNL     1       2.767   2.477  20.064  0.00  0.00    +0.000 C 
ENDROOT
BRANCH   1   2
ATOM      2  C   UNL     1       2.015   2.202  18.790  0.00  0.00    +0.000 C 
ATOM      3  O   UNL     1       0.823   1.952  18.701  0.00  0.00    +0.000 OA
BRANCH   2   4
ATOM      4  O   UNL     1       2.895   2.160  17.750  0.00  0.00    +0.000 OA
BRANCH   4   5
ATOM      5  C   UNL     1       3.090   3.419  17.104  0.00  0.00    +0.000 C 
BRANCH   5   6
ATOM      6  C   UNL     1       4.555   3.846  17.032  0.00  0.00    +0.000 C 
ATOM      7  C   UNL     1       5.119   4.335  18.350  0.00  0.00    +0.000 C 
ATOM      8  C   UNL     1       5.896   5.583  18.001  0.00  0.00    +0.000 C 
ATOM      9  F   UNL     1       5.470   6.590  18.841  0.00  0.00    +0.000 F 
ATOM     10  C   UNL     1       5.539   5.864  16.577  0.00  0.00    +0.000 C 
ATOM     11  O   UNL     1       5.908   6.825  15.920  0.00  0.00    +0.000 OA
ATOM     12  O   UNL     1       4.665   4.931  16.106  0.00  0.00    +0.000 OA
BRANCH   8  13
ATOM     13  C   UNL     1       7.379   5.383  18.186  0.00  0.00    +0.000 C 
ATOM     14  O   UNL     1       7.944   4.296  18.175  0.00  0.00    +0.000 OA
BRANCH  13  15
ATOM     15  O   UNL     1       8.030   6.542  18.442  0.00  0.00    +0.000 OA
ATOM     16  H   UNL     1       8.347   6.968  17.611  0.00  0.00    +0.000 HD
ENDBRANCH  13  15
ENDBRANCH   8  13
ENDBRANCH   5   6
ENDBRANCH   4   5
ENDBRANCH   2   4
ENDBRANCH   1   2
BRANCH   1  17
ATOM     17  C   UNL     1       1.882   3.152  21.110  0.00  0.00    +0.000 C 
BRANCH  17  18
ATOM     18  C   UNL     1       2.148   4.654  21.245  0.00  0.00    +0.000 C 
BRANCH  18  19
ATOM     19  C   UNL     1       1.558   5.505  20.121  0.00  0.00    +0.000 C 
BRANCH  19  20
ATOM     20  C   UNL     1       2.505   6.612  19.646  0.00  0.00    +0.000 C 
BRANCH  20  21
ATOM     21  C   UNL     1       2.257   7.019  18.195  0.00  0.00    +0.000 C 
BRANCH  21  22
ATOM     22  C   UNL     1       1.813   8.474  18.015  0.00  0.00    +0.000 C 
BRANCH  22  24
ATOM     23  C   UNL     1       0.371   9.892  19.528  0.00  0.00    +0.000 C 
ATOM     24  C   UNL     1       1.462   9.144  19.318  0.00  0.00    +0.000 C 
BRANCH  23  25
ATOM     25  C   UNL     1      -0.642  10.141  18.459  0.00  0.00    +0.000 C 
BRANCH  25  26
ATOM     26  C   UNL     1      -0.809  11.616  18.138  0.00  0.00    +0.000 C 
BRANCH  26  27
ATOM     27  C   UNL     1      -0.627  12.423  19.420  0.00  0.00    +0.000 C 
BRANCH  27  28
ATOM     28  C   UNL     1      -0.380  13.889  19.101  0.00  0.00    +0.000 C 
BRANCH  28  30
ATOM     29  C   UNL     1       1.710  13.212  20.294  0.00  0.00    +0.000 C 
ATOM     30  C   UNL     1       1.050  14.285  19.447  0.00  0.00    +0.000 C 
ENDBRANCH  28  30
ENDBRANCH  27  28
ENDBRANCH  26  27
ENDBRANCH  25  26
ENDBRANCH  23  25
ENDBRANCH  22  24
ENDBRANCH  21  22
ENDBRANCH  20  21
ENDBRANCH  19  20
ENDBRANCH  18  19
ENDBRANCH  17  18
ENDBRANCH   1  17
TORSDOF 18
ENDMDL
MODEL 6
REMARK VINA RESULT:      -5.8      2.219      2.835
REMARK  Name = 
REMARK  19 active torsions:
REMARK  status: ('A' for Active; 'I' for Inactive)
REMARK    1  A    between atoms: C_1  and  C_2
REMARK    2  A    between atoms: C_2  and  C_3
REMARK    3  A    between atoms: C_3  and  C_4
REMARK    4  A    between atoms: C_4  and  C_5
REMARK    5  A    between atoms: C_5  and  C_6
REMARK    6  A    between atoms: C_6  and  C_7
REMARK    7  A    between atoms: C_8  and  C_9
REMARK    8  A    between atoms: C_9  and  C_10
REMARK    9  A    between atoms: C_10  and  C_11
REMARK   10  A    between atoms: C_11  and  C_12
REMARK   11  A    between atoms: C_12  and  C_13
REMARK   12  A    between atoms: C_13  and  C_14
REMARK   13  A    between atoms: C_14  and  C_15
REMARK   14  A    between atoms: C_15  and  C_16
REMARK   15  A    between atoms: C_16  and  O_18
REMARK   16  A    between atoms: O_18  and  C_19
REMARK   17  A    between atoms: C_19  and  C_20
REMARK   18  A    between atoms: C_22  and  C_24
REMARK   19  A    between atoms: C_24  and  O_26
REMARK                            x       y       z     vdW  Elec       q    Type
REMARK                         _______ _______ _______ _____ _____    ______ ____
ROOT
ATOM      1  C   UNL     1       1.884   7.438  18.174  0.00  0.00    +0.000 C 
ENDROOT
BRANCH   1   2
ATOM      2  C   UNL     1       1.787   8.929  18.351  0.00  0.00    +0.000 C 
ATOM      3  O   UNL     1       2.157   9.772  17.549  0.00  0.00    +0.000 OA
BRANCH   2   4
ATOM      4  O   UNL     1       1.325   9.202  19.604  0.00  0.00    +0.000 OA
BRANCH   4   5
ATOM      5  C   UNL     1       0.001   9.738  19.630  0.00  0.00    +0.000 C 
BRANCH   5   6
ATOM      6  C   UNL     1      -0.053  11.209  20.040  0.00  0.00    +0.000 C 
ATOM      7  C   UNL     1      -0.055  12.173  18.872  0.00  0.00    +0.000 C 
ATOM      8  C   UNL     1       0.926  13.255  19.259  0.00  0.00    +0.000 C 
ATOM      9  F   UNL     1       1.817  13.404  18.218  0.00  0.00    +0.000 F 
ATOM     10  C   UNL     1       1.597  12.732  20.489  0.00  0.00    +0.000 C 
ATOM     11  O   UNL     1       2.506  13.275  21.096  0.00  0.00    +0.000 OA
ATOM     12  O   UNL     1       1.110  11.504  20.819  0.00  0.00    +0.000 OA
BRANCH   8  13
ATOM     13  C   UNL     1       0.232  14.571  19.506  0.00  0.00    +0.000 C 
ATOM     14  O   UNL     1      -0.106  15.357  18.629  0.00  0.00    +0.000 OA
BRANCH  13  15
ATOM     15  O   UNL     1       0.080  14.836  20.825  0.00  0.00    +0.000 OA
ATOM     16  H   UNL     1       0.582  15.642  21.090  0.00  0.00    +0.000 HD
ENDBRANCH  13  15
ENDBRANCH   8  13
ENDBRANCH   5   6
ENDBRANCH   4   5
ENDBRANCH   2   4
ENDBRANCH   1   2
BRANCH   1  17
ATOM     17  C   UNL     1       3.282   6.917  18.506  0.00  0.00    +0.000 C 
BRANCH  17  18
ATOM     18  C   UNL     1       3.294   5.930  19.675  0.00  0.00    +0.000 C 
BRANCH  18  19
ATOM     19  C   UNL     1       1.926   5.688  20.313  0.00  0.00    +0.000 C 
BRANCH  19  20
ATOM     20  C   UNL     1       1.492   4.219  20.265  0.00  0.00    +0.000 C 
BRANCH  20  21
ATOM     21  C   UNL     1       1.072   3.772  18.865  0.00  0.00    +0.000 C 
BRANCH  21  22
ATOM     22  C   UNL     1       1.705   2.454  18.408  0.00  0.00    +0.000 C 
BRANCH  22  24
ATOM     23  C   UNL     1       4.189   2.837  18.163  0.00  0.00    +0.000 C 
ATOM     24  C   UNL     1       3.146   2.321  18.826  0.00  0.00    +0.000 C 
BRANCH  23  25
ATOM     25  C   UNL     1       4.022   3.624  16.904  0.00  0.00    +0.000 C 
BRANCH  25  26
ATOM     26  C   UNL     1       5.346   3.970  16.245  0.00  0.00    +0.000 C 
BRANCH  26  27
ATOM     27  C   UNL     1       5.929   5.203  16.927  0.00  0.00    +0.000 C 
BRANCH  27  28
ATOM     28  C   UNL     1       7.251   4.870  17.600  0.00  0.00    +0.000 C 
BRANCH  28  30
ATOM     29  C   UNL     1       7.580   7.347  17.684  0.00  0.00    +0.000 C 
ATOM     30  C   UNL     1       7.740   6.042  18.442  0.00  0.00    +0.000 C 
ENDBRANCH  28  30
ENDBRANCH  27  28
ENDBRANCH  26  27
ENDBRANCH  25  26
ENDBRANCH  23  25
ENDBRANCH  22  24
ENDBRANCH  21  22
ENDBRANCH  20  21
ENDBRANCH  19  20
ENDBRANCH  18  19
ENDBRANCH  17  18
ENDBRANCH   1  17
TORSDOF 18
ENDMDL
MODEL 7
REMARK VINA RESULT:      -5.8      1.323      4.121
REMARK  Name = 
REMARK  19 active torsions:
REMARK  status: ('A' for Active; 'I' for Inactive)
REMARK    1  A    between atoms: C_1  and  C_2
REMARK    2  A    between atoms: C_2  and  C_3
REMARK    3  A    between atoms: C_3  and  C_4
REMARK    4  A    between atoms: C_4  and  C_5
REMARK    5  A    between atoms: C_5  and  C_6
REMARK    6  A    between atoms: C_6  and  C_7
REMARK    7  A    between atoms: C_8  and  C_9
REMARK    8  A    between atoms: C_9  and  C_10
REMARK    9  A    between atoms: C_10  and  C_11
REMARK   10  A    between atoms: C_11  and  C_12
REMARK   11  A    between atoms: C_12  and  C_13
REMARK   12  A    between atoms: C_13  and  C_14
REMARK   13  A    between atoms: C_14  and  C_15
REMARK   14  A    between atoms: C_15  and  C_16
REMARK   15  A    between atoms: C_16  and  O_18
REMARK   16  A    between atoms: O_18  and  C_19
REMARK   17  A    between atoms: C_19  and  C_20
REMARK   18  A    between atoms: C_22  and  C_24
REMARK   19  A    between atoms: C_24  and  O_26
REMARK                            x       y       z     vdW  Elec       q    Type
REMARK                         _______ _______ _______ _____ _____    ______ ____
ROOT
ATOM      1  C   UNL     1       2.681   7.366  17.825  0.00  0.00    +0.000 C 
ENDROOT
BRANCH   1   2
ATOM      2  C   UNL     1       2.062   8.730  17.963  0.00  0.00    +0.000 C 
ATOM      3  O   UNL     1       2.435   9.747  17.398  0.00  0.00    +0.000 OA
BRANCH   2   4
ATOM      4  O   UNL     1       1.085   8.684  18.911  0.00  0.00    +0.000 OA
BRANCH   4   5
ATOM      5  C   UNL     1       1.177   9.723  19.889  0.00  0.00    +0.000 C 
BRANCH   5   6
ATOM      6  C   UNL     1      -0.028  10.662  19.896  0.00  0.00    +0.000 C 
ATOM      7  C   UNL     1      -1.202  10.162  19.080  0.00  0.00    +0.000 C 
ATOM      8  C   UNL     1      -1.674  11.368  18.301  0.00  0.00    +0.000 C 
ATOM      9  F   UNL     1      -1.753  11.004  16.973  0.00  0.00    +0.000 F 
ATOM     10  C   UNL     1      -0.618  12.401  18.528  0.00  0.00    +0.000 C 
ATOM     11  O   UNL     1      -0.583  13.514  18.026  0.00  0.00    +0.000 OA
ATOM     12  O   UNL     1       0.371  11.913  19.328  0.00  0.00    +0.000 OA
BRANCH   8  13
ATOM     13  C   UNL     1      -3.032  11.832  18.766  0.00  0.00    +0.000 C 
ATOM     14  O   UNL     1      -4.097  11.349  18.402  0.00  0.00    +0.000 OA
BRANCH  13  15
ATOM     15  O   UNL     1      -2.959  12.903  19.590  0.00  0.00    +0.000 OA
ATOM     16  H   UNL     1      -3.854  13.262  19.795  0.00  0.00    +0.000 HD
ENDBRANCH  13  15
ENDBRANCH   8  13
ENDBRANCH   5   6
ENDBRANCH   4   5
ENDBRANCH   2   4
ENDBRANCH   1   2
BRANCH   1  17
ATOM     17  C   UNL     1       4.191   7.448  17.599  0.00  0.00    +0.000 C 
BRANCH  17  18
ATOM     18  C   UNL     1       4.598   7.169  16.150  0.00  0.00    +0.000 C 
BRANCH  18  19
ATOM     19  C   UNL     1       5.253   5.806  15.929  0.00  0.00    +0.000 C 
BRANCH  19  20
ATOM     20  C   UNL     1       6.760   5.811  16.205  0.00  0.00    +0.000 C 
BRANCH  20  21
ATOM     21  C   UNL     1       7.088   5.731  17.695  0.00  0.00    +0.000 C 
BRANCH  21  22
ATOM     22  C   UNL     1       6.548   4.479  18.393  0.00  0.00    +0.000 C 
BRANCH  22  24
ATOM     23  C   UNL     1       4.216   4.159  19.309  0.00  0.00    +0.000 C 
ATOM     24  C   UNL     1       5.405   4.776  19.328  0.00  0.00    +0.000 C 
BRANCH  23  25
ATOM     25  C   UNL     1       3.896   3.079  18.329  0.00  0.00    +0.000 C 
BRANCH  25  26
ATOM     26  C   UNL     1       2.853   3.500  17.308  0.00  0.00    +0.000 C 
BRANCH  26  27
ATOM     27  C   UNL     1       1.577   3.899  18.043  0.00  0.00    +0.000 C 
BRANCH  27  28
ATOM     28  C   UNL     1       1.173   2.824  19.040  0.00  0.00    +0.000 C 
BRANCH  28  30
ATOM     29  C   UNL     1       1.482   2.667  21.515  0.00  0.00    +0.000 C 
ATOM     30  C   UNL     1       0.822   3.440  20.388  0.00  0.00    +0.000 C 
ENDBRANCH  28  30
ENDBRANCH  27  28
ENDBRANCH  26  27
ENDBRANCH  25  26
ENDBRANCH  23  25
ENDBRANCH  22  24
ENDBRANCH  21  22
ENDBRANCH  20  21
ENDBRANCH  19  20
ENDBRANCH  18  19
ENDBRANCH  17  18
ENDBRANCH   1  17
TORSDOF 18
ENDMDL
MODEL 8
REMARK VINA RESULT:      -5.8      5.735      9.410
REMARK  Name = 
REMARK  19 active torsions:
REMARK  status: ('A' for Active; 'I' for Inactive)
REMARK    1  A    between atoms: C_1  and  C_2
REMARK    2  A    between atoms: C_2  and  C_3
REMARK    3  A    between atoms: C_3  and  C_4
REMARK    4  A    between atoms: C_4  and  C_5
REMARK    5  A    between atoms: C_5  and  C_6
REMARK    6  A    between atoms: C_6  and  C_7
REMARK    7  A    between atoms: C_8  and  C_9
REMARK    8  A    between atoms: C_9  and  C_10
REMARK    9  A    between atoms: C_10  and  C_11
REMARK   10  A    between atoms: C_11  and  C_12
REMARK   11  A    between atoms: C_12  and  C_13
REMARK   12  A    between atoms: C_13  and  C_14
REMARK   13  A    between atoms: C_14  and  C_15
REMARK   14  A    between atoms: C_15  and  C_16
REMARK   15  A    between atoms: C_16  and  O_18
REMARK   16  A    between atoms: O_18  and  C_19
REMARK   17  A    between atoms: C_19  and  C_20
REMARK   18  A    between atoms: C_22  and  C_24
REMARK   19  A    between atoms: C_24  and  O_26
REMARK                            x       y       z     vdW  Elec       q    Type
REMARK                         _______ _______ _______ _____ _____    ______ ____
ROOT
ATOM      1  C   UNL     1       6.236   5.954  17.417  0.00  0.00    +0.000 C 
ENDROOT
BRANCH   1   2
ATOM      2  C   UNL     1       5.982   4.736  16.570  0.00  0.00    +0.000 C 
ATOM      3  O   UNL     1       6.737   4.279  15.726  0.00  0.00    +0.000 OA
BRANCH   2   4
ATOM      4  O   UNL     1       4.719   4.283  16.805  0.00  0.00    +0.000 OA
BRANCH   4   5
ATOM      5  C   UNL     1       3.827   5.283  17.304  0.00  0.00    +0.000 C 
BRANCH   5   6
ATOM      6  C   UNL     1       2.836   4.755  18.339  0.00  0.00    +0.000 C 
ATOM      7  C   UNL     1       3.475   4.352  19.652  0.00  0.00    +0.000 C 
ATOM      8  C   UNL     1       2.836   3.028  20.004  0.00  0.00    +0.000 C 
ATOM      9  F   UNL     1       3.850   2.132  20.271  0.00  0.00    +0.000 F 
ATOM     10  C   UNL     1       2.068   2.643  18.781  0.00  0.00    +0.000 C 
ATOM     11  O   UNL     1       1.447   1.604  18.621  0.00  0.00    +0.000 OA
ATOM     12  O   UNL     1       2.207   3.585  17.807  0.00  0.00    +0.000 OA
BRANCH   8  13
ATOM     13  C   UNL     1       1.950   3.145  21.219  0.00  0.00    +0.000 C 
ATOM     14  O   UNL     1       2.341   3.067  22.378  0.00  0.00    +0.000 OA
BRANCH  13  15
ATOM     15  O   UNL     1       0.643   3.276  20.895  0.00  0.00    +0.000 OA
ATOM     16  H   UNL     1       0.101   2.547  21.281  0.00  0.00    +0.000 HD
ENDBRANCH  13  15
ENDBRANCH   8  13
ENDBRANCH   5   6
ENDBRANCH   4   5
ENDBRANCH   2   4
ENDBRANCH   1   2
BRANCH   1  17
ATOM     17  C   UNL     1       7.607   6.566  17.132  0.00  0.00    +0.000 C 
BRANCH  17  18
ATOM     18  C   UNL     1       8.094   7.496  18.245  0.00  0.00    +0.000 C 
BRANCH  18  19
ATOM     19  C   UNL     1       8.126   8.976  17.865  0.00  0.00    +0.000 C 
BRANCH  19  20
ATOM     20  C   UNL     1       8.979   9.822  18.815  0.00  0.00    +0.000 C 
BRANCH  20  21
ATOM     21  C   UNL     1       9.527  11.085  18.153  0.00  0.00    +0.000 C 
BRANCH  21  22
ATOM     22  C   UNL     1       9.156  12.386  18.872  0.00  0.00    +0.000 C 
BRANCH  22  24
ATOM     23  C   UNL     1      10.158  12.579  21.182  0.00  0.00    +0.000 C 
ATOM     24  C   UNL     1      10.200  12.824  19.866  0.00  0.00    +0.000 C 
BRANCH  23  25
ATOM     25  C   UNL     1       9.038  11.820  21.815  0.00  0.00    +0.000 C 
BRANCH  25  26
ATOM     26  C   UNL     1       8.126  12.703  22.649  0.00  0.00    +0.000 C 
BRANCH  26  27
ATOM     27  C   UNL     1       7.262  11.817  23.541  0.00  0.00    +0.000 C 
BRANCH  27  28
ATOM     28  C   UNL     1       6.750  12.599  24.741  0.00  0.00    +0.000 C 
BRANCH  28  30
ATOM     29  C   UNL     1       6.739  11.829  27.119  0.00  0.00    +0.000 C 
ATOM     30  C   UNL     1       7.603  12.321  25.972  0.00  0.00    +0.000 C 
ENDBRANCH  28  30
ENDBRANCH  27  28
ENDBRANCH  26  27
ENDBRANCH  25  26
ENDBRANCH  23  25
ENDBRANCH  22  24
ENDBRANCH  21  22
ENDBRANCH  20  21
ENDBRANCH  19  20
ENDBRANCH  18  19
ENDBRANCH  17  18
ENDBRANCH   1  17
TORSDOF 18
ENDMDL
MODEL 9
REMARK VINA RESULT:      -5.8      4.105      8.676
REMARK  Name = 
REMARK  19 active torsions:
REMARK  status: ('A' for Active; 'I' for Inactive)
REMARK    1  A    between atoms: C_1  and  C_2
REMARK    2  A    between atoms: C_2  and  C_3
REMARK    3  A    between atoms: C_3  and  C_4
REMARK    4  A    between atoms: C_4  and  C_5
REMARK    5  A    between atoms: C_5  and  C_6
REMARK    6  A    between atoms: C_6  and  C_7
REMARK    7  A    between atoms: C_8  and  C_9
REMARK    8  A    between atoms: C_9  and  C_10
REMARK    9  A    between atoms: C_10  and  C_11
REMARK   10  A    between atoms: C_11  and  C_12
REMARK   11  A    between atoms: C_12  and  C_13
REMARK   12  A    between atoms: C_13  and  C_14
REMARK   13  A    between atoms: C_14  and  C_15
REMARK   14  A    between atoms: C_15  and  C_16
REMARK   15  A    between atoms: C_16  and  O_18
REMARK   16  A    between atoms: O_18  and  C_19
REMARK   17  A    between atoms: C_19  and  C_20
REMARK   18  A    between atoms: C_22  and  C_24
REMARK   19  A    between atoms: C_24  and  O_26
REMARK                            x       y       z     vdW  Elec       q    Type
REMARK                         _______ _______ _______ _____ _____    ______ ____
ROOT
ATOM      1  C   UNL     1       1.041   4.373  20.204  0.00  0.00    +0.000 C 
ENDROOT
BRANCH   1   2
ATOM      2  C   UNL     1       1.375   3.761  18.871  0.00  0.00    +0.000 C 
ATOM      3  O   UNL     1       0.804   2.814  18.353  0.00  0.00    +0.000 OA
BRANCH   2   4
ATOM      4  O   UNL     1       2.497   4.354  18.375  0.00  0.00    +0.000 OA
BRANCH   4   5
ATOM      5  C   UNL     1       3.504   3.431  17.955  0.00  0.00    +0.000 C 
BRANCH   5   6
ATOM      6  C   UNL     1       4.822   4.100  17.569  0.00  0.00    +0.000 C 
ATOM      7  C   UNL     1       5.142   5.340  18.379  0.00  0.00    +0.000 C 
ATOM      8  C   UNL     1       5.618   6.354  17.366  0.00  0.00    +0.000 C 
ATOM      9  F   UNL     1       4.894   7.511  17.559  0.00  0.00    +0.000 F 
ATOM     10  C   UNL     1       5.319   5.731  16.040  0.00  0.00    +0.000 C 
ATOM     11  O   UNL     1       5.495   6.248  14.948  0.00  0.00    +0.000 OA
ATOM     12  O   UNL     1       4.739   4.509  16.201  0.00  0.00    +0.000 OA
BRANCH   8  13
ATOM     13  C   UNL     1       7.086   6.658  17.532  0.00  0.00    +0.000 C 
ATOM     14  O   UNL     1       7.683   7.556  16.950  0.00  0.00    +0.000 OA
BRANCH  13  15
ATOM     15  O   UNL     1       7.707   5.779  18.353  0.00  0.00    +0.000 OA
ATOM     16  H   UNL     1       7.880   6.174  19.240  0.00  0.00    +0.000 HD
ENDBRANCH  13  15
ENDBRANCH   8  13
ENDBRANCH   5   6
ENDBRANCH   4   5
ENDBRANCH   2   4
ENDBRANCH   1   2
BRANCH   1  17
ATOM     17  C   UNL     1       2.135   5.328  20.680  0.00  0.00    +0.000 C 
BRANCH  17  18
ATOM     18  C   UNL     1       1.821   6.797  20.385  0.00  0.00    +0.000 C 
BRANCH  18  19
ATOM     19  C   UNL     1       0.783   7.422  21.316  0.00  0.00    +0.000 C 
BRANCH  19  20
ATOM     20  C   UNL     1       1.275   8.708  21.988  0.00  0.00    +0.000 C 
BRANCH  20  21
ATOM     21  C   UNL     1       0.154   9.479  22.682  0.00  0.00    +0.000 C 
BRANCH  21  22
ATOM     22  C   UNL     1      -0.020  10.918  22.187  0.00  0.00    +0.000 C 
BRANCH  22  24
ATOM     23  C   UNL     1      -2.111  12.256  21.719  0.00  0.00    +0.000 C 
ATOM     24  C   UNL     1      -1.366  11.499  22.536  0.00  0.00    +0.000 C 
BRANCH  23  25
ATOM     25  C   UNL     1      -1.669  12.610  20.337  0.00  0.00    +0.000 C 
BRANCH  25  26
ATOM     26  C   UNL     1      -2.568  12.023  19.263  0.00  0.00    +0.000 C 
BRANCH  26  27
ATOM     27  C   UNL     1      -1.846  10.856  18.598  0.00  0.00    +0.000 C 
BRANCH  27  28
ATOM     28  C   UNL     1      -0.354  11.133  18.500  0.00  0.00    +0.000 C 
BRANCH  28  30
ATOM     29  C   UNL     1       1.676   9.820  17.864  0.00  0.00    +0.000 C 
ATOM     30  C   UNL     1       0.451   9.865  18.759  0.00  0.00    +0.000 C 
ENDBRANCH  28  30
ENDBRANCH  27  28
ENDBRANCH  26  27
ENDBRANCH  25  26
ENDBRANCH  23  25
ENDBRANCH  22  24
ENDBRANCH  21  22
ENDBRANCH  20  21
ENDBRANCH  19  20
ENDBRANCH  18  19
ENDBRANCH  17  18
ENDBRANCH   1  17
TORSDOF 18
ENDMDL
