MODEL 1
REMARK VINA RESULT:      -5.5      0.000      0.000
REMARK  Name = 
REMARK  8 active torsions:
REMARK  status: ('A' for Active; 'I' for Inactive)
REMARK    1  A    between atoms: C_1  and  C_2
REMARK    2  A    between atoms: C_2  and  N_3
REMARK    3  A    between atoms: C_2  and  C_4
REMARK    4  A    between atoms: N_6  and  C_7
REMARK    5  A    between atoms: C_7  and  C_8
REMARK    6  A    between atoms: C_7  and  C_9
REMARK    7  A    between atoms: C_7  and  C_10
REMARK    8  A    between atoms: C_10  and  O_12
REMARK                            x       y       z     vdW  Elec       q    Type
REMARK                         _______ _______ _______ _____ _____    ______ ____
ROOT
ATOM      1  C   UNL     1       4.698   3.542  18.440  0.00  0.00    +0.000 C 
ATOM      2  O   UNL     1       4.194   3.873  17.366  0.00  0.00    +0.000 OA
ATOM      3  N   UNL     1       5.850   4.111  18.926  0.00  0.00    +0.000 N 
ATOM      4  H   UNL     1       6.206   3.832  19.837  0.00  0.00    +0.000 HD
ENDROOT
BRANCH   3   5
ATOM      5  C   UNL     1       6.617   5.162  18.226  0.00  0.00    +0.000 C 
ATOM      6  C   UNL     1       7.430   4.562  17.072  0.00  0.00    +0.000 C 
ATOM      7  C   UNL     1       5.684   6.287  17.759  0.00  0.00    +0.000 C 
BRANCH   5   8
ATOM      8  C   UNL     1       7.602   5.746  19.270  0.00  0.00    +0.000 C 
ATOM      9  O   UNL     1       7.765   5.255  20.382  0.00  0.00    +0.000 OA
BRANCH   8  10
ATOM     10  O   UNL     1       8.278   6.851  18.881  0.00  0.00    +0.000 OA
ATOM     11  H   UNL     1       8.568   7.447  19.598  0.00  0.00    +0.000 HD
ENDBRANCH   8  10
ENDBRANCH   5   8
ENDBRANCH   3   5
BRANCH   1  13
ATOM     12  C   UNL     1       2.978   3.081  20.261  0.00  0.00    +0.000 C 
ATOM     13  C   UNL     1       4.039   2.479  19.350  0.00  0.00    +0.000 C 
BRANCH  13  14
ATOM     14  N   UNL     1       5.082   1.843  20.185  0.00  0.00    +0.000 NA
ATOM     15  H   UNL     1       5.308   2.495  20.942  0.00  0.00    +0.000 HD
ATOM     16  H   UNL     1       5.944   1.831  19.635  0.00  0.00    +0.000 HD
ENDBRANCH  13  14
ENDBRANCH   1  13
TORSDOF 5
ENDMDL
MODEL 2
REMARK VINA RESULT:      -5.5      1.688      2.043
REMARK  Name = 
REMARK  8 active torsions:
REMARK  status: ('A' for Active; 'I' for Inactive)
REMARK    1  A    between atoms: C_1  and  C_2
REMARK    2  A    between atoms: C_2  and  N_3
REMARK    3  A    between atoms: C_2  and  C_4
REMARK    4  A    between atoms: N_6  and  C_7
REMARK    5  A    between atoms: C_7  and  C_8
REMARK    6  A    between atoms: C_7  and  C_9
REMARK    7  A    between atoms: C_7  and  C_10
REMARK    8  A    between atoms: C_10  and  O_12
REMARK                            x       y       z     vdW  Elec       q    Type
REMARK                         _______ _______ _______ _____ _____    ______ ____
ROOT
ATOM      1  C   UNL     1       4.028   3.282  17.791  0.00  0.00    +0.000 C 
ATOM      2  O   UNL     1       3.091   3.523  17.028  0.00  0.00    +0.000 OA
ATOM      3  N   UNL     1       5.268   3.856  17.645  0.00  0.00    +0.000 N 
ATOM      4  H   UNL     1       5.999   3.657  18.324  0.00  0.00    +0.000 HD
ENDROOT
BRANCH   3   5
ATOM      5  C   UNL     1       5.624   4.805  16.570  0.00  0.00    +0.000 C 
ATOM      6  C   UNL     1       5.541   4.123  15.198  0.00  0.00    +0.000 C 
ATOM      7  C   UNL     1       4.749   6.062  16.651  0.00  0.00    +0.000 C 
BRANCH   5   8
ATOM      8  C   UNL     1       7.096   5.216  16.827  0.00  0.00    +0.000 C 
ATOM      9  O   UNL     1       7.548   6.311  16.509  0.00  0.00    +0.000 OA
BRANCH   8  10
ATOM     10  O   UNL     1       7.868   4.282  17.426  0.00  0.00    +0.000 OA
ATOM     11  H   UNL     1       7.842   4.270  18.401  0.00  0.00    +0.000 HD
ENDBRANCH   8  10
ENDBRANCH   5   8
ENDBRANCH   3   5
BRANCH   1  13
ATOM     12  C   UNL     1       2.737   2.783  19.929  0.00  0.00    +0.000 C 
ATOM     13  C   UNL     1       3.863   2.339  19.006  0.00  0.00    +0.000 C 
BRANCH  13  14
ATOM     14  N   UNL     1       5.128   2.312  19.773  0.00  0.00    +0.000 NA
ATOM     15  H   UNL     1       5.628   1.458  19.508  0.00  0.00    +0.000 HD
ATOM     16  H   UNL     1       4.884   2.134  20.751  0.00  0.00    +0.000 HD
ENDBRANCH  13  14
ENDBRANCH   1  13
TORSDOF 5
ENDMDL
MODEL 3
REMARK VINA RESULT:      -5.5      2.376      3.065
REMARK  Name = 
REMARK  8 active torsions:
REMARK  status: ('A' for Active; 'I' for Inactive)
REMARK    1  A    between atoms: C_1  and  C_2
REMARK    2  A    between atoms: C_2  and  N_3
REMARK    3  A    between atoms: C_2  and  C_4
REMARK    4  A    between atoms: N_6  and  C_7
REMARK    5  A    between atoms: C_7  and  C_8
REMARK    6  A    between atoms: C_7  and  C_9
REMARK    7  A    between atoms: C_7  and  C_10
REMARK    8  A    between atoms: C_10  and  O_12
REMARK                            x       y       z     vdW  Elec       q    Type
REMARK                         _______ _______ _______ _____ _____    ______ ____
ROOT
ATOM      1  C   UNL     1       5.059   5.166  18.794  0.00  0.00    +0.000 C 
ATOM      2  O   UNL     1       5.648   4.169  19.213  0.00  0.00    +0.000 OA
ATOM      3  N   UNL     1       5.712   6.214  18.192  0.00  0.00    +0.000 N 
ATOM      4  H   UNL     1       5.178   6.999  17.826  0.00  0.00    +0.000 HD
ENDROOT
BRANCH   3   5
ATOM      5  C   UNL     1       7.174   6.277  17.987  0.00  0.00    +0.000 C 
ATOM      6  C   UNL     1       7.600   7.683  17.547  0.00  0.00    +0.000 C 
ATOM      7  C   UNL     1       7.913   5.812  19.249  0.00  0.00    +0.000 C 
BRANCH   5   8
ATOM      8  C   UNL     1       7.494   5.285  16.841  0.00  0.00    +0.000 C 
ATOM      9  O   UNL     1       7.275   5.536  15.660  0.00  0.00    +0.000 OA
BRANCH   8  10
ATOM     10  O   UNL     1       8.030   4.104  17.223  0.00  0.00    +0.000 OA
ATOM     11  H   UNL     1       8.987   4.112  17.413  0.00  0.00    +0.000 HD
ENDBRANCH   8  10
ENDBRANCH   5   8
ENDBRANCH   3   5
BRANCH   1  13
ATOM     12  C   UNL     1       3.005   6.525  18.145  0.00  0.00    +0.000 C 
ATOM     13  C   UNL     1       3.520   5.294  18.878  0.00  0.00    +0.000 C 
BRANCH  13  14
ATOM     14  N   UNL     1       3.118   5.380  20.300  0.00  0.00    +0.000 NA
ATOM     15  H   UNL     1       3.001   6.372  20.525  0.00  0.00    +0.000 HD
ATOM     16  H   UNL     1       3.934   5.118  20.860  0.00  0.00    +0.000 HD
ENDBRANCH  13  14
ENDBRANCH   1  13
TORSDOF 5
ENDMDL
MODEL 4
REMARK VINA RESULT:      -5.5      1.184      1.238
REMARK  Name = 
REMARK  8 active torsions:
REMARK  status: ('A' for Active; 'I' for Inactive)
REMARK    1  A    between atoms: C_1  and  C_2
REMARK    2  A    between atoms: C_2  and  N_3
REMARK    3  A    between atoms: C_2  and  C_4
REMARK    4  A    between atoms: N_6  and  C_7
REMARK    5  A    between atoms: C_7  and  C_8
REMARK    6  A    between atoms: C_7  and  C_9
REMARK    7  A    between atoms: C_7  and  C_10
REMARK    8  A    between atoms: C_10  and  O_12
REMARK                            x       y       z     vdW  Elec       q    Type
REMARK                         _______ _______ _______ _____ _____    ______ ____
ROOT
ATOM      1  C   UNL     1       4.230   3.300  18.531  0.00  0.00    +0.000 C 
ATOM      2  O   UNL     1       3.364   3.759  17.785  0.00  0.00    +0.000 OA
ATOM      3  N   UNL     1       5.541   3.705  18.481  0.00  0.00    +0.000 N 
ATOM      4  H   UNL     1       6.213   3.325  19.144  0.00  0.00    +0.000 HD
ENDROOT
BRANCH   3   5
ATOM      5  C   UNL     1       6.065   4.716  17.539  0.00  0.00    +0.000 C 
ATOM      6  C   UNL     1       6.012   4.190  16.098  0.00  0.00    +0.000 C 
ATOM      7  C   UNL     1       5.314   6.043  17.703  0.00  0.00    +0.000 C 
BRANCH   5   8
ATOM      8  C   UNL     1       7.548   4.941  17.926  0.00  0.00    +0.000 C 
ATOM      9  O   UNL     1       8.423   4.103  17.735  0.00  0.00    +0.000 OA
BRANCH   8  10
ATOM     10  O   UNL     1       7.827   6.133  18.501  0.00  0.00    +0.000 OA
ATOM     11  H   UNL     1       7.088   6.768  18.543  0.00  0.00    +0.000 HD
ENDBRANCH   8  10
ENDBRANCH   5   8
ENDBRANCH   3   5
BRANCH   1  13
ATOM     12  C   UNL     1       2.943   2.803  20.672  0.00  0.00    +0.000 C 
ATOM     13  C   UNL     1       3.892   2.251  19.616  0.00  0.00    +0.000 C 
BRANCH  13  14
ATOM     14  N   UNL     1       5.143   1.818  20.277  0.00  0.00    +0.000 NA
ATOM     15  H   UNL     1       5.338   2.483  21.031  0.00  0.00    +0.000 HD
ATOM     16  H   UNL     1       5.908   1.994  19.621  0.00  0.00    +0.000 HD
ENDBRANCH  13  14
ENDBRANCH   1  13
TORSDOF 5
ENDMDL
MODEL 5
REMARK VINA RESULT:      -5.4      3.265      4.639
REMARK  Name = 
REMARK  8 active torsions:
REMARK  status: ('A' for Active; 'I' for Inactive)
REMARK    1  A    between atoms: C_1  and  C_2
REMARK    2  A    between atoms: C_2  and  N_3
REMARK    3  A    between atoms: C_2  and  C_4
REMARK    4  A    between atoms: N_6  and  C_7
REMARK    5  A    between atoms: C_7  and  C_8
REMARK    6  A    between atoms: C_7  and  C_9
REMARK    7  A    between atoms: C_7  and  C_10
REMARK    8  A    between atoms: C_10  and  O_12
REMARK                            x       y       z     vdW  Elec       q    Type
REMARK                         _______ _______ _______ _____ _____    ______ ____
ROOT
ATOM      1  C   UNL     1       6.517   4.946  15.040  0.00  0.00    +0.000 C 
ATOM      2  O   UNL     1       5.825   4.024  15.476  0.00  0.00    +0.000 OA
ATOM      3  N   UNL     1       7.049   5.920  15.848  0.00  0.00    +0.000 N 
ATOM      4  H   UNL     1       7.647   6.638  15.447  0.00  0.00    +0.000 HD
ENDROOT
BRANCH   3   5
ATOM      5  C   UNL     1       6.853   5.986  17.311  0.00  0.00    +0.000 C 
ATOM      6  C   UNL     1       7.760   7.056  17.932  0.00  0.00    +0.000 C 
ATOM      7  C   UNL     1       5.372   6.212  17.644  0.00  0.00    +0.000 C 
BRANCH   5   8
ATOM      8  C   UNL     1       7.273   4.602  17.868  0.00  0.00    +0.000 C 
ATOM      9  O   UNL     1       8.412   4.159  17.766  0.00  0.00    +0.000 OA
BRANCH   8  10
ATOM     10  O   UNL     1       6.293   3.895  18.475  0.00  0.00    +0.000 OA
ATOM     11  H   UNL     1       5.492   4.397  18.714  0.00  0.00    +0.000 HD
ENDBRANCH   8  10
ENDBRANCH   5   8
ENDBRANCH   3   5
BRANCH   1  13
ATOM     12  C   UNL     1       6.679   3.729  12.808  0.00  0.00    +0.000 C 
ATOM     13  C   UNL     1       6.874   5.051  13.538  0.00  0.00    +0.000 C 
BRANCH  13  14
ATOM     14  N   UNL     1       8.287   5.468  13.405  0.00  0.00    +0.000 NA
ATOM     15  H   UNL     1       8.571   5.283  12.438  0.00  0.00    +0.000 HD
ATOM     16  H   UNL     1       8.851   4.798  13.935  0.00  0.00    +0.000 HD
ENDBRANCH  13  14
ENDBRANCH   1  13
TORSDOF 5
ENDMDL
MODEL 6
REMARK VINA RESULT:      -5.4      1.982      4.564
REMARK  Name = 
REMARK  8 active torsions:
REMARK  status: ('A' for Active; 'I' for Inactive)
REMARK    1  A    between atoms: C_1  and  C_2
REMARK    2  A    between atoms: C_2  and  N_3
REMARK    3  A    between atoms: C_2  and  C_4
REMARK    4  A    between atoms: N_6  and  C_7
REMARK    5  A    between atoms: C_7  and  C_8
REMARK    6  A    between atoms: C_7  and  C_9
REMARK    7  A    between atoms: C_7  and  C_10
REMARK    8  A    between atoms: C_10  and  O_12
REMARK                            x       y       z     vdW  Elec       q    Type
REMARK                         _______ _______ _______ _____ _____    ______ ____
ROOT
ATOM      1  C   UNL     1       5.840   5.176  18.333  0.00  0.00    +0.000 C 
ATOM      2  O   UNL     1       5.015   6.072  18.147  0.00  0.00    +0.000 OA
ATOM      3  N   UNL     1       5.477   3.883  18.620  0.00  0.00    +0.000 N 
ATOM      4  H   UNL     1       6.193   3.169  18.727  0.00  0.00    +0.000 HD
ENDROOT
BRANCH   3   5
ATOM      5  C   UNL     1       4.079   3.420  18.749  0.00  0.00    +0.000 C 
ATOM      6  C   UNL     1       3.358   4.183  19.868  0.00  0.00    +0.000 C 
ATOM      7  C   UNL     1       3.350   3.532  17.404  0.00  0.00    +0.000 C 
BRANCH   5   8
ATOM      8  C   UNL     1       4.153   1.923  19.142  0.00  0.00    +0.000 C 
ATOM      9  O   UNL     1       3.447   1.062  18.627  0.00  0.00    +0.000 OA
BRANCH   8  10
ATOM     10  O   UNL     1       5.050   1.616  20.106  0.00  0.00    +0.000 OA
ATOM     11  H   UNL     1       4.688   1.183  20.902  0.00  0.00    +0.000 HD
ENDBRANCH   8  10
ENDBRANCH   5   8
ENDBRANCH   3   5
BRANCH   1  13
ATOM     12  C   UNL     1       7.665   6.823  17.669  0.00  0.00    +0.000 C 
ATOM     13  C   UNL     1       7.360   5.436  18.215  0.00  0.00    +0.000 C 
BRANCH  13  14
ATOM     14  N   UNL     1       7.955   4.425  17.313  0.00  0.00    +0.000 NA
ATOM     15  H   UNL     1       8.307   4.920  16.488  0.00  0.00    +0.000 HD
ATOM     16  H   UNL     1       7.185   3.871  16.930  0.00  0.00    +0.000 HD
ENDBRANCH  13  14
ENDBRANCH   1  13
TORSDOF 5
ENDMDL
MODEL 7
REMARK VINA RESULT:      -5.4      1.704      2.112
REMARK  Name = 
REMARK  8 active torsions:
REMARK  status: ('A' for Active; 'I' for Inactive)
REMARK    1  A    between atoms: C_1  and  C_2
REMARK    2  A    between atoms: C_2  and  N_3
REMARK    3  A    between atoms: C_2  and  C_4
REMARK    4  A    between atoms: N_6  and  C_7
REMARK    5  A    between atoms: C_7  and  C_8
REMARK    6  A    between atoms: C_7  and  C_9
REMARK    7  A    between atoms: C_7  and  C_10
REMARK    8  A    between atoms: C_10  and  O_12
REMARK                            x       y       z     vdW  Elec       q    Type
REMARK                         _______ _______ _______ _____ _____    ______ ____
ROOT
ATOM      1  C   UNL     1       4.580   3.947  19.105  0.00  0.00    +0.000 C 
ATOM      2  O   UNL     1       4.145   4.895  19.760  0.00  0.00    +0.000 OA
ATOM      3  N   UNL     1       5.624   4.073  18.221  0.00  0.00    +0.000 N 
ATOM      4  H   UNL     1       5.974   3.253  17.731  0.00  0.00    +0.000 HD
ENDROOT
BRANCH   3   5
ATOM      5  C   UNL     1       6.333   5.341  17.946  0.00  0.00    +0.000 C 
ATOM      6  C   UNL     1       5.349   6.418  17.470  0.00  0.00    +0.000 C 
ATOM      7  C   UNL     1       7.134   5.786  19.176  0.00  0.00    +0.000 C 
BRANCH   5   8
ATOM      8  C   UNL     1       7.328   5.040  16.797  0.00  0.00    +0.000 C 
ATOM      9  O   UNL     1       8.120   4.104  16.827  0.00  0.00    +0.000 OA
BRANCH   8  10
ATOM     10  O   UNL     1       7.277   5.886  15.744  0.00  0.00    +0.000 OA
ATOM     11  H   UNL     1       6.431   5.912  15.258  0.00  0.00    +0.000 HD
ENDBRANCH   8  10
ENDBRANCH   5   8
ENDBRANCH   3   5
BRANCH   1  13
ATOM     12  C   UNL     1       2.675   2.517  20.006  0.00  0.00    +0.000 C 
ATOM     13  C   UNL     1       4.003   2.521  19.262  0.00  0.00    +0.000 C 
BRANCH  13  14
ATOM     14  N   UNL     1       4.971   1.685  20.006  0.00  0.00    +0.000 NA
ATOM     15  H   UNL     1       5.433   1.073  19.327  0.00  0.00    +0.000 HD
ATOM     16  H   UNL     1       4.429   1.025  20.570  0.00  0.00    +0.000 HD
ENDBRANCH  13  14
ENDBRANCH   1  13
TORSDOF 5
ENDMDL
MODEL 8
REMARK VINA RESULT:      -5.3      2.234      4.570
REMARK  Name = 
REMARK  8 active torsions:
REMARK  status: ('A' for Active; 'I' for Inactive)
REMARK    1  A    between atoms: C_1  and  C_2
REMARK    2  A    between atoms: C_2  and  N_3
REMARK    3  A    between atoms: C_2  and  C_4
REMARK    4  A    between atoms: N_6  and  C_7
REMARK    5  A    between atoms: C_7  and  C_8
REMARK    6  A    between atoms: C_7  and  C_9
REMARK    7  A    between atoms: C_7  and  C_10
REMARK    8  A    between atoms: C_10  and  O_12
REMARK                            x       y       z     vdW  Elec       q    Type
REMARK                         _______ _______ _______ _____ _____    ______ ____
ROOT
ATOM      1  C   UNL     1       5.636   4.367  17.995  0.00  0.00    +0.000 C 
ATOM      2  O   UNL     1       5.995   4.174  19.158  0.00  0.00    +0.000 OA
ATOM      3  N   UNL     1       4.318   4.331  17.611  0.00  0.00    +0.000 N 
ATOM      4  H   UNL     1       4.066   4.536  16.647  0.00  0.00    +0.000 HD
ENDROOT
BRANCH   3   5
ATOM      5  C   UNL     1       3.192   4.052  18.527  0.00  0.00    +0.000 C 
ATOM      6  C   UNL     1       3.208   5.022  19.715  0.00  0.00    +0.000 C 
ATOM      7  C   UNL     1       1.860   4.083  17.766  0.00  0.00    +0.000 C 
BRANCH   5   8
ATOM      8  C   UNL     1       3.415   2.615  19.062  0.00  0.00    +0.000 C 
ATOM      9  O   UNL     1       3.295   1.615  18.361  0.00  0.00    +0.000 OA
BRANCH   8  10
ATOM     10  O   UNL     1       3.750   2.523  20.368  0.00  0.00    +0.000 OA
ATOM     11  H   UNL     1       4.535   1.979  20.570  0.00  0.00    +0.000 HD
ENDBRANCH   8  10
ENDBRANCH   5   8
ENDBRANCH   3   5
BRANCH   1  13
ATOM     12  C   UNL     1       6.262   4.093  15.542  0.00  0.00    +0.000 C 
ATOM     13  C   UNL     1       6.651   4.708  16.879  0.00  0.00    +0.000 C 
BRANCH  13  14
ATOM     14  N   UNL     1       7.987   4.204  17.268  0.00  0.00    +0.000 NA
ATOM     15  H   UNL     1       7.990   3.192  17.110  0.00  0.00    +0.000 HD
ATOM     16  H   UNL     1       8.050   4.271  18.287  0.00  0.00    +0.000 HD
ENDBRANCH  13  14
ENDBRANCH   1  13
TORSDOF 5
ENDMDL
MODEL 9
REMARK VINA RESULT:      -5.3      2.125      2.518
REMARK  Name = 
REMARK  8 active torsions:
REMARK  status: ('A' for Active; 'I' for Inactive)
REMARK    1  A    between atoms: C_1  and  C_2
REMARK    2  A    between atoms: C_2  and  N_3
REMARK    3  A    between atoms: C_2  and  C_4
REMARK    4  A    between atoms: N_6  and  C_7
REMARK    5  A    between atoms: C_7  and  C_8
REMARK    6  A    between atoms: C_7  and  C_9
REMARK    7  A    between atoms: C_7  and  C_10
REMARK    8  A    between atoms: C_10  and  O_12
REMARK                            x       y       z     vdW  Elec       q    Type
REMARK                         _______ _______ _______ _____ _____    ______ ____
ROOT
ATOM      1  C   UNL     1       3.316   3.119  19.600  0.00  0.00    +0.000 C 
ATOM      2  O   UNL     1       4.236   2.323  19.407  0.00  0.00    +0.000 OA
ATOM      3  N   UNL     1       3.246   4.338  18.972  0.00  0.00    +0.000 N 
ATOM      4  H   UNL     1       2.446   4.945  19.134  0.00  0.00    +0.000 HD
ENDROOT
BRANCH   3   5
ATOM      5  C   UNL     1       4.254   4.840  18.015  0.00  0.00    +0.000 C 
ATOM      6  C   UNL     1       4.334   3.926  16.785  0.00  0.00    +0.000 C 
ATOM      7  C   UNL     1       3.959   6.298  17.639  0.00  0.00    +0.000 C 
BRANCH   5   8
ATOM      8  C   UNL     1       5.615   4.791  18.753  0.00  0.00    +0.000 C 
ATOM      9  O   UNL     1       5.882   5.509  19.711  0.00  0.00    +0.000 OA
BRANCH   8  10
ATOM     10  O   UNL     1       6.510   3.900  18.270  0.00  0.00    +0.000 OA
ATOM     11  H   UNL     1       6.352   2.966  18.507  0.00  0.00    +0.000 HD
ENDBRANCH   8  10
ENDBRANCH   5   8
ENDBRANCH   3   5
BRANCH   1  13
ATOM     12  C   UNL     1       1.060   3.857  20.523  0.00  0.00    +0.000 C 
ATOM     13  C   UNL     1       2.137   2.781  20.542  0.00  0.00    +0.000 C 
BRANCH  13  14
ATOM     14  N   UNL     1       2.647   2.638  21.924  0.00  0.00    +0.000 NA
ATOM     15  H   UNL     1       3.555   3.108  21.965  0.00  0.00    +0.000 HD
ATOM     16  H   UNL     1       2.898   1.654  22.053  0.00  0.00    +0.000 HD
ENDBRANCH  13  14
ENDBRANCH   1  13
TORSDOF 5
ENDMDL
