MODEL 1
REMARK VINA RESULT:      -6.7      0.000      0.000
REMARK  Name = 
REMARK  19 active torsions:
REMARK  status: ('A' for Active; 'I' for Inactive)
REMARK    1  A    between atoms: C_1  and  N_2
REMARK    2  A    between atoms: C_3  and  C_5
REMARK    3  A    between atoms: C_5  and  C_6
REMARK    4  A    between atoms: C_5  and  N_10
REMARK    5  A    between atoms: C_6  and  C_7
REMARK    6  A    between atoms: C_7  and  C_8
REMARK    7  A    between atoms: C_7  and  C_9
REMARK    8  A    between atoms: C_11  and  C_13
REMARK    9  A    between atoms: C_13  and  C_14
REMARK   10  A    between atoms: C_13  and  N_19
REMARK   11  A    between atoms: C_14  and  C_15
REMARK   12  A    between atoms: C_15  and  C_16
REMARK   13  A    between atoms: C_16  and  C_17
REMARK   14  A    between atoms: C_17  and  N_18
REMARK   15  A    between atoms: C_20  and  CA_22
REMARK   16  A    between atoms: CA_22  and  C_23
REMARK   17  A    between atoms: CA_22  and  N_25
REMARK   18  A    between atoms: C_23  and  O_24
REMARK   19  A    between atoms: C_26  and  C_27
REMARK                            x       y       z     vdW  Elec       q    Type
REMARK                         _______ _______ _______ _____ _____    ______ ____
ROOT
ATOM      1  C   UNL     1       5.316   5.129  16.445  0.00  0.00    +0.000 C 
ENDROOT
BRANCH   1   3
ATOM      2  N   UNL     1       3.850   5.705  18.380  0.00  0.00    +0.000 N 
ATOM      3  C   UNL     1       4.033   4.883  17.290  0.00  0.00    +0.000 C 
ATOM      4  O   UNL     1       3.217   4.009  17.005  0.00  0.00    +0.000 OA
ATOM      5  H   UNL     1       4.395   6.554  18.428  0.00  0.00    +0.000 HD
BRANCH   2   6
ATOM      6  C   UNL     1       2.624   5.634  19.192  0.00  0.00    +0.000 C 
BRANCH   6   9
ATOM      7  C   UNL     1       1.269   8.411  21.468  0.00  0.00    +0.000 C 
ATOM      8  N   UNL     1       1.671   7.137  20.937  0.00  0.00    +0.000 N 
ATOM      9  C   UNL     1       2.127   7.044  19.634  0.00  0.00    +0.000 C 
ATOM     10  O   UNL     1       2.100   8.003  18.871  0.00  0.00    +0.000 OA
ATOM     11  H   UNL     1       1.996   6.440  21.596  0.00  0.00    +0.000 HD
ENDBRANCH   6   9
BRANCH   6  12
ATOM     12  C   UNL     1       2.887   4.714  20.403  0.00  0.00    +0.000 C 
BRANCH  12  13
ATOM     13  C   UNL     1       2.203   3.331  20.381  0.00  0.00    +0.000 C 
ATOM     14  C   UNL     1       1.876   2.809  21.781  0.00  0.00    +0.000 C 
ATOM     15  C   UNL     1       0.927   3.384  19.536  0.00  0.00    +0.000 C 
ENDBRANCH  12  13
ENDBRANCH   6  12
ENDBRANCH   2   6
ENDBRANCH   1   3
BRANCH   1  16
ATOM     16  N   UNL     1       5.218   4.514  15.107  0.00  0.00    +0.000 N 
ATOM     17  C   UNL     1       6.338   4.233  14.356  0.00  0.00    +0.000 C 
ATOM     18  O   UNL     1       7.466   4.553  14.727  0.00  0.00    +0.000 OA
ATOM     19  H   UNL     1       4.308   4.324  14.705  0.00  0.00    +0.000 HD
BRANCH  17  20
ATOM     20  CA  UNL     1       6.101   3.468  13.033  0.00  0.00    +0.000 C 
BRANCH  20  21
ATOM     21  N   UNL     1       4.899   3.918  12.320  0.00  0.00    +0.000 N 
ATOM     22  C   UNL     1       4.339   3.151  11.328  0.00  0.00    +0.000 C 
ATOM     23  C   UNL     1       3.177   3.783  10.612  0.00  0.00    +0.000 C 
ATOM     24  O   UNL     1       4.733   2.023  11.052  0.00  0.00    +0.000 OA
ATOM     25  H   UNL     1       4.684   4.910  12.380  0.00  0.00    +0.000 HD
ENDBRANCH  20  21
BRANCH  20  26
ATOM     26  C   UNL     1       7.334   3.562  12.133  0.00  0.00    +0.000 C 
BRANCH  26  27
ATOM     27  O   UNL     1       7.583   2.303  11.499  0.00  0.00    +0.000 OA
ATOM     28  H   UNL     1       8.535   2.279  11.287  0.00  0.00    +0.000 HD
ENDBRANCH  26  27
ENDBRANCH  20  26
ENDBRANCH  17  20
ENDBRANCH   1  16
BRANCH   1  29
ATOM     29  C   UNL     1       5.646   6.636  16.331  0.00  0.00    +0.000 C 
BRANCH  29  30
ATOM     30  C   UNL     1       6.843   7.058  17.196  0.00  0.00    +0.000 C 
BRANCH  30  31
ATOM     31  C   UNL     1       7.655   5.885  17.748  0.00  0.00    +0.000 C 
BRANCH  31  32
ATOM     32  C   UNL     1       7.653   5.932  19.281  0.00  0.00    +0.000 C 
BRANCH  32  33
ATOM     33  N   UNL     1       6.582   5.107  19.826  0.00  0.00    +0.000 NA
ATOM     34  H   UNL     1       6.825   4.123  19.731  0.00  0.00    +0.000 HD
ATOM     35  H   UNL     1       5.741   5.246  19.268  0.00  0.00    +0.000 HD
ENDBRANCH  32  33
ENDBRANCH  31  32
ENDBRANCH  30  31
ENDBRANCH  29  30
ENDBRANCH   1  29
TORSDOF 15
ENDMDL
MODEL 2
REMARK VINA RESULT:      -6.6      0.774      1.144
REMARK  Name = 
REMARK  19 active torsions:
REMARK  status: ('A' for Active; 'I' for Inactive)
REMARK    1  A    between atoms: C_1  and  N_2
REMARK    2  A    between atoms: C_3  and  C_5
REMARK    3  A    between atoms: C_5  and  C_6
REMARK    4  A    between atoms: C_5  and  N_10
REMARK    5  A    between atoms: C_6  and  C_7
REMARK    6  A    between atoms: C_7  and  C_8
REMARK    7  A    between atoms: C_7  and  C_9
REMARK    8  A    between atoms: C_11  and  C_13
REMARK    9  A    between atoms: C_13  and  C_14
REMARK   10  A    between atoms: C_13  and  N_19
REMARK   11  A    between atoms: C_14  and  C_15
REMARK   12  A    between atoms: C_15  and  C_16
REMARK   13  A    between atoms: C_16  and  C_17
REMARK   14  A    between atoms: C_17  and  N_18
REMARK   15  A    between atoms: C_20  and  CA_22
REMARK   16  A    between atoms: CA_22  and  C_23
REMARK   17  A    between atoms: CA_22  and  N_25
REMARK   18  A    between atoms: C_23  and  O_24
REMARK   19  A    between atoms: C_26  and  C_27
REMARK                            x       y       z     vdW  Elec       q    Type
REMARK                         _______ _______ _______ _____ _____    ______ ____
ROOT
ATOM      1  C   UNL     1       5.458   5.075  16.663  0.00  0.00    +0.000 C 
ENDROOT
BRANCH   1   3
ATOM      2  N   UNL     1       3.828   5.616  18.474  0.00  0.00    +0.000 N 
ATOM      3  C   UNL     1       4.054   4.907  17.315  0.00  0.00    +0.000 C 
ATOM      4  O   UNL     1       3.186   4.188  16.826  0.00  0.00    +0.000 OA
ATOM      5  H   UNL     1       4.459   6.374  18.695  0.00  0.00    +0.000 HD
BRANCH   2   6
ATOM      6  C   UNL     1       2.507   5.617  19.122  0.00  0.00    +0.000 C 
BRANCH   6   9
ATOM      7  C   UNL     1       1.257   8.449  21.392  0.00  0.00    +0.000 C 
ATOM      8  N   UNL     1       1.609   7.159  20.863  0.00  0.00    +0.000 N 
ATOM      9  C   UNL     1       2.066   7.047  19.562  0.00  0.00    +0.000 C 
ATOM     10  O   UNL     1       2.082   8.005  18.799  0.00  0.00    +0.000 OA
ATOM     11  H   UNL     1       1.902   6.449  21.524  0.00  0.00    +0.000 HD
ENDBRANCH   6   9
BRANCH   6  12
ATOM     12  C   UNL     1       2.541   4.637  20.314  0.00  0.00    +0.000 C 
BRANCH  12  13
ATOM     13  C   UNL     1       1.352   3.662  20.442  0.00  0.00    +0.000 C 
ATOM     14  C   UNL     1       1.104   2.859  19.165  0.00  0.00    +0.000 C 
ATOM     15  C   UNL     1       1.572   2.709  21.621  0.00  0.00    +0.000 C 
ENDBRANCH  12  13
ENDBRANCH   6  12
ENDBRANCH   2   6
ENDBRANCH   1   3
BRANCH   1  16
ATOM     16  N   UNL     1       5.464   4.637  15.254  0.00  0.00    +0.000 N 
ATOM     17  C   UNL     1       6.635   4.328  14.598  0.00  0.00    +0.000 C 
ATOM     18  O   UNL     1       7.735   4.479  15.126  0.00  0.00    +0.000 OA
ATOM     19  H   UNL     1       4.595   4.595  14.736  0.00  0.00    +0.000 HD
BRANCH  17  20
ATOM     20  CA  UNL     1       6.488   3.756  13.169  0.00  0.00    +0.000 C 
BRANCH  20  21
ATOM     21  N   UNL     1       5.128   3.894  12.635  0.00  0.00    +0.000 N 
ATOM     22  C   UNL     1       4.665   3.049  11.655  0.00  0.00    +0.000 C 
ATOM     23  C   UNL     1       3.295   3.373  11.128  0.00  0.00    +0.000 C 
ATOM     24  O   UNL     1       5.303   2.084  11.249  0.00  0.00    +0.000 OA
ATOM     25  H   UNL     1       4.669   4.786  12.796  0.00  0.00    +0.000 HD
ENDBRANCH  20  21
BRANCH  20  26
ATOM     26  C   UNL     1       7.509   4.397  12.228  0.00  0.00    +0.000 C 
BRANCH  26  27
ATOM     27  O   UNL     1       7.820   5.724  12.663  0.00  0.00    +0.000 OA
ATOM     28  H   UNL     1       8.706   5.935  12.311  0.00  0.00    +0.000 HD
ENDBRANCH  26  27
ENDBRANCH  20  26
ENDBRANCH  17  20
ENDBRANCH   1  16
BRANCH   1  29
ATOM     29  C   UNL     1       5.977   6.527  16.787  0.00  0.00    +0.000 C 
BRANCH  29  30
ATOM     30  C   UNL     1       7.468   6.607  17.139  0.00  0.00    +0.000 C 
BRANCH  30  31
ATOM     31  C   UNL     1       7.744   6.863  18.623  0.00  0.00    +0.000 C 
BRANCH  31  32
ATOM     32  C   UNL     1       7.448   5.593  19.429  0.00  0.00    +0.000 C 
BRANCH  32  33
ATOM     33  N   UNL     1       8.558   5.267  20.316  0.00  0.00    +0.000 NA
ATOM     34  H   UNL     1       8.262   4.568  20.994  0.00  0.00    +0.000 HD
ATOM     35  H   UNL     1       8.806   6.096  20.855  0.00  0.00    +0.000 HD
ENDBRANCH  32  33
ENDBRANCH  31  32
ENDBRANCH  30  31
ENDBRANCH  29  30
ENDBRANCH   1  29
TORSDOF 15
ENDMDL
MODEL 3
REMARK VINA RESULT:      -6.6      2.946      7.492
REMARK  Name = 
REMARK  19 active torsions:
REMARK  status: ('A' for Active; 'I' for Inactive)
REMARK    1  A    between atoms: C_1  and  N_2
REMARK    2  A    between atoms: C_3  and  C_5
REMARK    3  A    between atoms: C_5  and  C_6
REMARK    4  A    between atoms: C_5  and  N_10
REMARK    5  A    between atoms: C_6  and  C_7
REMARK    6  A    between atoms: C_7  and  C_8
REMARK    7  A    between atoms: C_7  and  C_9
REMARK    8  A    between atoms: C_11  and  C_13
REMARK    9  A    between atoms: C_13  and  C_14
REMARK   10  A    between atoms: C_13  and  N_19
REMARK   11  A    between atoms: C_14  and  C_15
REMARK   12  A    between atoms: C_15  and  C_16
REMARK   13  A    between atoms: C_16  and  C_17
REMARK   14  A    between atoms: C_17  and  N_18
REMARK   15  A    between atoms: C_20  and  CA_22
REMARK   16  A    between atoms: CA_22  and  C_23
REMARK   17  A    between atoms: CA_22  and  N_25
REMARK   18  A    between atoms: C_23  and  O_24
REMARK   19  A    between atoms: C_26  and  C_27
REMARK                            x       y       z     vdW  Elec       q    Type
REMARK                         _______ _______ _______ _____ _____    ______ ____
ROOT
ATOM      1  C   UNL     1       3.113   4.322  18.612  0.00  0.00    +0.000 C 
ENDROOT
BRANCH   1   3
ATOM      2  N   UNL     1       4.936   5.080  17.085  0.00  0.00    +0.000 N 
ATOM      3  C   UNL     1       4.597   4.269  18.146  0.00  0.00    +0.000 C 
ATOM      4  O   UNL     1       5.430   3.549  18.692  0.00  0.00    +0.000 OA
ATOM      5  H   UNL     1       4.300   5.826  16.840  0.00  0.00    +0.000 HD
BRANCH   2   6
ATOM      6  C   UNL     1       6.329   5.192  16.625  0.00  0.00    +0.000 C 
BRANCH   6   9
ATOM      7  C   UNL     1       7.842   8.542  17.727  0.00  0.00    +0.000 C 
ATOM      8  N   UNL     1       7.182   7.507  16.979  0.00  0.00    +0.000 N 
ATOM      9  C   UNL     1       7.150   6.214  17.469  0.00  0.00    +0.000 C 
ATOM     10  O   UNL     1       7.763   5.891  18.480  0.00  0.00    +0.000 OA
ATOM     11  H   UNL     1       6.436   7.788  16.354  0.00  0.00    +0.000 HD
ENDBRANCH   6   9
BRANCH   6  12
ATOM     12  C   UNL     1       6.325   5.560  15.126  0.00  0.00    +0.000 C 
BRANCH  12  13
ATOM     13  C   UNL     1       6.838   4.483  14.148  0.00  0.00    +0.000 C 
ATOM     14  C   UNL     1       5.705   3.724  13.455  0.00  0.00    +0.000 C 
ATOM     15  C   UNL     1       7.757   5.115  13.098  0.00  0.00    +0.000 C 
ENDBRANCH  12  13
ENDBRANCH   6  12
ENDBRANCH   2   6
ENDBRANCH   1   3
BRANCH   1  16
ATOM     16  N   UNL     1       2.469   5.600  18.248  0.00  0.00    +0.000 N 
ATOM     17  C   UNL     1       2.383   6.646  19.139  0.00  0.00    +0.000 C 
ATOM     18  O   UNL     1       2.764   6.541  20.304  0.00  0.00    +0.000 OA
ATOM     19  H   UNL     1       2.045   5.707  17.335  0.00  0.00    +0.000 HD
BRANCH  17  20
ATOM     20  CA  UNL     1       1.806   7.970  18.587  0.00  0.00    +0.000 C 
BRANCH  20  21
ATOM     21  N   UNL     1       1.421   8.911  19.646  0.00  0.00    +0.000 N 
ATOM     22  C   UNL     1       0.488   9.892  19.413  0.00  0.00    +0.000 C 
ATOM     23  C   UNL     1       0.270  10.850  20.552  0.00  0.00    +0.000 C 
ATOM     24  O   UNL     1      -0.144   9.979  18.365  0.00  0.00    +0.000 OA
ATOM     25  H   UNL     1       2.061   8.992  20.431  0.00  0.00    +0.000 HD
ENDBRANCH  20  21
BRANCH  20  26
ATOM     26  C   UNL     1       2.791   8.620  17.615  0.00  0.00    +0.000 C 
BRANCH  26  27
ATOM     27  O   UNL     1       3.999   7.856  17.547  0.00  0.00    +0.000 OA
ATOM     28  H   UNL     1       3.961   7.341  16.720  0.00  0.00    +0.000 HD
ENDBRANCH  26  27
ENDBRANCH  20  26
ENDBRANCH  17  20
ENDBRANCH   1  16
BRANCH   1  29
ATOM     29  C   UNL     1       2.299   3.125  18.068  0.00  0.00    +0.000 C 
BRANCH  29  30
ATOM     30  C   UNL     1       1.566   2.344  19.167  0.00  0.00    +0.000 C 
BRANCH  30  31
ATOM     31  C   UNL     1       0.990   3.225  20.278  0.00  0.00    +0.000 C 
BRANCH  31  32
ATOM     32  C   UNL     1       1.344   2.629  21.646  0.00  0.00    +0.000 C 
BRANCH  32  33
ATOM     33  N   UNL     1       2.788   2.589  21.840  0.00  0.00    +0.000 NA
ATOM     34  H   UNL     1       2.997   2.410  22.820  0.00  0.00    +0.000 HD
ATOM     35  H   UNL     1       3.176   3.509  21.632  0.00  0.00    +0.000 HD
ENDBRANCH  32  33
ENDBRANCH  31  32
ENDBRANCH  30  31
ENDBRANCH  29  30
ENDBRANCH   1  29
TORSDOF 15
ENDMDL
MODEL 4
REMARK VINA RESULT:      -6.6      2.553      3.662
REMARK  Name = 
REMARK  19 active torsions:
REMARK  status: ('A' for Active; 'I' for Inactive)
REMARK    1  A    between atoms: C_1  and  N_2
REMARK    2  A    between atoms: C_3  and  C_5
REMARK    3  A    between atoms: C_5  and  C_6
REMARK    4  A    between atoms: C_5  and  N_10
REMARK    5  A    between atoms: C_6  and  C_7
REMARK    6  A    between atoms: C_7  and  C_8
REMARK    7  A    between atoms: C_7  and  C_9
REMARK    8  A    between atoms: C_11  and  C_13
REMARK    9  A    between atoms: C_13  and  C_14
REMARK   10  A    between atoms: C_13  and  N_19
REMARK   11  A    between atoms: C_14  and  C_15
REMARK   12  A    between atoms: C_15  and  C_16
REMARK   13  A    between atoms: C_16  and  C_17
REMARK   14  A    between atoms: C_17  and  N_18
REMARK   15  A    between atoms: C_20  and  CA_22
REMARK   16  A    between atoms: CA_22  and  C_23
REMARK   17  A    between atoms: CA_22  and  N_25
REMARK   18  A    between atoms: C_23  and  O_24
REMARK   19  A    between atoms: C_26  and  C_27
REMARK                            x       y       z     vdW  Elec       q    Type
REMARK                         _______ _______ _______ _____ _____    ______ ____
ROOT
ATOM      1  C   UNL     1       7.224   5.196  17.928  0.00  0.00    +0.000 C 
ENDROOT
BRANCH   1   3
ATOM      2  N   UNL     1       5.493   3.711  18.940  0.00  0.00    +0.000 N 
ATOM      3  C   UNL     1       5.752   4.933  18.359  0.00  0.00    +0.000 C 
ATOM      4  O   UNL     1       4.862   5.765  18.198  0.00  0.00    +0.000 OA
ATOM      5  H   UNL     1       6.279   3.173  19.279  0.00  0.00    +0.000 HD
BRANCH   2   6
ATOM      6  C   UNL     1       4.162   3.390  19.481  0.00  0.00    +0.000 C 
BRANCH   6   9
ATOM      7  C   UNL     1       5.482   0.522  21.664  0.00  0.00    +0.000 C 
ATOM      8  N   UNL     1       5.280   1.459  20.592  0.00  0.00    +0.000 N 
ATOM      9  C   UNL     1       4.233   2.361  20.649  0.00  0.00    +0.000 C 
ATOM     10  O   UNL     1       3.395   2.321  21.543  0.00  0.00    +0.000 OA
ATOM     11  H   UNL     1       6.091   1.719  20.043  0.00  0.00    +0.000 HD
ENDBRANCH   6   9
BRANCH   6  12
ATOM     12  C   UNL     1       3.270   2.885  18.326  0.00  0.00    +0.000 C 
BRANCH  12  13
ATOM     13  C   UNL     1       1.817   3.402  18.299  0.00  0.00    +0.000 C 
ATOM     14  C   UNL     1       0.812   2.374  18.821  0.00  0.00    +0.000 C 
ATOM     15  C   UNL     1       1.701   4.698  19.106  0.00  0.00    +0.000 C 
ENDBRANCH  12  13
ENDBRANCH   6  12
ENDBRANCH   2   6
ENDBRANCH   1   3
BRANCH   1  16
ATOM     16  N   UNL     1       7.389   5.120  16.463  0.00  0.00    +0.000 N 
ATOM     17  C   UNL     1       6.725   4.179  15.708  0.00  0.00    +0.000 C 
ATOM     18  O   UNL     1       6.029   3.306  16.224  0.00  0.00    +0.000 OA
ATOM     19  H   UNL     1       8.032   5.748  15.996  0.00  0.00    +0.000 HD
BRANCH  17  20
ATOM     20  CA  UNL     1       6.883   4.295  14.175  0.00  0.00    +0.000 C 
BRANCH  20  21
ATOM     21  N   UNL     1       5.659   3.943  13.446  0.00  0.00    +0.000 N 
ATOM     22  C   UNL     1       5.720   3.334  12.216  0.00  0.00    +0.000 C 
ATOM     23  C   UNL     1       4.393   3.129  11.538  0.00  0.00    +0.000 C 
ATOM     24  O   UNL     1       6.772   2.960  11.707  0.00  0.00    +0.000 OA
ATOM     25  H   UNL     1       4.808   4.416  13.738  0.00  0.00    +0.000 HD
ENDBRANCH  20  21
BRANCH  20  26
ATOM     26  C   UNL     1       7.360   5.696  13.791  0.00  0.00    +0.000 C 
BRANCH  26  27
ATOM     27  O   UNL     1       8.317   5.622  12.730  0.00  0.00    +0.000 OA
ATOM     28  H   UNL     1       9.143   6.018  13.068  0.00  0.00    +0.000 HD
ENDBRANCH  26  27
ENDBRANCH  20  26
ENDBRANCH  17  20
ENDBRANCH   1  16
BRANCH   1  29
ATOM     29  C   UNL     1       7.745   6.549  18.468  0.00  0.00    +0.000 C 
BRANCH  29  30
ATOM     30  C   UNL     1       7.882   7.621  17.378  0.00  0.00    +0.000 C 
BRANCH  30  31
ATOM     31  C   UNL     1       7.761   9.055  17.899  0.00  0.00    +0.000 C 
BRANCH  31  32
ATOM     32  C   UNL     1       8.923   9.357  18.852  0.00  0.00    +0.000 C 
BRANCH  32  33
ATOM     33  N   UNL     1       9.305  10.762  18.780  0.00  0.00    +0.000 NA
ATOM     34  H   UNL     1       8.470  11.343  18.761  0.00  0.00    +0.000 HD
ATOM     35  H   UNL     1       9.786  10.930  17.898  0.00  0.00    +0.000 HD
ENDBRANCH  32  33
ENDBRANCH  31  32
ENDBRANCH  30  31
ENDBRANCH  29  30
ENDBRANCH   1  29
TORSDOF 15
ENDMDL
MODEL 5
REMARK VINA RESULT:      -6.5      3.335      5.783
REMARK  Name = 
REMARK  19 active torsions:
REMARK  status: ('A' for Active; 'I' for Inactive)
REMARK    1  A    between atoms: C_1  and  N_2
REMARK    2  A    between atoms: C_3  and  C_5
REMARK    3  A    between atoms: C_5  and  C_6
REMARK    4  A    between atoms: C_5  and  N_10
REMARK    5  A    between atoms: C_6  and  C_7
REMARK    6  A    between atoms: C_7  and  C_8
REMARK    7  A    between atoms: C_7  and  C_9
REMARK    8  A    between atoms: C_11  and  C_13
REMARK    9  A    between atoms: C_13  and  C_14
REMARK   10  A    between atoms: C_13  and  N_19
REMARK   11  A    between atoms: C_14  and  C_15
REMARK   12  A    between atoms: C_15  and  C_16
REMARK   13  A    between atoms: C_16  and  C_17
REMARK   14  A    between atoms: C_17  and  N_18
REMARK   15  A    between atoms: C_20  and  CA_22
REMARK   16  A    between atoms: CA_22  and  C_23
REMARK   17  A    between atoms: CA_22  and  N_25
REMARK   18  A    between atoms: C_23  and  O_24
REMARK   19  A    between atoms: C_26  and  C_27
REMARK                            x       y       z     vdW  Elec       q    Type
REMARK                         _______ _______ _______ _____ _____    ______ ____
ROOT
ATOM      1  C   UNL     1       3.156   6.476  18.225  0.00  0.00    +0.000 C 
ENDROOT
BRANCH   1   3
ATOM      2  N   UNL     1       1.710   8.314  19.095  0.00  0.00    +0.000 N 
ATOM      3  C   UNL     1       2.589   7.920  18.109  0.00  0.00    +0.000 C 
ATOM      4  O   UNL     1       2.905   8.678  17.195  0.00  0.00    +0.000 OA
ATOM      5  H   UNL     1       1.678   7.768  19.944  0.00  0.00    +0.000 HD
BRANCH   2   6
ATOM      6  C   UNL     1       1.190   9.690  19.148  0.00  0.00    +0.000 C 
BRANCH   6   9
ATOM      7  C   UNL     1      -0.337   9.336  22.651  0.00  0.00    +0.000 C 
ATOM      8  N   UNL     1       0.065   9.097  21.291  0.00  0.00    +0.000 N 
ATOM      9  C   UNL     1       0.717  10.087  20.579  0.00  0.00    +0.000 C 
ATOM     10  O   UNL     1       0.874  11.214  21.035  0.00  0.00    +0.000 OA
ATOM     11  H   UNL     1       0.235   8.136  21.019  0.00  0.00    +0.000 HD
ENDBRANCH   6   9
BRANCH   6  12
ATOM     12  C   UNL     1       0.054   9.827  18.111  0.00  0.00    +0.000 C 
BRANCH  12  13
ATOM     13  C   UNL     1      -1.197  10.613  18.556  0.00  0.00    +0.000 C 
ATOM     14  C   UNL     1      -1.116  12.100  18.210  0.00  0.00    +0.000 C 
ATOM     15  C   UNL     1      -2.456  10.003  17.933  0.00  0.00    +0.000 C 
ENDBRANCH  12  13
ENDBRANCH   6  12
ENDBRANCH   2   6
ENDBRANCH   1   3
BRANCH   1  16
ATOM     16  N   UNL     1       4.571   6.408  17.808  0.00  0.00    +0.000 N 
ATOM     17  C   UNL     1       5.027   5.428  16.955  0.00  0.00    +0.000 C 
ATOM     18  O   UNL     1       4.300   4.517  16.562  0.00  0.00    +0.000 OA
ATOM     19  H   UNL     1       5.239   7.071  18.183  0.00  0.00    +0.000 HD
BRANCH  17  20
ATOM     20  CA  UNL     1       6.499   5.552  16.495  0.00  0.00    +0.000 C 
BRANCH  20  21
ATOM     21  N   UNL     1       7.018   6.920  16.605  0.00  0.00    +0.000 N 
ATOM     22  C   UNL     1       7.600   7.363  17.768  0.00  0.00    +0.000 C 
ATOM     23  C   UNL     1       7.989   8.816  17.775  0.00  0.00    +0.000 C 
ATOM     24  O   UNL     1       7.812   6.632  18.730  0.00  0.00    +0.000 OA
ATOM     25  H   UNL     1       6.677   7.589  15.920  0.00  0.00    +0.000 HD
ENDBRANCH  20  21
BRANCH  20  26
ATOM     26  C   UNL     1       7.384   4.571  17.265  0.00  0.00    +0.000 C 
BRANCH  26  27
ATOM     27  O   UNL     1       6.667   4.018  18.373  0.00  0.00    +0.000 OA
ATOM     28  H   UNL     1       6.520   3.075  18.170  0.00  0.00    +0.000 HD
ENDBRANCH  26  27
ENDBRANCH  20  26
ENDBRANCH  17  20
ENDBRANCH   1  16
BRANCH   1  29
ATOM     29  C   UNL     1       2.977   5.902  19.650  0.00  0.00    +0.000 C 
BRANCH  29  30
ATOM     30  C   UNL     1       2.170   4.597  19.678  0.00  0.00    +0.000 C 
BRANCH  30  31
ATOM     31  C   UNL     1       2.866   3.451  20.415  0.00  0.00    +0.000 C 
BRANCH  31  32
ATOM     32  C   UNL     1       3.551   2.527  19.400  0.00  0.00    +0.000 C 
BRANCH  32  33
ATOM     33  N   UNL     1       4.901   2.188  19.831  0.00  0.00    +0.000 NA
ATOM     34  H   UNL     1       5.579   2.611  19.200  0.00  0.00    +0.000 HD
ATOM     35  H   UNL     1       5.032   1.181  19.751  0.00  0.00    +0.000 HD
ENDBRANCH  32  33
ENDBRANCH  31  32
ENDBRANCH  30  31
ENDBRANCH  29  30
ENDBRANCH   1  29
TORSDOF 15
ENDMDL
MODEL 6
REMARK VINA RESULT:      -6.5      3.296      6.449
REMARK  Name = 
REMARK  19 active torsions:
REMARK  status: ('A' for Active; 'I' for Inactive)
REMARK    1  A    between atoms: C_1  and  N_2
REMARK    2  A    between atoms: C_3  and  C_5
REMARK    3  A    between atoms: C_5  and  C_6
REMARK    4  A    between atoms: C_5  and  N_10
REMARK    5  A    between atoms: C_6  and  C_7
REMARK    6  A    between atoms: C_7  and  C_8
REMARK    7  A    between atoms: C_7  and  C_9
REMARK    8  A    between atoms: C_11  and  C_13
REMARK    9  A    between atoms: C_13  and  C_14
REMARK   10  A    between atoms: C_13  and  N_19
REMARK   11  A    between atoms: C_14  and  C_15
REMARK   12  A    between atoms: C_15  and  C_16
REMARK   13  A    between atoms: C_16  and  C_17
REMARK   14  A    between atoms: C_17  and  N_18
REMARK   15  A    between atoms: C_20  and  CA_22
REMARK   16  A    between atoms: CA_22  and  C_23
REMARK   17  A    between atoms: CA_22  and  N_25
REMARK   18  A    between atoms: C_23  and  O_24
REMARK   19  A    between atoms: C_26  and  C_27
REMARK                            x       y       z     vdW  Elec       q    Type
REMARK                         _______ _______ _______ _____ _____    ______ ____
ROOT
ATOM      1  C   UNL     1       2.238   6.305  19.401  0.00  0.00    +0.000 C 
ENDROOT
BRANCH   1   3
ATOM      2  N   UNL     1       1.629   8.663  18.855  0.00  0.00    +0.000 N 
ATOM      3  C   UNL     1       1.847   7.741  19.856  0.00  0.00    +0.000 C 
ATOM      4  O   UNL     1       1.731   8.045  21.041  0.00  0.00    +0.000 OA
ATOM      5  H   UNL     1       1.486   8.317  17.917  0.00  0.00    +0.000 HD
BRANCH   2   6
ATOM      6  C   UNL     1       1.154  10.022  19.160  0.00  0.00    +0.000 C 
BRANCH   6   9
ATOM      7  C   UNL     1      -2.068   9.965  17.077  0.00  0.00    +0.000 C 
ATOM      8  N   UNL     1      -0.694   9.897  17.492  0.00  0.00    +0.000 N 
ATOM      9  C   UNL     1      -0.348  10.219  18.793  0.00  0.00    +0.000 C 
ATOM     10  O   UNL     1      -1.167  10.668  19.586  0.00  0.00    +0.000 OA
ATOM     11  H   UNL     1      -0.088   9.257  16.993  0.00  0.00    +0.000 HD
ENDBRANCH   6   9
BRANCH   6  12
ATOM     12  C   UNL     1       2.060  11.036  18.430  0.00  0.00    +0.000 C 
BRANCH  12  13
ATOM     13  C   UNL     1       1.828  12.527  18.751  0.00  0.00    +0.000 C 
ATOM     14  C   UNL     1       1.786  12.810  20.253  0.00  0.00    +0.000 C 
ATOM     15  C   UNL     1       2.912  13.386  18.091  0.00  0.00    +0.000 C 
ENDBRANCH  12  13
ENDBRANCH   6  12
ENDBRANCH   2   6
ENDBRANCH   1   3
BRANCH   1  16
ATOM     16  N   UNL     1       3.586   6.268  18.802  0.00  0.00    +0.000 N 
ATOM     17  C   UNL     1       3.899   5.401  17.778  0.00  0.00    +0.000 C 
ATOM     18  O   UNL     1       3.098   4.563  17.369  0.00  0.00    +0.000 OA
ATOM     19  H   UNL     1       4.317   6.864  19.170  0.00  0.00    +0.000 HD
BRANCH  17  20
ATOM     20  CA  UNL     1       5.305   5.558  17.154  0.00  0.00    +0.000 C 
BRANCH  20  21
ATOM     21  N   UNL     1       6.038   6.716  17.681  0.00  0.00    +0.000 N 
ATOM     22  C   UNL     1       7.257   7.077  17.159  0.00  0.00    +0.000 C 
ATOM     23  C   UNL     1       7.942   8.215  17.865  0.00  0.00    +0.000 C 
ATOM     24  O   UNL     1       7.751   6.534  16.176  0.00  0.00    +0.000 OA
ATOM     25  H   UNL     1       5.761   7.044  18.602  0.00  0.00    +0.000 HD
ENDBRANCH  20  21
BRANCH  20  26
ATOM     26  C   UNL     1       6.117   4.275  17.333  0.00  0.00    +0.000 C 
BRANCH  26  27
ATOM     27  O   UNL     1       5.733   3.304  16.355  0.00  0.00    +0.000 OA
ATOM     28  H   UNL     1       4.795   3.472  16.144  0.00  0.00    +0.000 HD
ENDBRANCH  26  27
ENDBRANCH  20  26
ENDBRANCH  17  20
ENDBRANCH   1  16
BRANCH   1  29
ATOM     29  C   UNL     1       2.125   5.287  20.559  0.00  0.00    +0.000 C 
BRANCH  29  30
ATOM     30  C   UNL     1       0.945   4.319  20.400  0.00  0.00    +0.000 C 
BRANCH  30  31
ATOM     31  C   UNL     1       1.356   2.848  20.302  0.00  0.00    +0.000 C 
BRANCH  31  32
ATOM     32  C   UNL     1       0.962   2.293  18.927  0.00  0.00    +0.000 C 
BRANCH  32  33
ATOM     33  N   UNL     1       2.123   1.753  18.231  0.00  0.00    +0.000 NA
ATOM     34  H   UNL     1       2.964   2.236  18.541  0.00  0.00    +0.000 HD
ATOM     35  H   UNL     1       2.034   1.951  17.235  0.00  0.00    +0.000 HD
ENDBRANCH  32  33
ENDBRANCH  31  32
ENDBRANCH  30  31
ENDBRANCH  29  30
ENDBRANCH   1  29
TORSDOF 15
ENDMDL
MODEL 7
REMARK VINA RESULT:      -6.3      3.367      7.927
REMARK  Name = 
REMARK  19 active torsions:
REMARK  status: ('A' for Active; 'I' for Inactive)
REMARK    1  A    between atoms: C_1  and  N_2
REMARK    2  A    between atoms: C_3  and  C_5
REMARK    3  A    between atoms: C_5  and  C_6
REMARK    4  A    between atoms: C_5  and  N_10
REMARK    5  A    between atoms: C_6  and  C_7
REMARK    6  A    between atoms: C_7  and  C_8
REMARK    7  A    between atoms: C_7  and  C_9
REMARK    8  A    between atoms: C_11  and  C_13
REMARK    9  A    between atoms: C_13  and  C_14
REMARK   10  A    between atoms: C_13  and  N_19
REMARK   11  A    between atoms: C_14  and  C_15
REMARK   12  A    between atoms: C_15  and  C_16
REMARK   13  A    between atoms: C_16  and  C_17
REMARK   14  A    between atoms: C_17  and  N_18
REMARK   15  A    between atoms: C_20  and  CA_22
REMARK   16  A    between atoms: CA_22  and  C_23
REMARK   17  A    between atoms: CA_22  and  N_25
REMARK   18  A    between atoms: C_23  and  O_24
REMARK   19  A    between atoms: C_26  and  C_27
REMARK                            x       y       z     vdW  Elec       q    Type
REMARK                         _______ _______ _______ _____ _____    ______ ____
ROOT
ATOM      1  C   UNL     1       3.381   5.027  19.181  0.00  0.00    +0.000 C 
ENDROOT
BRANCH   1   3
ATOM      2  N   UNL     1       5.521   5.811  18.165  0.00  0.00    +0.000 N 
ATOM      3  C   UNL     1       4.922   4.900  19.007  0.00  0.00    +0.000 C 
ATOM      4  O   UNL     1       5.580   4.040  19.589  0.00  0.00    +0.000 OA
ATOM      5  H   UNL     1       4.998   6.638  17.915  0.00  0.00    +0.000 HD
BRANCH   2   6
ATOM      6  C   UNL     1       6.984   5.854  18.003  0.00  0.00    +0.000 C 
BRANCH   6   9
ATOM      7  C   UNL     1       8.926   9.101  18.641  0.00  0.00    +0.000 C 
ATOM      8  N   UNL     1       8.322   7.805  18.786  0.00  0.00    +0.000 N 
ATOM      9  C   UNL     1       7.511   7.304  17.784  0.00  0.00    +0.000 C 
ATOM     10  O   UNL     1       7.198   7.978  16.809  0.00  0.00    +0.000 OA
ATOM     11  H   UNL     1       8.794   7.136  19.383  0.00  0.00    +0.000 HD
ENDBRANCH   6   9
BRANCH   6  12
ATOM     12  C   UNL     1       7.378   4.919  16.839  0.00  0.00    +0.000 C 
BRANCH  12  13
ATOM     13  C   UNL     1       6.408   4.859  15.641  0.00  0.00    +0.000 C 
ATOM     14  C   UNL     1       7.113   5.042  14.297  0.00  0.00    +0.000 C 
ATOM     15  C   UNL     1       5.639   3.534  15.648  0.00  0.00    +0.000 C 
ENDBRANCH  12  13
ENDBRANCH   6  12
ENDBRANCH   2   6
ENDBRANCH   1   3
BRANCH   1  16
ATOM     16  N   UNL     1       2.965   6.431  19.369  0.00  0.00    +0.000 N 
ATOM     17  C   UNL     1       1.997   6.782  20.285  0.00  0.00    +0.000 C 
ATOM     18  O   UNL     1       1.377   5.939  20.930  0.00  0.00    +0.000 OA
ATOM     19  H   UNL     1       3.367   7.157  18.790  0.00  0.00    +0.000 HD
BRANCH  17  20
ATOM     20  CA  UNL     1       1.752   8.296  20.475  0.00  0.00    +0.000 C 
BRANCH  20  21
ATOM     21  N   UNL     1       0.915   8.877  19.419  0.00  0.00    +0.000 N 
ATOM     22  C   UNL     1       0.641  10.223  19.394  0.00  0.00    +0.000 C 
ATOM     23  C   UNL     1      -0.315  10.662  18.320  0.00  0.00    +0.000 C 
ATOM     24  O   UNL     1       1.151  11.023  20.173  0.00  0.00    +0.000 OA
ATOM     25  H   UNL     1       0.327   8.229  18.902  0.00  0.00    +0.000 HD
ENDBRANCH  20  21
BRANCH  20  26
ATOM     26  C   UNL     1       1.155   8.573  21.855  0.00  0.00    +0.000 C 
BRANCH  26  27
ATOM     27  O   UNL     1       2.063   9.348  22.644  0.00  0.00    +0.000 OA
ATOM     28  H   UNL     1       2.243   8.833  23.453  0.00  0.00    +0.000 HD
ENDBRANCH  26  27
ENDBRANCH  20  26
ENDBRANCH  17  20
ENDBRANCH   1  16
BRANCH   1  29
ATOM     29  C   UNL     1       2.617   4.384  18.001  0.00  0.00    +0.000 C 
BRANCH  29  30
ATOM     30  C   UNL     1       1.624   3.299  18.444  0.00  0.00    +0.000 C 
BRANCH  30  31
ATOM     31  C   UNL     1       2.139   2.413  19.580  0.00  0.00    +0.000 C 
BRANCH  31  32
ATOM     32  C   UNL     1       1.281   2.630  20.833  0.00  0.00    +0.000 C 
BRANCH  32  33
ATOM     33  N   UNL     1       2.102   3.055  21.960  0.00  0.00    +0.000 NA
ATOM     34  H   UNL     1       1.531   3.100  22.802  0.00  0.00    +0.000 HD
ATOM     35  H   UNL     1       2.432   4.004  21.791  0.00  0.00    +0.000 HD
ENDBRANCH  32  33
ENDBRANCH  31  32
ENDBRANCH  30  31
ENDBRANCH  29  30
ENDBRANCH   1  29
TORSDOF 15
ENDMDL
MODEL 8
REMARK VINA RESULT:      -6.3      2.680      5.733
REMARK  Name = 
REMARK  19 active torsions:
REMARK  status: ('A' for Active; 'I' for Inactive)
REMARK    1  A    between atoms: C_1  and  N_2
REMARK    2  A    between atoms: C_3  and  C_5
REMARK    3  A    between atoms: C_5  and  C_6
REMARK    4  A    between atoms: C_5  and  N_10
REMARK    5  A    between atoms: C_6  and  C_7
REMARK    6  A    between atoms: C_7  and  C_8
REMARK    7  A    between atoms: C_7  and  C_9
REMARK    8  A    between atoms: C_11  and  C_13
REMARK    9  A    between atoms: C_13  and  C_14
REMARK   10  A    between atoms: C_13  and  N_19
REMARK   11  A    between atoms: C_14  and  C_15
REMARK   12  A    between atoms: C_15  and  C_16
REMARK   13  A    between atoms: C_16  and  C_17
REMARK   14  A    between atoms: C_17  and  N_18
REMARK   15  A    between atoms: C_20  and  CA_22
REMARK   16  A    between atoms: CA_22  and  C_23
REMARK   17  A    between atoms: CA_22  and  N_25
REMARK   18  A    between atoms: C_23  and  O_24
REMARK   19  A    between atoms: C_26  and  C_27
REMARK                            x       y       z     vdW  Elec       q    Type
REMARK                         _______ _______ _______ _____ _____    ______ ____
ROOT
ATOM      1  C   UNL     1       2.566   6.399  19.006  0.00  0.00    +0.000 C 
ENDROOT
BRANCH   1   3
ATOM      2  N   UNL     1       1.410   8.514  19.652  0.00  0.00    +0.000 N 
ATOM      3  C   UNL     1       2.285   7.912  18.775  0.00  0.00    +0.000 C 
ATOM      4  O   UNL     1       2.814   8.546  17.865  0.00  0.00    +0.000 OA
ATOM      5  H   UNL     1       1.204   8.034  20.517  0.00  0.00    +0.000 HD
BRANCH   2   6
ATOM      6  C   UNL     1       1.149   9.962  19.596  0.00  0.00    +0.000 C 
BRANCH   6   9
ATOM      7  C   UNL     1      -0.620  10.032  23.001  0.00  0.00    +0.000 C 
ATOM      8  N   UNL     1      -0.151   9.644  21.699  0.00  0.00    +0.000 N 
ATOM      9  C   UNL     1       0.617  10.519  20.952  0.00  0.00    +0.000 C 
ATOM     10  O   UNL     1       0.828  11.669  21.319  0.00  0.00    +0.000 OA
ATOM     11  H   UNL     1      -0.036   8.653  21.522  0.00  0.00    +0.000 HD
ENDBRANCH   6   9
BRANCH   6  12
ATOM     12  C   UNL     1       0.166  10.240  18.438  0.00  0.00    +0.000 C 
BRANCH  12  13
ATOM     13  C   UNL     1      -1.214  10.811  18.825  0.00  0.00    +0.000 C 
ATOM     14  C   UNL     1      -1.336  12.309  18.544  0.00  0.00    +0.000 C 
ATOM     15  C   UNL     1      -2.325  10.053  18.092  0.00  0.00    +0.000 C 
ENDBRANCH  12  13
ENDBRANCH   6  12
ENDBRANCH   2   6
ENDBRANCH   1   3
BRANCH   1  16
ATOM     16  N   UNL     1       3.985   6.063  18.775  0.00  0.00    +0.000 N 
ATOM     17  C   UNL     1       4.362   5.117  17.848  0.00  0.00    +0.000 C 
ATOM     18  O   UNL     1       3.536   4.449  17.228  0.00  0.00    +0.000 OA
ATOM     19  H   UNL     1       4.705   6.507  19.332  0.00  0.00    +0.000 HD
BRANCH  17  20
ATOM     20  CA  UNL     1       5.882   4.958  17.612  0.00  0.00    +0.000 C 
BRANCH  20  21
ATOM     21  N   UNL     1       6.289   5.326  16.250  0.00  0.00    +0.000 N 
ATOM     22  C   UNL     1       6.396   4.374  15.264  0.00  0.00    +0.000 C 
ATOM     23  C   UNL     1       6.925   4.874  13.949  0.00  0.00    +0.000 C 
ATOM     24  O   UNL     1       6.065   3.204  15.426  0.00  0.00    +0.000 OA
ATOM     25  H   UNL     1       6.757   6.221  16.145  0.00  0.00    +0.000 HD
ENDBRANCH  20  21
BRANCH  20  26
ATOM     26  C   UNL     1       6.671   5.757  18.649  0.00  0.00    +0.000 C 
BRANCH  26  27
ATOM     27  O   UNL     1       6.657   5.084  19.911  0.00  0.00    +0.000 OA
ATOM     28  H   UNL     1       5.953   4.410  19.863  0.00  0.00    +0.000 HD
ENDBRANCH  26  27
ENDBRANCH  20  26
ENDBRANCH  17  20
ENDBRANCH   1  16
BRANCH   1  29
ATOM     29  C   UNL     1       2.119   5.943  20.414  0.00  0.00    +0.000 C 
BRANCH  29  30
ATOM     30  C   UNL     1       2.153   4.418  20.594  0.00  0.00    +0.000 C 
BRANCH  30  31
ATOM     31  C   UNL     1       0.914   3.701  20.053  0.00  0.00    +0.000 C 
BRANCH  31  32
ATOM     32  C   UNL     1       1.335   2.402  19.355  0.00  0.00    +0.000 C 
BRANCH  32  33
ATOM     33  N   UNL     1       2.786   2.290  19.293  0.00  0.00    +0.000 NA
ATOM     34  H   UNL     1       3.175   3.116  18.842  0.00  0.00    +0.000 HD
ATOM     35  H   UNL     1       3.033   1.501  18.696  0.00  0.00    +0.000 HD
ENDBRANCH  32  33
ENDBRANCH  31  32
ENDBRANCH  30  31
ENDBRANCH  29  30
ENDBRANCH   1  29
TORSDOF 15
ENDMDL
MODEL 9
REMARK VINA RESULT:      -6.3      3.355      7.965
REMARK  Name = 
REMARK  19 active torsions:
REMARK  status: ('A' for Active; 'I' for Inactive)
REMARK    1  A    between atoms: C_1  and  N_2
REMARK    2  A    between atoms: C_3  and  C_5
REMARK    3  A    between atoms: C_5  and  C_6
REMARK    4  A    between atoms: C_5  and  N_10
REMARK    5  A    between atoms: C_6  and  C_7
REMARK    6  A    between atoms: C_7  and  C_8
REMARK    7  A    between atoms: C_7  and  C_9
REMARK    8  A    between atoms: C_11  and  C_13
REMARK    9  A    between atoms: C_13  and  C_14
REMARK   10  A    between atoms: C_13  and  N_19
REMARK   11  A    between atoms: C_14  and  C_15
REMARK   12  A    between atoms: C_15  and  C_16
REMARK   13  A    between atoms: C_16  and  C_17
REMARK   14  A    between atoms: C_17  and  N_18
REMARK   15  A    between atoms: C_20  and  CA_22
REMARK   16  A    between atoms: CA_22  and  C_23
REMARK   17  A    between atoms: CA_22  and  N_25
REMARK   18  A    between atoms: C_23  and  O_24
REMARK   19  A    between atoms: C_26  and  C_27
REMARK                            x       y       z     vdW  Elec       q    Type
REMARK                         _______ _______ _______ _____ _____    ______ ____
ROOT
ATOM      1  C   UNL     1       3.207   5.268  18.963  0.00  0.00    +0.000 C 
ENDROOT
BRANCH   1   3
ATOM      2  N   UNL     1       5.171   5.728  17.493  0.00  0.00    +0.000 N 
ATOM      3  C   UNL     1       4.715   5.086  18.624  0.00  0.00    +0.000 C 
ATOM      4  O   UNL     1       5.468   4.412  19.323  0.00  0.00    +0.000 OA
ATOM      5  H   UNL     1       4.596   6.460  17.102  0.00  0.00    +0.000 HD
BRANCH   2   6
ATOM      6  C   UNL     1       6.598   5.713  17.130  0.00  0.00    +0.000 C 
BRANCH   6   9
ATOM      7  C   UNL     1       8.082   9.168  17.902  0.00  0.00    +0.000 C 
ATOM      8  N   UNL     1       7.432   8.059  17.257  0.00  0.00    +0.000 N 
ATOM      9  C   UNL     1       7.407   6.820  17.873  0.00  0.00    +0.000 C 
ATOM     10  O   UNL     1       8.017   6.603  18.913  0.00  0.00    +0.000 OA
ATOM     11  H   UNL     1       6.687   8.271  16.604  0.00  0.00    +0.000 HD
ENDBRANCH   6   9
BRANCH   6  12
ATOM     12  C   UNL     1       6.717   5.848  15.597  0.00  0.00    +0.000 C 
BRANCH  12  13
ATOM     13  C   UNL     1       6.050   4.743  14.752  0.00  0.00    +0.000 C 
ATOM     14  C   UNL     1       6.775   4.489  13.430  0.00  0.00    +0.000 C 
ATOM     15  C   UNL     1       5.964   3.441  15.555  0.00  0.00    +0.000 C 
ENDBRANCH  12  13
ENDBRANCH   6  12
ENDBRANCH   2   6
ENDBRANCH   1   3
BRANCH   1  16
ATOM     16  N   UNL     1       2.882   6.673  19.279  0.00  0.00    +0.000 N 
ATOM     17  C   UNL     1       1.938   7.001  20.226  0.00  0.00    +0.000 C 
ATOM     18  O   UNL     1       1.263   6.145  20.795  0.00  0.00    +0.000 OA
ATOM     19  H   UNL     1       3.332   7.421  18.767  0.00  0.00    +0.000 HD
BRANCH  17  20
ATOM     20  CA  UNL     1       1.791   8.505  20.554  0.00  0.00    +0.000 C 
BRANCH  20  21
ATOM     21  N   UNL     1       0.996   9.232  19.557  0.00  0.00    +0.000 N 
ATOM     22  C   UNL     1       0.763  10.580  19.687  0.00  0.00    +0.000 C 
ATOM     23  C   UNL     1      -0.154  11.172  18.653  0.00  0.00    +0.000 C 
ATOM     24  O   UNL     1       1.278  11.266  20.564  0.00  0.00    +0.000 OA
ATOM     25  H   UNL     1       0.402   8.668  18.956  0.00  0.00    +0.000 HD
ENDBRANCH  20  21
BRANCH  20  26
ATOM     26  C   UNL     1       1.209   8.693  21.955  0.00  0.00    +0.000 C 
BRANCH  26  27
ATOM     27  O   UNL     1       2.146   9.373  22.796  0.00  0.00    +0.000 OA
ATOM     28  H   UNL     1       1.635  10.014  23.326  0.00  0.00    +0.000 HD
ENDBRANCH  26  27
ENDBRANCH  20  26
ENDBRANCH  17  20
ENDBRANCH   1  16
BRANCH   1  29
ATOM     29  C   UNL     1       2.298   4.738  17.830  0.00  0.00    +0.000 C 
BRANCH  29  30
ATOM     30  C   UNL     1       2.725   3.359  17.308  0.00  0.00    +0.000 C 
BRANCH  30  31
ATOM     31  C   UNL     1       2.421   2.208  18.270  0.00  0.00    +0.000 C 
BRANCH  31  32
ATOM     32  C   UNL     1       3.659   1.314  18.412  0.00  0.00    +0.000 C 
BRANCH  32  33
ATOM     33  N   UNL     1       4.492   1.751  19.525  0.00  0.00    +0.000 NA
ATOM     34  H   UNL     1       5.375   2.115  19.170  0.00  0.00    +0.000 HD
ATOM     35  H   UNL     1       4.730   0.943  20.098  0.00  0.00    +0.000 HD
ENDBRANCH  32  33
ENDBRANCH  31  32
ENDBRANCH  30  31
ENDBRANCH  29  30
ENDBRANCH   1  29
TORSDOF 15
ENDMDL
