MODEL 1
REMARK VINA RESULT:      -7.7      0.000      0.000
REMARK  Name = 
REMARK  4 active torsions:
REMARK  status: ('A' for Active; 'I' for Inactive)
REMARK    1  A    between atoms: C_1  and  C_2
REMARK    2  A    between atoms: C_5  and  C_6
REMARK    3  A    between atoms: N_11  and  S_12
REMARK    4  A    between atoms: S_12  and  C_15
REMARK                            x       y       z     vdW  Elec       q    Type
REMARK                         _______ _______ _______ _____ _____    ______ ____
ROOT
ATOM      1  C   UNL     1       1.706   3.425  19.090  0.00  0.00    +0.000 C 
ATOM      2  C   UNL     1       0.448   3.113  19.933  0.00  0.00    +0.000 C 
ATOM      3  N   UNL     1       0.954   2.933  21.279  0.00  0.00    +0.000 N 
ATOM      4  C   UNL     1       2.298   2.626  21.261  0.00  0.00    +0.000 C 
ATOM      5  O   UNL     1       2.970   2.312  22.221  0.00  0.00    +0.000 OA
ATOM      6  N   UNL     1       2.729   2.786  19.939  0.00  0.00    +0.000 N 
ATOM      7  H   UNL     1       0.408   2.831  22.121  0.00  0.00    +0.000 HD
ENDROOT
BRANCH   1  12
ATOM      8  C   UNL     1       2.485   9.187  18.476  0.00  0.00    +0.000 C 
ATOM      9  C   UNL     1       2.284   7.711  18.643  0.00  0.00    +0.000 A 
ATOM     10  C   UNL     1       2.183   7.146  19.913  0.00  0.00    +0.000 A 
ATOM     11  C   UNL     1       2.002   5.771  20.057  0.00  0.00    +0.000 A 
ATOM     12  C   UNL     1       1.920   4.921  18.940  0.00  0.00    +0.000 A 
ATOM     13  C   UNL     1       2.021   5.497  17.666  0.00  0.00    +0.000 A 
ATOM     14  C   UNL     1       2.201   6.878  17.520  0.00  0.00    +0.000 A 
ENDBRANCH   1  12
BRANCH   6  15
ATOM     15  S   UNL     1       4.139   2.220  19.289  0.00  0.00    +0.000 S 
ATOM     16  O   UNL     1       4.970   1.704  20.353  0.00  0.00    +0.000 OA
ATOM     17  O   UNL     1       3.812   1.373  18.154  0.00  0.00    +0.000 OA
BRANCH  15  18
ATOM     18  C   UNL     1       4.926   3.678  18.644  0.00  0.00    +0.000 A 
ATOM     19  C   UNL     1       5.486   4.602  19.533  0.00  0.00    +0.000 A 
ATOM     20  C   UNL     1       6.092   5.758  19.037  0.00  0.00    +0.000 A 
ATOM     21  C   UNL     1       6.156   5.970  17.660  0.00  0.00    +0.000 A 
ATOM     22 CL   UNL     1       6.848   7.423  17.052  0.00  0.00    +0.000 Cl
ATOM     23  C   UNL     1       5.651   5.017  16.771  0.00  0.00    +0.000 A 
ATOM     24  C   UNL     1       5.039   3.862  17.263  0.00  0.00    +0.000 A 
ENDBRANCH  15  18
ENDBRANCH   6  15
TORSDOF 3
ENDMDL
MODEL 2
REMARK VINA RESULT:      -7.7      0.055      1.014
REMARK  Name = 
REMARK  4 active torsions:
REMARK  status: ('A' for Active; 'I' for Inactive)
REMARK    1  A    between atoms: C_1  and  C_2
REMARK    2  A    between atoms: C_5  and  C_6
REMARK    3  A    between atoms: N_11  and  S_12
REMARK    4  A    between atoms: S_12  and  C_15
REMARK                            x       y       z     vdW  Elec       q    Type
REMARK                         _______ _______ _______ _____ _____    ______ ____
ROOT
ATOM      1  C   UNL     1       1.700   3.423  19.100  0.00  0.00    +0.000 C 
ATOM      2  C   UNL     1       0.458   3.109  19.966  0.00  0.00    +0.000 C 
ATOM      3  N   UNL     1       0.988   2.927  21.302  0.00  0.00    +0.000 N 
ATOM      4  C   UNL     1       2.332   2.621  21.258  0.00  0.00    +0.000 C 
ATOM      5  O   UNL     1       3.022   2.306  22.206  0.00  0.00    +0.000 OA
ATOM      6  N   UNL     1       2.739   2.782  19.929  0.00  0.00    +0.000 N 
ATOM      7  H   UNL     1       0.458   2.824  22.154  0.00  0.00    +0.000 HD
ENDROOT
BRANCH   1  12
ATOM      8  C   UNL     1       2.467   9.185  18.478  0.00  0.00    +0.000 C 
ATOM      9  C   UNL     1       2.269   7.709  18.647  0.00  0.00    +0.000 A 
ATOM     10  C   UNL     1       2.164   7.146  19.918  0.00  0.00    +0.000 A 
ATOM     11  C   UNL     1       1.987   5.771  20.064  0.00  0.00    +0.000 A 
ATOM     12  C   UNL     1       1.911   4.919  18.948  0.00  0.00    +0.000 A 
ATOM     13  C   UNL     1       2.016   5.492  17.673  0.00  0.00    +0.000 A 
ATOM     14  C   UNL     1       2.193   6.874  17.526  0.00  0.00    +0.000 A 
ENDBRANCH   1  12
BRANCH   6  15
ATOM     15  S   UNL     1       4.136   2.218  19.253  0.00  0.00    +0.000 S 
ATOM     16  O   UNL     1       4.969   1.663  20.296  0.00  0.00    +0.000 OA
ATOM     17  O   UNL     1       3.790   1.406  18.097  0.00  0.00    +0.000 OA
BRANCH  15  18
ATOM     18  C   UNL     1       4.936   3.683  18.642  0.00  0.00    +0.000 A 
ATOM     19  C   UNL     1       5.008   3.897  17.260  0.00  0.00    +0.000 A 
ATOM     20  C   UNL     1       5.648   5.037  16.770  0.00  0.00    +0.000 A 
ATOM     21  C   UNL     1       6.188   5.965  17.661  0.00  0.00    +0.000 A 
ATOM     22 CL   UNL     1       7.030   7.337  17.055  0.00  0.00    +0.000 Cl
ATOM     23  C   UNL     1       6.062   5.781  19.040  0.00  0.00    +0.000 A 
ATOM     24  C   UNL     1       5.427   4.639  19.536  0.00  0.00    +0.000 A 
ENDBRANCH  15  18
ENDBRANCH   6  15
TORSDOF 3
ENDMDL
MODEL 3
REMARK VINA RESULT:      -7.6      0.029      1.004
REMARK  Name = 
REMARK  4 active torsions:
REMARK  status: ('A' for Active; 'I' for Inactive)
REMARK    1  A    between atoms: C_1  and  C_2
REMARK    2  A    between atoms: C_5  and  C_6
REMARK    3  A    between atoms: N_11  and  S_12
REMARK    4  A    between atoms: S_12  and  C_15
REMARK                            x       y       z     vdW  Elec       q    Type
REMARK                         _______ _______ _______ _____ _____    ______ ____
ROOT
ATOM      1  C   UNL     1       1.689   3.401  19.077  0.00  0.00    +0.000 C 
ATOM      2  C   UNL     1       0.433   3.084  19.921  0.00  0.00    +0.000 C 
ATOM      3  N   UNL     1       0.939   2.920  21.270  0.00  0.00    +0.000 N 
ATOM      4  C   UNL     1       2.286   2.626  21.255  0.00  0.00    +0.000 C 
ATOM      5  O   UNL     1       2.960   2.326  22.219  0.00  0.00    +0.000 OA
ATOM      6  N   UNL     1       2.717   2.778  19.933  0.00  0.00    +0.000 N 
ATOM      7  H   UNL     1       0.392   2.820  22.112  0.00  0.00    +0.000 HD
ENDROOT
BRANCH   1  12
ATOM      8  C   UNL     1       2.506   9.160  18.491  0.00  0.00    +0.000 C 
ATOM      9  C   UNL     1       2.297   7.682  18.632  0.00  0.00    +0.000 A 
ATOM     10  C   UNL     1       2.200   6.867  17.505  0.00  0.00    +0.000 A 
ATOM     11  C   UNL     1       1.999   5.495  17.647  0.00  0.00    +0.000 A 
ATOM     12  C   UNL     1       1.890   4.897  18.915  0.00  0.00    +0.000 A 
ATOM     13  C   UNL     1       1.990   5.723  20.044  0.00  0.00    +0.000 A 
ATOM     14  C   UNL     1       2.193   7.102  19.902  0.00  0.00    +0.000 A 
ENDBRANCH   1  12
BRANCH   6  15
ATOM     15  S   UNL     1       4.133   2.220  19.290  0.00  0.00    +0.000 S 
ATOM     16  O   UNL     1       4.965   1.714  20.359  0.00  0.00    +0.000 OA
ATOM     17  O   UNL     1       3.816   1.366  18.157  0.00  0.00    +0.000 OA
BRANCH  15  18
ATOM     18  C   UNL     1       4.911   3.681  18.641  0.00  0.00    +0.000 A 
ATOM     19  C   UNL     1       5.471   4.608  19.527  0.00  0.00    +0.000 A 
ATOM     20  C   UNL     1       6.070   5.766  19.028  0.00  0.00    +0.000 A 
ATOM     21  C   UNL     1       6.127   5.977  17.650  0.00  0.00    +0.000 A 
ATOM     22 CL   UNL     1       6.811   7.433  17.039  0.00  0.00    +0.000 Cl
ATOM     23  C   UNL     1       5.623   5.022  16.764  0.00  0.00    +0.000 A 
ATOM     24  C   UNL     1       5.018   3.864  17.259  0.00  0.00    +0.000 A 
ENDBRANCH  15  18
ENDBRANCH   6  15
TORSDOF 3
ENDMDL
MODEL 4
REMARK VINA RESULT:      -7.6      0.930      1.061
REMARK  Name = 
REMARK  4 active torsions:
REMARK  status: ('A' for Active; 'I' for Inactive)
REMARK    1  A    between atoms: C_1  and  C_2
REMARK    2  A    between atoms: C_5  and  C_6
REMARK    3  A    between atoms: N_11  and  S_12
REMARK    4  A    between atoms: S_12  and  C_15
REMARK                            x       y       z     vdW  Elec       q    Type
REMARK                         _______ _______ _______ _____ _____    ______ ____
ROOT
ATOM      1  C   UNL     1       1.507   3.428  19.735  0.00  0.00    +0.000 C 
ATOM      2  C   UNL     1       1.032   3.053  21.157  0.00  0.00    +0.000 C 
ATOM      3  N   UNL     1       2.252   2.739  21.873  0.00  0.00    +0.000 N 
ATOM      4  C   UNL     1       3.267   2.420  20.995  0.00  0.00    +0.000 C 
ATOM      5  O   UNL     1       4.368   2.008  21.298  0.00  0.00    +0.000 OA
ATOM      6  N   UNL     1       2.789   2.699  19.710  0.00  0.00    +0.000 N 
ATOM      7  H   UNL     1       2.345   2.565  22.862  0.00  0.00    +0.000 HD
ENDROOT
BRANCH   1  12
ATOM      8  C   UNL     1       2.147   9.206  19.109  0.00  0.00    +0.000 C 
ATOM      9  C   UNL     1       1.980   7.725  19.278  0.00  0.00    +0.000 A 
ATOM     10  C   UNL     1       1.684   7.182  20.527  0.00  0.00    +0.000 A 
ATOM     11  C   UNL     1       1.537   5.803  20.675  0.00  0.00    +0.000 A 
ATOM     12  C   UNL     1       1.683   4.929  19.584  0.00  0.00    +0.000 A 
ATOM     13  C   UNL     1       1.980   5.483  18.331  0.00  0.00    +0.000 A 
ATOM     14  C   UNL     1       2.126   6.868  18.181  0.00  0.00    +0.000 A 
ENDBRANCH   1  12
BRANCH   6  15
ATOM     15  S   UNL     1       3.443   2.181  18.283  0.00  0.00    +0.000 S 
ATOM     16  O   UNL     1       4.200   0.974  18.528  0.00  0.00    +0.000 OA
ATOM     17  O   UNL     1       2.398   2.185  17.273  0.00  0.00    +0.000 OA
BRANCH  15  18
ATOM     18  C   UNL     1       4.594   3.465  17.851  0.00  0.00    +0.000 A 
ATOM     19  C   UNL     1       5.313   4.108  18.865  0.00  0.00    +0.000 A 
ATOM     20  C   UNL     1       6.207   5.129  18.536  0.00  0.00    +0.000 A 
ATOM     21  C   UNL     1       6.394   5.482  17.199  0.00  0.00    +0.000 A 
ATOM     22 CL   UNL     1       7.450   6.780  16.801  0.00  0.00    +0.000 Cl
ATOM     23  C   UNL     1       5.722   4.798  16.184  0.00  0.00    +0.000 A 
ATOM     24  C   UNL     1       4.822   3.779  16.508  0.00  0.00    +0.000 A 
ENDBRANCH  15  18
ENDBRANCH   6  15
TORSDOF 3
ENDMDL
MODEL 5
REMARK VINA RESULT:      -7.5      0.939      1.465
REMARK  Name = 
REMARK  4 active torsions:
REMARK  status: ('A' for Active; 'I' for Inactive)
REMARK    1  A    between atoms: C_1  and  C_2
REMARK    2  A    between atoms: C_5  and  C_6
REMARK    3  A    between atoms: N_11  and  S_12
REMARK    4  A    between atoms: S_12  and  C_15
REMARK                            x       y       z     vdW  Elec       q    Type
REMARK                         _______ _______ _______ _____ _____    ______ ____
ROOT
ATOM      1  C   UNL     1       1.502   3.386  19.741  0.00  0.00    +0.000 C 
ATOM      2  C   UNL     1       1.041   3.001  21.166  0.00  0.00    +0.000 C 
ATOM      3  N   UNL     1       2.272   2.708  21.874  0.00  0.00    +0.000 N 
ATOM      4  C   UNL     1       3.286   2.407  20.990  0.00  0.00    +0.000 C 
ATOM      5  O   UNL     1       4.396   2.014  21.286  0.00  0.00    +0.000 OA
ATOM      6  N   UNL     1       2.796   2.679  19.708  0.00  0.00    +0.000 N 
ATOM      7  H   UNL     1       2.373   2.534  22.863  0.00  0.00    +0.000 HD
ENDROOT
BRANCH   1  12
ATOM      8  C   UNL     1       2.114   9.176  19.207  0.00  0.00    +0.000 C 
ATOM      9  C   UNL     1       1.960   7.690  19.335  0.00  0.00    +0.000 A 
ATOM     10  C   UNL     1       2.121   6.861  18.226  0.00  0.00    +0.000 A 
ATOM     11  C   UNL     1       1.969   5.480  18.355  0.00  0.00    +0.000 A 
ATOM     12  C   UNL     1       1.651   4.890  19.591  0.00  0.00    +0.000 A 
ATOM     13  C   UNL     1       1.492   5.730  20.701  0.00  0.00    +0.000 A 
ATOM     14  C   UNL     1       1.646   7.117  20.573  0.00  0.00    +0.000 A 
ENDBRANCH   1  12
BRANCH   6  15
ATOM     15  S   UNL     1       3.451   2.174  18.277  0.00  0.00    +0.000 S 
ATOM     16  O   UNL     1       4.210   0.966  18.511  0.00  0.00    +0.000 OA
ATOM     17  O   UNL     1       2.406   2.184  17.267  0.00  0.00    +0.000 OA
BRANCH  15  18
ATOM     18  C   UNL     1       4.599   3.463  17.855  0.00  0.00    +0.000 A 
ATOM     19  C   UNL     1       5.293   4.123  18.876  0.00  0.00    +0.000 A 
ATOM     20  C   UNL     1       6.184   5.148  18.555  0.00  0.00    +0.000 A 
ATOM     21  C   UNL     1       6.395   5.490  17.219  0.00  0.00    +0.000 A 
ATOM     22 CL   UNL     1       7.447   6.793  16.829  0.00  0.00    +0.000 Cl
ATOM     23  C   UNL     1       5.749   4.790  16.198  0.00  0.00    +0.000 A 
ATOM     24  C   UNL     1       4.851   3.767  16.513  0.00  0.00    +0.000 A 
ENDBRANCH  15  18
ENDBRANCH   6  15
TORSDOF 3
ENDMDL
MODEL 6
REMARK VINA RESULT:      -7.5      0.955      1.484
REMARK  Name = 
REMARK  4 active torsions:
REMARK  status: ('A' for Active; 'I' for Inactive)
REMARK    1  A    between atoms: C_1  and  C_2
REMARK    2  A    between atoms: C_5  and  C_6
REMARK    3  A    between atoms: N_11  and  S_12
REMARK    4  A    between atoms: S_12  and  C_15
REMARK                            x       y       z     vdW  Elec       q    Type
REMARK                         _______ _______ _______ _____ _____    ______ ____
ROOT
ATOM      1  C   UNL     1       1.516   3.382  19.776  0.00  0.00    +0.000 C 
ATOM      2  C   UNL     1       1.065   2.995  21.203  0.00  0.00    +0.000 C 
ATOM      3  N   UNL     1       2.299   2.691  21.900  0.00  0.00    +0.000 N 
ATOM      4  C   UNL     1       3.304   2.387  21.007  0.00  0.00    +0.000 C 
ATOM      5  O   UNL     1       4.413   1.985  21.292  0.00  0.00    +0.000 OA
ATOM      6  N   UNL     1       2.806   2.667  19.730  0.00  0.00    +0.000 N 
ATOM      7  H   UNL     1       2.407   2.512  22.887  0.00  0.00    +0.000 HD
ENDROOT
BRANCH   1  12
ATOM      8  C   UNL     1       2.088   9.169  19.171  0.00  0.00    +0.000 C 
ATOM      9  C   UNL     1       1.939   7.687  19.335  0.00  0.00    +0.000 A 
ATOM     10  C   UNL     1       1.664   7.134  20.585  0.00  0.00    +0.000 A 
ATOM     11  C   UNL     1       1.534   5.753  20.728  0.00  0.00    +0.000 A 
ATOM     12  C   UNL     1       1.675   4.886  19.631  0.00  0.00    +0.000 A 
ATOM     13  C   UNL     1       1.949   5.449  18.377  0.00  0.00    +0.000 A 
ATOM     14  C   UNL     1       2.079   6.836  18.232  0.00  0.00    +0.000 A 
ENDBRANCH   1  12
BRANCH   6  15
ATOM     15  S   UNL     1       3.446   2.163  18.292  0.00  0.00    +0.000 S 
ATOM     16  O   UNL     1       4.223   0.966  18.521  0.00  0.00    +0.000 OA
ATOM     17  O   UNL     1       2.385   2.155  17.297  0.00  0.00    +0.000 OA
BRANCH  15  18
ATOM     18  C   UNL     1       4.571   3.465  17.846  0.00  0.00    +0.000 A 
ATOM     19  C   UNL     1       4.677   3.847  16.504  0.00  0.00    +0.000 A 
ATOM     20  C   UNL     1       5.570   4.857  16.143  0.00  0.00    +0.000 A 
ATOM     21  C   UNL     1       6.330   5.494  17.124  0.00  0.00    +0.000 A 
ATOM     22 CL   UNL     1       7.473   6.697  16.670  0.00  0.00    +0.000 Cl
ATOM     23  C   UNL     1       6.178   5.154  18.470  0.00  0.00    +0.000 A 
ATOM     24  C   UNL     1       5.290   4.140  18.837  0.00  0.00    +0.000 A 
ENDBRANCH  15  18
ENDBRANCH   6  15
TORSDOF 3
ENDMDL
MODEL 7
REMARK VINA RESULT:      -7.5      0.963      1.794
REMARK  Name = 
REMARK  4 active torsions:
REMARK  status: ('A' for Active; 'I' for Inactive)
REMARK    1  A    between atoms: C_1  and  C_2
REMARK    2  A    between atoms: C_5  and  C_6
REMARK    3  A    between atoms: N_11  and  S_12
REMARK    4  A    between atoms: S_12  and  C_15
REMARK                            x       y       z     vdW  Elec       q    Type
REMARK                         _______ _______ _______ _____ _____    ______ ____
ROOT
ATOM      1  C   UNL     1       1.506   3.360  19.787  0.00  0.00    +0.000 C 
ATOM      2  C   UNL     1       1.065   2.965  21.215  0.00  0.00    +0.000 C 
ATOM      3  N   UNL     1       2.306   2.676  21.907  0.00  0.00    +0.000 N 
ATOM      4  C   UNL     1       3.311   2.385  21.009  0.00  0.00    +0.000 C 
ATOM      5  O   UNL     1       4.426   1.997  21.289  0.00  0.00    +0.000 OA
ATOM      6  N   UNL     1       2.804   2.661  19.734  0.00  0.00    +0.000 N 
ATOM      7  H   UNL     1       2.420   2.498  22.893  0.00  0.00    +0.000 HD
ENDROOT
BRANCH   1  12
ATOM      8  C   UNL     1       2.078   9.155  19.273  0.00  0.00    +0.000 C 
ATOM      9  C   UNL     1       1.934   7.668  19.396  0.00  0.00    +0.000 A 
ATOM     10  C   UNL     1       2.085   6.845  18.281  0.00  0.00    +0.000 A 
ATOM     11  C   UNL     1       1.942   5.463  18.405  0.00  0.00    +0.000 A 
ATOM     12  C   UNL     1       1.644   4.865  19.642  0.00  0.00    +0.000 A 
ATOM     13  C   UNL     1       1.496   5.699  20.759  0.00  0.00    +0.000 A 
ATOM     14  C   UNL     1       1.640   7.087  20.635  0.00  0.00    +0.000 A 
ENDBRANCH   1  12
BRANCH   6  15
ATOM     15  S   UNL     1       3.444   2.166  18.293  0.00  0.00    +0.000 S 
ATOM     16  O   UNL     1       4.223   0.969  18.514  0.00  0.00    +0.000 OA
ATOM     17  O   UNL     1       2.383   2.163  17.299  0.00  0.00    +0.000 OA
BRANCH  15  18
ATOM     18  C   UNL     1       4.567   3.472  17.855  0.00  0.00    +0.000 A 
ATOM     19  C   UNL     1       4.675   3.860  16.514  0.00  0.00    +0.000 A 
ATOM     20  C   UNL     1       5.566   4.874  16.159  0.00  0.00    +0.000 A 
ATOM     21  C   UNL     1       6.323   5.508  17.144  0.00  0.00    +0.000 A 
ATOM     22 CL   UNL     1       7.465   6.715  16.697  0.00  0.00    +0.000 Cl
ATOM     23  C   UNL     1       6.170   5.162  18.489  0.00  0.00    +0.000 A 
ATOM     24  C   UNL     1       5.283   4.145  18.850  0.00  0.00    +0.000 A 
ENDBRANCH  15  18
ENDBRANCH   6  15
TORSDOF 3
ENDMDL
MODEL 8
REMARK VINA RESULT:      -7.4      2.056      4.243
REMARK  Name = 
REMARK  4 active torsions:
REMARK  status: ('A' for Active; 'I' for Inactive)
REMARK    1  A    between atoms: C_1  and  C_2
REMARK    2  A    between atoms: C_5  and  C_6
REMARK    3  A    between atoms: N_11  and  S_12
REMARK    4  A    between atoms: S_12  and  C_15
REMARK                            x       y       z     vdW  Elec       q    Type
REMARK                         _______ _______ _______ _____ _____    ______ ____
ROOT
ATOM      1  C   UNL     1       3.932   2.891  19.371  0.00  0.00    +0.000 C 
ATOM      2  C   UNL     1       3.856   1.574  18.565  0.00  0.00    +0.000 C 
ATOM      3  N   UNL     1       2.695   1.742  17.712  0.00  0.00    +0.000 N 
ATOM      4  C   UNL     1       1.848   2.702  18.222  0.00  0.00    +0.000 C 
ATOM      5  O   UNL     1       0.748   2.983  17.792  0.00  0.00    +0.000 OA
ATOM      6  N   UNL     1       2.518   3.303  19.294  0.00  0.00    +0.000 N 
ATOM      7  H   UNL     1       2.402   1.133  16.963  0.00  0.00    +0.000 HD
ENDROOT
BRANCH   1  12
ATOM      8  C   UNL     1       7.499   6.758  16.819  0.00  0.00    +0.000 C 
ATOM      9  C   UNL     1       6.586   5.770  17.482  0.00  0.00    +0.000 A 
ATOM     10  C   UNL     1       6.449   5.749  18.869  0.00  0.00    +0.000 A 
ATOM     11  C   UNL     1       5.602   4.822  19.476  0.00  0.00    +0.000 A 
ATOM     12  C   UNL     1       4.870   3.891  18.717  0.00  0.00    +0.000 A 
ATOM     13  C   UNL     1       5.012   3.920  17.323  0.00  0.00    +0.000 A 
ATOM     14  C   UNL     1       5.862   4.852  16.712  0.00  0.00    +0.000 A 
ENDBRANCH   1  12
BRANCH   6  15
ATOM     15  S   UNL     1       1.845   4.253  20.466  0.00  0.00    +0.000 S 
ATOM     16  O   UNL     1       0.450   3.901  20.609  0.00  0.00    +0.000 OA
ATOM     17  O   UNL     1       2.717   4.230  21.629  0.00  0.00    +0.000 OA
BRANCH  15  18
ATOM     18  C   UNL     1       1.925   5.892  19.784  0.00  0.00    +0.000 A 
ATOM     19  C   UNL     1       1.637   6.989  20.605  0.00  0.00    +0.000 A 
ATOM     20  C   UNL     1       1.682   8.279  20.074  0.00  0.00    +0.000 A 
ATOM     21  C   UNL     1       2.037   8.467  18.738  0.00  0.00    +0.000 A 
ATOM     22 CL   UNL     1       2.032  10.052  18.070  0.00  0.00    +0.000 Cl
ATOM     23  C   UNL     1       2.383   7.377  17.936  0.00  0.00    +0.000 A 
ATOM     24  C   UNL     1       2.335   6.083  18.461  0.00  0.00    +0.000 A 
ENDBRANCH  15  18
ENDBRANCH   6  15
TORSDOF 3
ENDMDL
MODEL 9
REMARK VINA RESULT:      -7.4      2.092      4.384
REMARK  Name = 
REMARK  4 active torsions:
REMARK  status: ('A' for Active; 'I' for Inactive)
REMARK    1  A    between atoms: C_1  and  C_2
REMARK    2  A    between atoms: C_5  and  C_6
REMARK    3  A    between atoms: N_11  and  S_12
REMARK    4  A    between atoms: S_12  and  C_15
REMARK                            x       y       z     vdW  Elec       q    Type
REMARK                         _______ _______ _______ _____ _____    ______ ____
ROOT
ATOM      1  C   UNL     1       3.900   2.963  19.295  0.00  0.00    +0.000 C 
ATOM      2  C   UNL     1       3.800   1.662  18.466  0.00  0.00    +0.000 C 
ATOM      3  N   UNL     1       2.632   1.858  17.630  0.00  0.00    +0.000 N 
ATOM      4  C   UNL     1       1.800   2.817  18.168  0.00  0.00    +0.000 C 
ATOM      5  O   UNL     1       0.698   3.117  17.756  0.00  0.00    +0.000 OA
ATOM      6  N   UNL     1       2.489   3.390  19.243  0.00  0.00    +0.000 N 
ATOM      7  H   UNL     1       2.324   1.266  16.874  0.00  0.00    +0.000 HD
ENDROOT
BRANCH   1  12
ATOM      8  C   UNL     1       7.563   6.806  16.847  0.00  0.00    +0.000 C 
ATOM      9  C   UNL     1       6.622   5.817  17.466  0.00  0.00    +0.000 A 
ATOM     10  C   UNL     1       5.919   4.912  16.673  0.00  0.00    +0.000 A 
ATOM     11  C   UNL     1       5.041   4.000  17.259  0.00  0.00    +0.000 A 
ATOM     12  C   UNL     1       4.841   3.966  18.650  0.00  0.00    +0.000 A 
ATOM     13  C   UNL     1       5.553   4.878  19.441  0.00  0.00    +0.000 A 
ATOM     14  C   UNL     1       6.435   5.793  18.854  0.00  0.00    +0.000 A 
ENDBRANCH   1  12
BRANCH   6  15
ATOM     15  S   UNL     1       1.840   4.325  20.441  0.00  0.00    +0.000 S 
ATOM     16  O   UNL     1       0.447   3.973  20.605  0.00  0.00    +0.000 OA
ATOM     17  O   UNL     1       2.733   4.285  21.587  0.00  0.00    +0.000 OA
BRANCH  15  18
ATOM     18  C   UNL     1       1.910   5.973  19.781  0.00  0.00    +0.000 A 
ATOM     19  C   UNL     1       1.576   7.055  20.604  0.00  0.00    +0.000 A 
ATOM     20  C   UNL     1       1.612   8.352  20.089  0.00  0.00    +0.000 A 
ATOM     21  C   UNL     1       2.005   8.562  18.767  0.00  0.00    +0.000 A 
ATOM     22 CL   UNL     1       1.991  10.154  18.117  0.00  0.00    +0.000 Cl
ATOM     23  C   UNL     1       2.397   7.488  17.965  0.00  0.00    +0.000 A 
ATOM     24  C   UNL     1       2.357   6.187  18.473  0.00  0.00    +0.000 A 
ENDBRANCH  15  18
ENDBRANCH   6  15
TORSDOF 3
ENDMDL
