MODEL 1
REMARK VINA RESULT:      -7.4      0.000      0.000
REMARK  Name = 
REMARK  10 active torsions:
REMARK  status: ('A' for Active; 'I' for Inactive)
REMARK    1  A    between atoms: C_1  and  O_2
REMARK    2  A    between atoms: O_2  and  N_3
REMARK    3  A    between atoms: C_4  and  C_5
REMARK    4  A    between atoms: C_4  and  C_26
REMARK    5  A    between atoms: N_7  and  C_8
REMARK    6  A    between atoms: N_11  and  C_12
REMARK    7  A    between atoms: C_12  and  O_13
REMARK    8  A    between atoms: C_12  and  C_21
REMARK    9  A    between atoms: O_13  and  C_14
REMARK   10  A    between atoms: C_21  and  O_23
REMARK                            x       y       z     vdW  Elec       q    Type
REMARK                         _______ _______ _______ _____ _____    ______ ____
ROOT
ATOM      1  C   UNL     1       2.772   5.573  18.351  0.00  0.00    +0.000 C 
ATOM      2  C   UNL     1       2.480   5.175  19.790  0.00  0.00    +0.000 C 
ATOM      3  O   UNL     1       1.940   6.311  20.491  0.00  0.00    +0.000 OA
ATOM      4  N   UNL     1       1.732   7.330  19.531  0.00  0.00    +0.000 N 
ATOM      5  C   UNL     1       2.365   7.024  18.350  0.00  0.00    +0.000 C 
ATOM      6  O   UNL     1       2.618   7.817  17.447  0.00  0.00    +0.000 OA
ENDROOT
BRANCH   1   9
ATOM      7  C   UNL     1       4.774   4.326  17.501  0.00  0.00    +0.000 C 
ATOM      8  O   UNL     1       4.229   3.235  17.553  0.00  0.00    +0.000 OA
ATOM      9  N   UNL     1       4.155   5.494  17.903  0.00  0.00    +0.000 N 
ATOM     10  H   UNL     1       4.705   6.352  17.903  0.00  0.00    +0.000 HD
BRANCH   7  12
ATOM     11  N   UNL     1       7.268   4.645  17.802  0.00  0.00    +0.000 NA
ATOM     12  C   UNL     1       6.237   4.504  17.015  0.00  0.00    +0.000 C 
BRANCH  12  13
ATOM     13  C   UNL     1       6.544   4.501  15.580  0.00  0.00    +0.000 A 
ATOM     14  C   UNL     1       5.936   3.685  14.642  0.00  0.00    +0.000 A 
ATOM     15  S   UNL     1       6.569   3.993  13.082  0.00  0.00    +0.000 S 
ATOM     16  C   UNL     1       7.612   5.177  13.753  0.00  0.00    +0.000 A 
ATOM     17  N   UNL     1       8.483   5.852  12.998  0.00  0.00    +0.000 N 
ATOM     18  N   UNL     1       7.487   5.374  15.040  0.00  0.00    +0.000 NA
ATOM     19  H   UNL     1       8.453   5.808  11.988  0.00  0.00    +0.000 HD
ATOM     20  H   UNL     1       9.032   6.594  13.413  0.00  0.00    +0.000 HD
ENDBRANCH  12  13
BRANCH  11  22
ATOM     21  C   UNL     1       7.676   5.700  19.782  0.00  0.00    +0.000 C 
ATOM     22  O   UNL     1       6.937   4.653  19.159  0.00  0.00    +0.000 OA
ENDBRANCH  11  22
ENDBRANCH   7  12
ENDBRANCH   1   9
BRANCH   4  23
ATOM     23  C   UNL     1       1.653   8.701  20.031  0.00  0.00    +0.000 C 
BRANCH  23  24
ATOM     24  C   UNL     1       1.146   8.850  21.480  0.00  0.00    +0.000 C 
ATOM     25  O   UNL     1       1.748   9.432  22.373  0.00  0.00    +0.000 OA
BRANCH  24  26
ATOM     26  O   UNL     1      -0.090   8.310  21.684  0.00  0.00    +0.000 OA
ATOM     27  H   UNL     1      -0.556   8.779  22.411  0.00  0.00    +0.000 HD
ENDBRANCH  24  26
ENDBRANCH  23  24
BRANCH  23  28
ATOM     28  O   UNL     1       0.780   9.465  19.177  0.00  0.00    +0.000 OA
BRANCH  28  29
ATOM     29  C   UNL     1       1.016  10.809  19.070  0.00  0.00    +0.000 A 
ATOM     30  C   UNL     1       2.111  11.164  18.275  0.00  0.00    +0.000 A 
ATOM     31  C   UNL     1       2.478  12.507  18.129  0.00  0.00    +0.000 A 
ATOM     32  C   UNL     1       1.737  13.498  18.767  0.00  0.00    +0.000 A 
ATOM     33 CL   UNL     1       2.212  15.146  18.641  0.00  0.00    +0.000 Cl
ATOM     34  C   UNL     1       0.611  13.159  19.509  0.00  0.00    +0.000 A 
ATOM     35  C   UNL     1       0.240  11.818  19.643  0.00  0.00    +0.000 A 
ENDBRANCH  28  29
ENDBRANCH  23  28
ENDBRANCH   4  23
TORSDOF 9
ENDMDL
MODEL 2
REMARK VINA RESULT:      -7.2      4.995      9.545
REMARK  Name = 
REMARK  10 active torsions:
REMARK  status: ('A' for Active; 'I' for Inactive)
REMARK    1  A    between atoms: C_1  and  O_2
REMARK    2  A    between atoms: O_2  and  N_3
REMARK    3  A    between atoms: C_4  and  C_5
REMARK    4  A    between atoms: C_4  and  C_26
REMARK    5  A    between atoms: N_7  and  C_8
REMARK    6  A    between atoms: N_11  and  C_12
REMARK    7  A    between atoms: C_12  and  O_13
REMARK    8  A    between atoms: C_12  and  C_21
REMARK    9  A    between atoms: O_13  and  C_14
REMARK   10  A    between atoms: C_21  and  O_23
REMARK                            x       y       z     vdW  Elec       q    Type
REMARK                         _______ _______ _______ _____ _____    ______ ____
ROOT
ATOM      1  C   UNL     1       0.844   9.802  20.054  0.00  0.00    +0.000 C 
ATOM      2  C   UNL     1       1.027   9.140  21.411  0.00  0.00    +0.000 C 
ATOM      3  O   UNL     1       1.702   7.881  21.232  0.00  0.00    +0.000 OA
ATOM      4  N   UNL     1       2.086   7.807  19.871  0.00  0.00    +0.000 N 
ATOM      5  C   UNL     1       1.456   8.779  19.133  0.00  0.00    +0.000 C 
ATOM      6  O   UNL     1       1.350   8.793  17.909  0.00  0.00    +0.000 OA
ENDROOT
BRANCH   1   9
ATOM      7  C   UNL     1      -0.912  11.160  18.888  0.00  0.00    +0.000 C 
ATOM      8  O   UNL     1      -0.153  12.077  18.617  0.00  0.00    +0.000 OA
ATOM      9  N   UNL     1      -0.520  10.049  19.610  0.00  0.00    +0.000 N 
ATOM     10  H   UNL     1      -1.234   9.367  19.862  0.00  0.00    +0.000 HD
BRANCH   7  12
ATOM     11  N   UNL     1      -2.913  10.511  17.478  0.00  0.00    +0.000 NA
ATOM     12  C   UNL     1      -2.410  11.173  18.484  0.00  0.00    +0.000 C 
BRANCH  12  13
ATOM     13  C   UNL     1      -3.379  11.951  19.264  0.00  0.00    +0.000 A 
ATOM     14  C   UNL     1      -4.726  12.070  18.964  0.00  0.00    +0.000 A 
ATOM     15  S   UNL     1      -5.511  13.056  20.121  0.00  0.00    +0.000 S 
ATOM     16  C   UNL     1      -4.018  13.269  20.935  0.00  0.00    +0.000 A 
ATOM     17  N   UNL     1      -3.916  14.035  22.025  0.00  0.00    +0.000 N 
ATOM     18  N   UNL     1      -2.999  12.628  20.422  0.00  0.00    +0.000 NA
ATOM     19  H   UNL     1      -4.736  14.387  22.502  0.00  0.00    +0.000 HD
ATOM     20  H   UNL     1      -3.036  14.080  22.523  0.00  0.00    +0.000 HD
ENDBRANCH  12  13
BRANCH  11  22
ATOM     21  C   UNL     1      -2.419   9.695  15.406  0.00  0.00    +0.000 C 
ATOM     22  O   UNL     1      -1.961   9.790  16.753  0.00  0.00    +0.000 OA
ENDBRANCH  11  22
ENDBRANCH   7  12
ENDBRANCH   1   9
BRANCH   4  23
ATOM     23  C   UNL     1       2.346   6.474  19.331  0.00  0.00    +0.000 C 
BRANCH  23  24
ATOM     24  C   UNL     1       1.805   5.300  20.173  0.00  0.00    +0.000 C 
ATOM     25  O   UNL     1       0.969   4.493  19.788  0.00  0.00    +0.000 OA
BRANCH  24  26
ATOM     26  O   UNL     1       2.388   5.195  21.401  0.00  0.00    +0.000 OA
ATOM     27  H   UNL     1       3.349   5.010  21.313  0.00  0.00    +0.000 HD
ENDBRANCH  24  26
ENDBRANCH  23  24
BRANCH  23  28
ATOM     28  O   UNL     1       3.767   6.293  19.183  0.00  0.00    +0.000 OA
BRANCH  28  29
ATOM     29  C   UNL     1       4.231   5.885  17.962  0.00  0.00    +0.000 A 
ATOM     30  C   UNL     1       4.198   4.503  17.740  0.00  0.00    +0.000 A 
ATOM     31  C   UNL     1       4.690   3.963  16.546  0.00  0.00    +0.000 A 
ATOM     32  C   UNL     1       5.202   4.808  15.566  0.00  0.00    +0.000 A 
ATOM     33 CL   UNL     1       5.863   4.153  14.120  0.00  0.00    +0.000 Cl
ATOM     34  C   UNL     1       5.183   6.186  15.752  0.00  0.00    +0.000 A 
ATOM     35  C   UNL     1       4.680   6.724  16.941  0.00  0.00    +0.000 A 
ENDBRANCH  28  29
ENDBRANCH  23  28
ENDBRANCH   4  23
TORSDOF 9
ENDMDL
MODEL 3
REMARK VINA RESULT:      -7.1      5.149      9.694
REMARK  Name = 
REMARK  10 active torsions:
REMARK  status: ('A' for Active; 'I' for Inactive)
REMARK    1  A    between atoms: C_1  and  O_2
REMARK    2  A    between atoms: O_2  and  N_3
REMARK    3  A    between atoms: C_4  and  C_5
REMARK    4  A    between atoms: C_4  and  C_26
REMARK    5  A    between atoms: N_7  and  C_8
REMARK    6  A    between atoms: N_11  and  C_12
REMARK    7  A    between atoms: C_12  and  O_13
REMARK    8  A    between atoms: C_12  and  C_21
REMARK    9  A    between atoms: O_13  and  C_14
REMARK   10  A    between atoms: C_21  and  O_23
REMARK                            x       y       z     vdW  Elec       q    Type
REMARK                         _______ _______ _______ _____ _____    ______ ____
ROOT
ATOM      1  C   UNL     1       0.706   9.908  20.041  0.00  0.00    +0.000 C 
ATOM      2  C   UNL     1       0.864   9.235  21.396  0.00  0.00    +0.000 C 
ATOM      3  O   UNL     1       1.573   7.993  21.223  0.00  0.00    +0.000 OA
ATOM      4  N   UNL     1       1.999   7.944  19.874  0.00  0.00    +0.000 N 
ATOM      5  C   UNL     1       1.368   8.909  19.127  0.00  0.00    +0.000 C 
ATOM      6  O   UNL     1       1.298   8.934  17.902  0.00  0.00    +0.000 OA
ENDROOT
BRANCH   1   9
ATOM      7  C   UNL     1      -1.092  11.312  19.001  0.00  0.00    +0.000 C 
ATOM      8  O   UNL     1      -0.395  12.310  18.925  0.00  0.00    +0.000 OA
ATOM      9  N   UNL     1      -0.651  10.128  19.559  0.00  0.00    +0.000 N 
ATOM     10  H   UNL     1      -1.320   9.365  19.656  0.00  0.00    +0.000 HD
BRANCH   7  12
ATOM     11  N   UNL     1      -2.983  10.661  17.446  0.00  0.00    +0.000 NA
ATOM     12  C   UNL     1      -2.565  11.286  18.512  0.00  0.00    +0.000 C 
BRANCH  12  13
ATOM     13  C   UNL     1      -3.609  11.979  19.277  0.00  0.00    +0.000 A 
ATOM     14  C   UNL     1      -3.385  12.744  20.410  0.00  0.00    +0.000 A 
ATOM     15  S   UNL     1      -4.858  13.386  20.997  0.00  0.00    +0.000 S 
ATOM     16  C   UNL     1      -5.694  12.602  19.723  0.00  0.00    +0.000 A 
ATOM     17  N   UNL     1      -7.022  12.683  19.602  0.00  0.00    +0.000 N 
ATOM     18  N   UNL     1      -4.944  11.935  18.883  0.00  0.00    +0.000 NA
ATOM     19  H   UNL     1      -7.565  13.331  20.157  0.00  0.00    +0.000 HD
ATOM     20  H   UNL     1      -7.475  12.269  18.797  0.00  0.00    +0.000 HD
ENDBRANCH  12  13
BRANCH  11  22
ATOM     21  C   UNL     1      -2.462   9.706  15.442  0.00  0.00    +0.000 C 
ATOM     22  O   UNL     1      -1.963  10.020  16.739  0.00  0.00    +0.000 OA
ENDBRANCH  11  22
ENDBRANCH   7  12
ENDBRANCH   1   9
BRANCH   4  23
ATOM     23  C   UNL     1       2.305   6.624  19.328  0.00  0.00    +0.000 C 
BRANCH  23  24
ATOM     24  C   UNL     1       1.815   5.427  20.169  0.00  0.00    +0.000 C 
ATOM     25  O   UNL     1       0.946   4.638  19.820  0.00  0.00    +0.000 OA
BRANCH  24  26
ATOM     26  O   UNL     1       2.482   5.280  21.349  0.00  0.00    +0.000 OA
ATOM     27  H   UNL     1       2.604   6.151  21.788  0.00  0.00    +0.000 HD
ENDBRANCH  24  26
ENDBRANCH  23  24
BRANCH  23  28
ATOM     28  O   UNL     1       3.731   6.497  19.170  0.00  0.00    +0.000 OA
BRANCH  28  29
ATOM     29  C   UNL     1       4.192   5.874  18.042  0.00  0.00    +0.000 A 
ATOM     30  C   UNL     1       4.737   6.721  17.070  0.00  0.00    +0.000 A 
ATOM     31  C   UNL     1       5.197   6.203  15.854  0.00  0.00    +0.000 A 
ATOM     32  C   UNL     1       5.128   4.833  15.616  0.00  0.00    +0.000 A 
ATOM     33 CL   UNL     1       5.637   4.192  14.104  0.00  0.00    +0.000 Cl
ATOM     34  C   UNL     1       4.645   3.977  16.601  0.00  0.00    +0.000 A 
ATOM     35  C   UNL     1       4.197   4.496  17.819  0.00  0.00    +0.000 A 
ENDBRANCH  28  29
ENDBRANCH  23  28
ENDBRANCH   4  23
TORSDOF 9
ENDMDL
MODEL 4
REMARK VINA RESULT:      -7.0      4.216      8.676
REMARK  Name = 
REMARK  10 active torsions:
REMARK  status: ('A' for Active; 'I' for Inactive)
REMARK    1  A    between atoms: C_1  and  O_2
REMARK    2  A    between atoms: O_2  and  N_3
REMARK    3  A    between atoms: C_4  and  C_5
REMARK    4  A    between atoms: C_4  and  C_26
REMARK    5  A    between atoms: N_7  and  C_8
REMARK    6  A    between atoms: N_11  and  C_12
REMARK    7  A    between atoms: C_12  and  O_13
REMARK    8  A    between atoms: C_12  and  C_21
REMARK    9  A    between atoms: O_13  and  C_14
REMARK   10  A    between atoms: C_21  and  O_23
REMARK                            x       y       z     vdW  Elec       q    Type
REMARK                         _______ _______ _______ _____ _____    ______ ____
ROOT
ATOM      1  C   UNL     1       1.888   8.003  20.386  0.00  0.00    +0.000 C 
ATOM      2  C   UNL     1       0.978   7.094  21.198  0.00  0.00    +0.000 C 
ATOM      3  O   UNL     1       1.177   5.732  20.775  0.00  0.00    +0.000 OA
ATOM      4  N   UNL     1       2.266   5.734  19.871  0.00  0.00    +0.000 N 
ATOM      5  C   UNL     1       2.571   7.014  19.477  0.00  0.00    +0.000 C 
ATOM      6  O   UNL     1       3.250   7.320  18.500  0.00  0.00    +0.000 OA
ENDROOT
BRANCH   1   9
ATOM      7  C   UNL     1       0.648  10.155  20.045  0.00  0.00    +0.000 C 
ATOM      8  O   UNL     1       0.532  10.383  21.238  0.00  0.00    +0.000 OA
ATOM      9  N   UNL     1       1.252   9.014  19.553  0.00  0.00    +0.000 N 
ATOM     10  H   UNL     1       1.237   8.860  18.546  0.00  0.00    +0.000 HD
BRANCH   7  12
ATOM     11  N   UNL     1       0.779  12.035  18.353  0.00  0.00    +0.000 NA
ATOM     12  C   UNL     1       0.087  11.108  18.956  0.00  0.00    +0.000 C 
BRANCH  12  13
ATOM     13  C   UNL     1      -1.310  10.991  18.521  0.00  0.00    +0.000 A 
ATOM     14  C   UNL     1      -1.798  10.005  17.680  0.00  0.00    +0.000 A 
ATOM     15  S   UNL     1      -3.476  10.216  17.423  0.00  0.00    +0.000 S 
ATOM     16  C   UNL     1      -3.444  11.603  18.430  0.00  0.00    +0.000 A 
ATOM     17  N   UNL     1      -4.541  12.332  18.653  0.00  0.00    +0.000 N 
ATOM     18  N   UNL     1      -2.283  11.885  18.964  0.00  0.00    +0.000 NA
ATOM     19  H   UNL     1      -5.456  12.010  18.370  0.00  0.00    +0.000 HD
ATOM     20  H   UNL     1      -4.502  13.101  19.310  0.00  0.00    +0.000 HD
ENDBRANCH  12  13
BRANCH  11  22
ATOM     21  C   UNL     1       2.277  13.412  19.382  0.00  0.00    +0.000 C 
ATOM     22  O   UNL     1       2.100  12.124  18.799  0.00  0.00    +0.000 OA
ENDBRANCH  11  22
ENDBRANCH   7  12
ENDBRANCH   1   9
BRANCH   4  23
ATOM     23  C   UNL     1       2.364   4.601  18.953  0.00  0.00    +0.000 C 
BRANCH  23  24
ATOM     24  C   UNL     1       1.336   3.472  19.181  0.00  0.00    +0.000 C 
ATOM     25  O   UNL     1       0.664   2.953  18.299  0.00  0.00    +0.000 OA
BRANCH  24  26
ATOM     26  O   UNL     1       1.271   3.048  20.475  0.00  0.00    +0.000 OA
ATOM     27  H   UNL     1       1.985   2.399  20.663  0.00  0.00    +0.000 HD
ENDBRANCH  24  26
ENDBRANCH  23  24
BRANCH  23  28
ATOM     28  O   UNL     1       3.680   4.025  19.052  0.00  0.00    +0.000 OA
BRANCH  28  29
ATOM     29  C   UNL     1       4.518   4.170  17.979  0.00  0.00    +0.000 A 
ATOM     30  C   UNL     1       5.840   4.505  18.292  0.00  0.00    +0.000 A 
ATOM     31  C   UNL     1       6.777   4.725  17.276  0.00  0.00    +0.000 A 
ATOM     32  C   UNL     1       6.394   4.596  15.944  0.00  0.00    +0.000 A 
ATOM     33 CL   UNL     1       7.521   4.921  14.686  0.00  0.00    +0.000 Cl
ATOM     34  C   UNL     1       5.098   4.204  15.625  0.00  0.00    +0.000 A 
ATOM     35  C   UNL     1       4.168   3.973  16.642  0.00  0.00    +0.000 A 
ENDBRANCH  28  29
ENDBRANCH  23  28
ENDBRANCH   4  23
TORSDOF 9
ENDMDL
MODEL 5
REMARK VINA RESULT:      -6.9      4.310      8.452
REMARK  Name = 
REMARK  10 active torsions:
REMARK  status: ('A' for Active; 'I' for Inactive)
REMARK    1  A    between atoms: C_1  and  O_2
REMARK    2  A    between atoms: O_2  and  N_3
REMARK    3  A    between atoms: C_4  and  C_5
REMARK    4  A    between atoms: C_4  and  C_26
REMARK    5  A    between atoms: N_7  and  C_8
REMARK    6  A    between atoms: N_11  and  C_12
REMARK    7  A    between atoms: C_12  and  O_13
REMARK    8  A    between atoms: C_12  and  C_21
REMARK    9  A    between atoms: O_13  and  C_14
REMARK   10  A    between atoms: C_21  and  O_23
REMARK                            x       y       z     vdW  Elec       q    Type
REMARK                         _______ _______ _______ _____ _____    ______ ____
ROOT
ATOM      1  C   UNL     1       1.817   8.070  20.397  0.00  0.00    +0.000 C 
ATOM      2  C   UNL     1       0.876   7.139  21.146  0.00  0.00    +0.000 C 
ATOM      3  O   UNL     1       1.112   5.786  20.713  0.00  0.00    +0.000 OA
ATOM      4  N   UNL     1       2.247   5.813  19.868  0.00  0.00    +0.000 N 
ATOM      5  C   UNL     1       2.558   7.103  19.510  0.00  0.00    +0.000 C 
ATOM      6  O   UNL     1       3.283   7.431  18.576  0.00  0.00    +0.000 OA
ENDROOT
BRANCH   1   9
ATOM      7  C   UNL     1       0.403  10.104  20.012  0.00  0.00    +0.000 C 
ATOM      8  O   UNL     1       0.060  10.199  21.180  0.00  0.00    +0.000 OA
ATOM      9  N   UNL     1       1.214   9.088  19.548  0.00  0.00    +0.000 N 
ATOM     10  H   UNL     1       1.389   9.035  18.545  0.00  0.00    +0.000 HD
BRANCH   7  12
ATOM     11  N   UNL     1       0.620  12.110  18.481  0.00  0.00    +0.000 NA
ATOM     12  C   UNL     1      -0.077  11.099  18.921  0.00  0.00    +0.000 C 
BRANCH  12  13
ATOM     13  C   UNL     1      -1.390  10.925  18.289  0.00  0.00    +0.000 A 
ATOM     14  C   UNL     1      -2.580  11.429  18.786  0.00  0.00    +0.000 A 
ATOM     15  S   UNL     1      -3.880  11.013  17.753  0.00  0.00    +0.000 S 
ATOM     16  C   UNL     1      -2.786  10.186  16.726  0.00  0.00    +0.000 A 
ATOM     17  N   UNL     1      -3.201   9.545  15.630  0.00  0.00    +0.000 N 
ATOM     18  N   UNL     1      -1.528  10.236  17.086  0.00  0.00    +0.000 NA
ATOM     19  H   UNL     1      -4.143   9.654  15.279  0.00  0.00    +0.000 HD
ATOM     20  H   UNL     1      -2.519   9.129  15.008  0.00  0.00    +0.000 HD
ENDBRANCH  12  13
BRANCH  11  22
ATOM     21  C   UNL     1       2.676  13.077  18.287  0.00  0.00    +0.000 C 
ATOM     22  O   UNL     1       1.859  12.250  19.111  0.00  0.00    +0.000 OA
ENDBRANCH  11  22
ENDBRANCH   7  12
ENDBRANCH   1   9
BRANCH   4  23
ATOM     23  C   UNL     1       2.405   4.696  18.940  0.00  0.00    +0.000 C 
BRANCH  23  24
ATOM     24  C   UNL     1       1.366   3.564  19.081  0.00  0.00    +0.000 C 
ATOM     25  O   UNL     1       0.749   3.064  18.149  0.00  0.00    +0.000 OA
BRANCH  24  26
ATOM     26  O   UNL     1       1.221   3.113  20.359  0.00  0.00    +0.000 OA
ATOM     27  H   UNL     1       0.326   2.730  20.491  0.00  0.00    +0.000 HD
ENDBRANCH  24  26
ENDBRANCH  23  24
BRANCH  23  28
ATOM     28  O   UNL     1       3.713   4.118  19.114  0.00  0.00    +0.000 OA
BRANCH  28  29
ATOM     29  C   UNL     1       4.637   4.330  18.127  0.00  0.00    +0.000 A 
ATOM     30  C   UNL     1       4.129   4.337  16.822  0.00  0.00    +0.000 A 
ATOM     31  C   UNL     1       4.986   4.498  15.727  0.00  0.00    +0.000 A 
ATOM     32  C   UNL     1       6.351   4.668  15.938  0.00  0.00    +0.000 A 
ATOM     33 CL   UNL     1       7.421   4.809  14.599  0.00  0.00    +0.000 Cl
ATOM     34  C   UNL     1       6.856   4.724  17.233  0.00  0.00    +0.000 A 
ATOM     35  C   UNL     1       5.997   4.575  18.325  0.00  0.00    +0.000 A 
ENDBRANCH  28  29
ENDBRANCH  23  28
ENDBRANCH   4  23
TORSDOF 9
ENDMDL
MODEL 6
REMARK VINA RESULT:      -6.9      4.329      8.390
REMARK  Name = 
REMARK  10 active torsions:
REMARK  status: ('A' for Active; 'I' for Inactive)
REMARK    1  A    between atoms: C_1  and  O_2
REMARK    2  A    between atoms: O_2  and  N_3
REMARK    3  A    between atoms: C_4  and  C_5
REMARK    4  A    between atoms: C_4  and  C_26
REMARK    5  A    between atoms: N_7  and  C_8
REMARK    6  A    between atoms: N_11  and  C_12
REMARK    7  A    between atoms: C_12  and  O_13
REMARK    8  A    between atoms: C_12  and  C_21
REMARK    9  A    between atoms: O_13  and  C_14
REMARK   10  A    between atoms: C_21  and  O_23
REMARK                            x       y       z     vdW  Elec       q    Type
REMARK                         _______ _______ _______ _____ _____    ______ ____
ROOT
ATOM      1  C   UNL     1       1.798   8.087  20.569  0.00  0.00    +0.000 C 
ATOM      2  C   UNL     1       0.816   7.190  21.307  0.00  0.00    +0.000 C 
ATOM      3  O   UNL     1       0.976   5.837  20.841  0.00  0.00    +0.000 OA
ATOM      4  N   UNL     1       2.102   5.824  19.984  0.00  0.00    +0.000 N 
ATOM      5  C   UNL     1       2.478   7.103  19.653  0.00  0.00    +0.000 C 
ATOM      6  O   UNL     1       3.211   7.415  18.718  0.00  0.00    +0.000 OA
ENDROOT
BRANCH   1   9
ATOM      7  C   UNL     1       0.893  10.401  20.233  0.00  0.00    +0.000 C 
ATOM      8  O   UNL     1       0.955  10.695  21.416  0.00  0.00    +0.000 OA
ATOM      9  N   UNL     1       1.242   9.155  19.750  0.00  0.00    +0.000 N 
ATOM     10  H   UNL     1       1.085   8.963  18.761  0.00  0.00    +0.000 HD
BRANCH   7  12
ATOM     11  N   UNL     1      -0.701  11.203  18.436  0.00  0.00    +0.000 NA
ATOM     12  C   UNL     1       0.371  11.388  19.155  0.00  0.00    +0.000 C 
BRANCH  12  13
ATOM     13  C   UNL     1       1.084  12.646  18.900  0.00  0.00    +0.000 A 
ATOM     14  C   UNL     1       0.570  13.910  19.138  0.00  0.00    +0.000 A 
ATOM     15  S   UNL     1       1.716  15.108  18.715  0.00  0.00    +0.000 S 
ATOM     16  C   UNL     1       2.808  13.878  18.235  0.00  0.00    +0.000 A 
ATOM     17  N   UNL     1       4.011  14.167  17.729  0.00  0.00    +0.000 N 
ATOM     18  N   UNL     1       2.387  12.651  18.406  0.00  0.00    +0.000 NA
ATOM     19  H   UNL     1       4.385  15.106  17.757  0.00  0.00    +0.000 HD
ATOM     20  H   UNL     1       4.659  13.417  17.524  0.00  0.00    +0.000 HD
ENDBRANCH  12  13
BRANCH  11  22
ATOM     21  C   UNL     1      -2.424   9.864  17.773  0.00  0.00    +0.000 C 
ATOM     22  O   UNL     1      -1.348   9.994  18.699  0.00  0.00    +0.000 OA
ENDBRANCH  11  22
ENDBRANCH   7  12
ENDBRANCH   1   9
BRANCH   4  23
ATOM     23  C   UNL     1       2.191   4.722  19.028  0.00  0.00    +0.000 C 
BRANCH  23  24
ATOM     24  C   UNL     1       1.113   3.629  19.174  0.00  0.00    +0.000 C 
ATOM     25  O   UNL     1       0.599   3.027  18.239  0.00  0.00    +0.000 OA
BRANCH  24  26
ATOM     26  O   UNL     1       0.803   3.337  20.469  0.00  0.00    +0.000 OA
ATOM     27  H   UNL     1       0.037   3.874  20.771  0.00  0.00    +0.000 HD
ENDBRANCH  24  26
ENDBRANCH  23  24
BRANCH  23  28
ATOM     28  O   UNL     1       3.480   4.090  19.155  0.00  0.00    +0.000 OA
BRANCH  28  29
ATOM     29  C   UNL     1       4.353   4.214  18.109  0.00  0.00    +0.000 A 
ATOM     30  C   UNL     1       5.657   4.582  18.457  0.00  0.00    +0.000 A 
ATOM     31  C   UNL     1       6.627   4.785  17.467  0.00  0.00    +0.000 A 
ATOM     32  C   UNL     1       6.294   4.604  16.128  0.00  0.00    +0.000 A 
ATOM     33 CL   UNL     1       7.460   4.906  14.900  0.00  0.00    +0.000 Cl
ATOM     34  C   UNL     1       5.017   4.178  15.777  0.00  0.00    +0.000 A 
ATOM     35  C   UNL     1       4.055   3.965  16.768  0.00  0.00    +0.000 A 
ENDBRANCH  28  29
ENDBRANCH  23  28
ENDBRANCH   4  23
TORSDOF 9
ENDMDL
MODEL 7
REMARK VINA RESULT:      -6.8      4.080      8.465
REMARK  Name = 
REMARK  10 active torsions:
REMARK  status: ('A' for Active; 'I' for Inactive)
REMARK    1  A    between atoms: C_1  and  O_2
REMARK    2  A    between atoms: O_2  and  N_3
REMARK    3  A    between atoms: C_4  and  C_5
REMARK    4  A    between atoms: C_4  and  C_26
REMARK    5  A    between atoms: N_7  and  C_8
REMARK    6  A    between atoms: N_11  and  C_12
REMARK    7  A    between atoms: C_12  and  O_13
REMARK    8  A    between atoms: C_12  and  C_21
REMARK    9  A    between atoms: O_13  and  C_14
REMARK   10  A    between atoms: C_21  and  O_23
REMARK                            x       y       z     vdW  Elec       q    Type
REMARK                         _______ _______ _______ _____ _____    ______ ____
ROOT
ATOM      1  C   UNL     1       2.294   7.671  19.777  0.00  0.00    +0.000 C 
ATOM      2  C   UNL     1       1.413   6.562  20.333  0.00  0.00    +0.000 C 
ATOM      3  O   UNL     1       1.722   5.332  19.651  0.00  0.00    +0.000 OA
ATOM      4  N   UNL     1       2.846   5.585  18.829  0.00  0.00    +0.000 N 
ATOM      5  C   UNL     1       3.081   6.934  18.724  0.00  0.00    +0.000 C 
ATOM      6  O   UNL     1       3.779   7.475  17.871  0.00  0.00    +0.000 OA
ENDROOT
BRANCH   1   9
ATOM      7  C   UNL     1       1.002   9.820  19.819  0.00  0.00    +0.000 C 
ATOM      8  O   UNL     1       0.893   9.836  21.035  0.00  0.00    +0.000 OA
ATOM      9  N   UNL     1       1.627   8.795  19.135  0.00  0.00    +0.000 N 
ATOM     10  H   UNL     1       1.606   8.817  18.116  0.00  0.00    +0.000 HD
BRANCH   7  12
ATOM     11  N   UNL     1      -0.693  10.822  18.227  0.00  0.00    +0.000 NA
ATOM     12  C   UNL     1       0.410  10.934  18.915  0.00  0.00    +0.000 C 
BRANCH  12  13
ATOM     13  C   UNL     1       1.085  12.232  18.805  0.00  0.00    +0.000 A 
ATOM     14  C   UNL     1       0.550  13.441  19.219  0.00  0.00    +0.000 A 
ATOM     15  S   UNL     1       1.654  14.714  18.923  0.00  0.00    +0.000 S 
ATOM     16  C   UNL     1       2.759  13.586  18.257  0.00  0.00    +0.000 A 
ATOM     17  N   UNL     1       3.938  13.970  17.760  0.00  0.00    +0.000 N 
ATOM     18  N   UNL     1       2.371  12.336  18.280  0.00  0.00    +0.000 NA
ATOM     19  H   UNL     1       4.291  14.907  17.899  0.00  0.00    +0.000 HD
ATOM     20  H   UNL     1       4.597  13.270  17.442  0.00  0.00    +0.000 HD
ENDBRANCH  12  13
BRANCH  11  22
ATOM     21  C   UNL     1      -2.612   9.669  17.795  0.00  0.00    +0.000 C 
ATOM     22  O   UNL     1      -1.302   9.571  18.348  0.00  0.00    +0.000 OA
ENDBRANCH  11  22
ENDBRANCH   7  12
ENDBRANCH   1   9
BRANCH   4  23
ATOM     23  C   UNL     1       3.059   4.675  17.706  0.00  0.00    +0.000 C 
BRANCH  23  24
ATOM     24  C   UNL     1       2.110   3.461  17.646  0.00  0.00    +0.000 C 
ATOM     25  O   UNL     1       2.461   2.294  17.771  0.00  0.00    +0.000 OA
BRANCH  24  26
ATOM     26  O   UNL     1       0.799   3.801  17.490  0.00  0.00    +0.000 OA
ATOM     27  H   UNL     1       0.241   2.997  17.404  0.00  0.00    +0.000 HD
ENDBRANCH  24  26
ENDBRANCH  23  24
BRANCH  23  28
ATOM     28  O   UNL     1       4.410   4.177  17.751  0.00  0.00    +0.000 OA
BRANCH  28  29
ATOM     29  C   UNL     1       5.192   4.362  16.643  0.00  0.00    +0.000 A 
ATOM     30  C   UNL     1       6.461   4.900  16.888  0.00  0.00    +0.000 A 
ATOM     31  C   UNL     1       7.332   5.178  15.828  0.00  0.00    +0.000 A 
ATOM     32  C   UNL     1       6.939   4.903  14.522  0.00  0.00    +0.000 A 
ATOM     33 CL   UNL     1       7.977   5.294  13.208  0.00  0.00    +0.000 Cl
ATOM     34  C   UNL     1       5.705   4.312  14.273  0.00  0.00    +0.000 A 
ATOM     35  C   UNL     1       4.842   4.024  15.335  0.00  0.00    +0.000 A 
ENDBRANCH  28  29
ENDBRANCH  23  28
ENDBRANCH   4  23
TORSDOF 9
ENDMDL
MODEL 8
REMARK VINA RESULT:      -6.8      4.078      8.659
REMARK  Name = 
REMARK  10 active torsions:
REMARK  status: ('A' for Active; 'I' for Inactive)
REMARK    1  A    between atoms: C_1  and  O_2
REMARK    2  A    between atoms: O_2  and  N_3
REMARK    3  A    between atoms: C_4  and  C_5
REMARK    4  A    between atoms: C_4  and  C_26
REMARK    5  A    between atoms: N_7  and  C_8
REMARK    6  A    between atoms: N_11  and  C_12
REMARK    7  A    between atoms: C_12  and  O_13
REMARK    8  A    between atoms: C_12  and  C_21
REMARK    9  A    between atoms: O_13  and  C_14
REMARK   10  A    between atoms: C_21  and  O_23
REMARK                            x       y       z     vdW  Elec       q    Type
REMARK                         _______ _______ _______ _____ _____    ______ ____
ROOT
ATOM      1  C   UNL     1       2.285   7.709  19.844  0.00  0.00    +0.000 C 
ATOM      2  C   UNL     1       1.428   6.657  20.531  0.00  0.00    +0.000 C 
ATOM      3  O   UNL     1       1.719   5.369  19.959  0.00  0.00    +0.000 OA
ATOM      4  N   UNL     1       2.814   5.543  19.080  0.00  0.00    +0.000 N 
ATOM      5  C   UNL     1       3.040   6.877  18.840  0.00  0.00    +0.000 C 
ATOM      6  O   UNL     1       3.706   7.336  17.916  0.00  0.00    +0.000 OA
ENDROOT
BRANCH   1   9
ATOM      7  C   UNL     1       0.918   9.809  19.728  0.00  0.00    +0.000 C 
ATOM      8  O   UNL     1       0.783   9.896  20.938  0.00  0.00    +0.000 OA
ATOM      9  N   UNL     1       1.592   8.767  19.121  0.00  0.00    +0.000 N 
ATOM     10  H   UNL     1       1.592   8.726  18.102  0.00  0.00    +0.000 HD
BRANCH   7  12
ATOM     11  N   UNL     1       0.970  11.810  18.178  0.00  0.00    +0.000 NA
ATOM     12  C   UNL     1       0.306  10.842  18.746  0.00  0.00    +0.000 C 
BRANCH  12  13
ATOM     13  C   UNL     1      -1.113  10.760  18.378  0.00  0.00    +0.000 A 
ATOM     14  C   UNL     1      -1.662   9.794  17.551  0.00  0.00    +0.000 A 
ATOM     15  S   UNL     1      -3.346  10.044  17.378  0.00  0.00    +0.000 S 
ATOM     16  C   UNL     1      -3.235  11.418  18.397  0.00  0.00    +0.000 A 
ATOM     17  N   UNL     1      -4.303  12.168  18.681  0.00  0.00    +0.000 N 
ATOM     18  N   UNL     1      -2.043  11.669  18.877  0.00  0.00    +0.000 NA
ATOM     19  H   UNL     1      -5.238  11.869  18.440  0.00  0.00    +0.000 HD
ATOM     20  H   UNL     1      -4.216  12.928  19.344  0.00  0.00    +0.000 HD
ENDBRANCH  12  13
BRANCH  11  22
ATOM     21  C   UNL     1       2.673  13.236  18.697  0.00  0.00    +0.000 C 
ATOM     22  O   UNL     1       2.313  11.864  18.558  0.00  0.00    +0.000 OA
ENDBRANCH  11  22
ENDBRANCH   7  12
ENDBRANCH   1   9
BRANCH   4  23
ATOM     23  C   UNL     1       2.994   4.531  18.041  0.00  0.00    +0.000 C 
BRANCH  23  24
ATOM     24  C   UNL     1       2.019   3.338  18.102  0.00  0.00    +0.000 C 
ATOM     25  O   UNL     1       0.837   3.386  17.784  0.00  0.00    +0.000 OA
BRANCH  24  26
ATOM     26  O   UNL     1       2.606   2.174  18.501  0.00  0.00    +0.000 OA
ATOM     27  H   UNL     1       3.538   2.331  18.769  0.00  0.00    +0.000 HD
ENDBRANCH  24  26
ENDBRANCH  23  24
BRANCH  23  28
ATOM     28  O   UNL     1       4.334   4.010  18.116  0.00  0.00    +0.000 OA
BRANCH  28  29
ATOM     29  C   UNL     1       5.197   4.329  17.103  0.00  0.00    +0.000 A 
ATOM     30  C   UNL     1       4.642   4.322  15.818  0.00  0.00    +0.000 A 
ATOM     31  C   UNL     1       5.439   4.587  14.698  0.00  0.00    +0.000 A 
ATOM     32  C   UNL     1       6.790   4.875  14.865  0.00  0.00    +0.000 A 
ATOM     33 CL   UNL     1       7.792   5.146  13.493  0.00  0.00    +0.000 Cl
ATOM     34  C   UNL     1       7.337   4.946  16.143  0.00  0.00    +0.000 A 
ATOM     35  C   UNL     1       6.536   4.692  17.260  0.00  0.00    +0.000 A 
ENDBRANCH  28  29
ENDBRANCH  23  28
ENDBRANCH   4  23
TORSDOF 9
ENDMDL
MODEL 9
REMARK VINA RESULT:      -6.8      4.122      8.531
REMARK  Name = 
REMARK  10 active torsions:
REMARK  status: ('A' for Active; 'I' for Inactive)
REMARK    1  A    between atoms: C_1  and  O_2
REMARK    2  A    between atoms: O_2  and  N_3
REMARK    3  A    between atoms: C_4  and  C_5
REMARK    4  A    between atoms: C_4  and  C_26
REMARK    5  A    between atoms: N_7  and  C_8
REMARK    6  A    between atoms: N_11  and  C_12
REMARK    7  A    between atoms: C_12  and  O_13
REMARK    8  A    between atoms: C_12  and  C_21
REMARK    9  A    between atoms: O_13  and  C_14
REMARK   10  A    between atoms: C_21  and  O_23
REMARK                            x       y       z     vdW  Elec       q    Type
REMARK                         _______ _______ _______ _____ _____    ______ ____
ROOT
ATOM      1  C   UNL     1       2.243   7.741  19.816  0.00  0.00    +0.000 C 
ATOM      2  C   UNL     1       1.373   6.617  20.358  0.00  0.00    +0.000 C 
ATOM      3  O   UNL     1       1.706   5.394  19.675  0.00  0.00    +0.000 OA
ATOM      4  N   UNL     1       2.835   5.666  18.866  0.00  0.00    +0.000 N 
ATOM      5  C   UNL     1       3.051   7.020  18.768  0.00  0.00    +0.000 C 
ATOM      6  O   UNL     1       3.750   7.574  17.924  0.00  0.00    +0.000 OA
ENDROOT
BRANCH   1   9
ATOM      7  C   UNL     1       0.726   9.737  19.826  0.00  0.00    +0.000 C 
ATOM      8  O   UNL     1       0.418   9.611  20.999  0.00  0.00    +0.000 OA
ATOM      9  N   UNL     1       1.566   8.858  19.171  0.00  0.00    +0.000 N 
ATOM     10  H   UNL     1       1.710   8.988  18.170  0.00  0.00    +0.000 HD
BRANCH   7  12
ATOM     11  N   UNL     1       0.812  11.973  18.639  0.00  0.00    +0.000 NA
ATOM     12  C   UNL     1       0.166  10.879  18.936  0.00  0.00    +0.000 C 
BRANCH  12  13
ATOM     13  C   UNL     1      -1.172  10.765  18.343  0.00  0.00    +0.000 A 
ATOM     14  C   UNL     1      -2.322  11.331  18.867  0.00  0.00    +0.000 A 
ATOM     15  S   UNL     1      -3.669  10.972  17.876  0.00  0.00    +0.000 S 
ATOM     16  C   UNL     1      -2.646  10.083  16.827  0.00  0.00    +0.000 A 
ATOM     17  N   UNL     1      -3.123   9.453  15.749  0.00  0.00    +0.000 N 
ATOM     18  N   UNL     1      -1.378  10.073  17.151  0.00  0.00    +0.000 NA
ATOM     19  H   UNL     1      -4.068   9.605  15.424  0.00  0.00    +0.000 HD
ATOM     20  H   UNL     1      -2.481   8.999  15.113  0.00  0.00    +0.000 HD
ENDBRANCH  12  13
BRANCH  11  22
ATOM     21  C   UNL     1       2.117  13.239  20.014  0.00  0.00    +0.000 C 
ATOM     22  O   UNL     1       2.076  12.052  19.228  0.00  0.00    +0.000 OA
ENDBRANCH  11  22
ENDBRANCH   7  12
ENDBRANCH   1   9
BRANCH   4  23
ATOM     23  C   UNL     1       3.073   4.764  17.741  0.00  0.00    +0.000 C 
BRANCH  23  24
ATOM     24  C   UNL     1       2.117   3.557  17.645  0.00  0.00    +0.000 C 
ATOM     25  O   UNL     1       2.444   2.392  17.829  0.00  0.00    +0.000 OA
BRANCH  24  26
ATOM     26  O   UNL     1       0.825   3.905  17.382  0.00  0.00    +0.000 OA
ATOM     27  H   UNL     1       0.214   3.175  17.627  0.00  0.00    +0.000 HD
ENDBRANCH  24  26
ENDBRANCH  23  24
BRANCH  23  28
ATOM     28  O   UNL     1       4.418   4.256  17.820  0.00  0.00    +0.000 OA
BRANCH  28  29
ATOM     29  C   UNL     1       5.222   4.416  16.723  0.00  0.00    +0.000 A 
ATOM     30  C   UNL     1       6.278   5.321  16.881  0.00  0.00    +0.000 A 
ATOM     31  C   UNL     1       7.138   5.603  15.814  0.00  0.00    +0.000 A 
ATOM     32  C   UNL     1       6.951   4.966  14.590  0.00  0.00    +0.000 A 
ATOM     33 CL   UNL     1       7.966   5.346  13.255  0.00  0.00    +0.000 Cl
ATOM     34  C   UNL     1       5.943   4.019  14.442  0.00  0.00    +0.000 A 
ATOM     35  C   UNL     1       5.092   3.732  15.513  0.00  0.00    +0.000 A 
ENDBRANCH  28  29
ENDBRANCH  23  28
ENDBRANCH   4  23
TORSDOF 9
ENDMDL
