MODEL 1
REMARK VINA RESULT:      -7.6      0.000      0.000
REMARK  Name = 
REMARK  5 active torsions:
REMARK  status: ('A' for Active; 'I' for Inactive)
REMARK    1  A    between atoms: C_1  and  C_2
REMARK    2  A    between atoms: N_6  and  S_7
REMARK    3  A    between atoms: S_7  and  C_10
REMARK    4  A    between atoms: C_11  and  C_12
REMARK    5  A    between atoms: N_14  and  C_15
REMARK                            x       y       z     vdW  Elec       q    Type
REMARK                         _______ _______ _______ _____ _____    ______ ____
ROOT
ATOM      1  S   UNL     1       6.043   5.055  19.254  0.00  0.00    +0.000 S 
ATOM      2  O   UNL     1       7.085   5.564  20.117  0.00  0.00    +0.000 OA
ATOM      3  O   UNL     1       5.752   3.635  19.220  0.00  0.00    +0.000 OA
ENDROOT
BRANCH   1   9
ATOM      4  C   UNL     1       0.248   2.264  18.794  0.00  0.00    +0.000 C 
ATOM      5  C   UNL     1       1.359   3.254  18.950  0.00  0.00    +0.000 A 
ATOM      6  C   UNL     1       1.732   4.116  17.918  0.00  0.00    +0.000 A 
ATOM      7  C   UNL     1       2.792   4.999  18.114  0.00  0.00    +0.000 A 
ATOM      8  C   UNL     1       3.437   4.989  19.344  0.00  0.00    +0.000 A 
ATOM      9  N   UNL     1       4.566   5.801  19.577  0.00  0.00    +0.000 N 
ATOM     10  N   UNL     1       3.114   4.174  20.359  0.00  0.00    +0.000 NA
ATOM     11  C   UNL     1       2.080   3.328  20.140  0.00  0.00    +0.000 A 
ATOM     12  H   UNL     1       4.546   6.694  19.092  0.00  0.00    +0.000 HD
ENDBRANCH   1   9
BRANCH   1  13
ATOM     13  C   UNL     1       6.512   5.403  17.647  0.00  0.00    +0.000 A 
ATOM     14  C   UNL     1       7.291   6.474  17.134  0.00  0.00    +0.000 A 
ATOM     15  C   UNL     1       7.910   7.652  17.794  0.00  0.00    +0.000 C 
ATOM     16  N   UNL     1       7.484   6.348  15.807  0.00  0.00    +0.000 NA
ATOM     17  N   UNL     1       6.838   5.212  15.479  0.00  0.00    +0.000 N 
ATOM     18  C   UNL     1       6.864   4.764  14.106  0.00  0.00    +0.000 C 
ATOM     19  C   UNL     1       6.236   4.625  16.548  0.00  0.00    +0.000 A 
ATOM     20 CL   UNL     1       5.371   3.170  16.361  0.00  0.00    +0.000 Cl
ENDBRANCH   1  13
TORSDOF 2
ENDMDL
MODEL 2
REMARK VINA RESULT:      -7.2      2.891      5.772
REMARK  Name = 
REMARK  5 active torsions:
REMARK  status: ('A' for Active; 'I' for Inactive)
REMARK    1  A    between atoms: C_1  and  C_2
REMARK    2  A    between atoms: N_6  and  S_7
REMARK    3  A    between atoms: S_7  and  C_10
REMARK    4  A    between atoms: C_11  and  C_12
REMARK    5  A    between atoms: N_14  and  C_15
REMARK                            x       y       z     vdW  Elec       q    Type
REMARK                         _______ _______ _______ _____ _____    ______ ____
ROOT
ATOM      1  S   UNL     1       2.674   2.886  18.092  0.00  0.00    +0.000 S 
ATOM      2  O   UNL     1       2.226   3.413  16.823  0.00  0.00    +0.000 OA
ATOM      3  O   UNL     1       2.058   1.697  18.647  0.00  0.00    +0.000 OA
ENDROOT
BRANCH   1   9
ATOM      4  C   UNL     1       7.367   7.279  17.592  0.00  0.00    +0.000 C 
ATOM      5  C   UNL     1       6.598   5.997  17.652  0.00  0.00    +0.000 A 
ATOM      6  C   UNL     1       6.289   5.265  16.504  0.00  0.00    +0.000 A 
ATOM      7  C   UNL     1       5.547   4.091  16.621  0.00  0.00    +0.000 A 
ATOM      8  C   UNL     1       5.146   3.691  17.890  0.00  0.00    +0.000 A 
ATOM      9  N   UNL     1       4.327   2.557  18.067  0.00  0.00    +0.000 N 
ATOM     10  N   UNL     1       5.417   4.368  19.016  0.00  0.00    +0.000 NA
ATOM     11  C   UNL     1       6.140   5.503  18.872  0.00  0.00    +0.000 A 
ATOM     12  H   UNL     1       4.495   1.811  17.396  0.00  0.00    +0.000 HD
ENDBRANCH   1   9
BRANCH   1  13
ATOM     13  C   UNL     1       2.355   4.084  19.270  0.00  0.00    +0.000 A 
ATOM     14  C   UNL     1       2.178   3.961  20.675  0.00  0.00    +0.000 A 
ATOM     15  C   UNL     1       2.167   2.776  21.570  0.00  0.00    +0.000 C 
ATOM     16  N   UNL     1       2.005   5.164  21.254  0.00  0.00    +0.000 NA
ATOM     17  N   UNL     1       2.069   6.042  20.234  0.00  0.00    +0.000 N 
ATOM     18  C   UNL     1       1.940   7.452  20.515  0.00  0.00    +0.000 C 
ATOM     19  C   UNL     1       2.266   5.434  19.033  0.00  0.00    +0.000 A 
ATOM     20 CL   UNL     1       2.390   6.358  17.608  0.00  0.00    +0.000 Cl
ENDBRANCH   1  13
TORSDOF 2
ENDMDL
MODEL 3
REMARK VINA RESULT:      -7.2      2.162      5.766
REMARK  Name = 
REMARK  5 active torsions:
REMARK  status: ('A' for Active; 'I' for Inactive)
REMARK    1  A    between atoms: C_1  and  C_2
REMARK    2  A    between atoms: N_6  and  S_7
REMARK    3  A    between atoms: S_7  and  C_10
REMARK    4  A    between atoms: C_11  and  C_12
REMARK    5  A    between atoms: N_14  and  C_15
REMARK                            x       y       z     vdW  Elec       q    Type
REMARK                         _______ _______ _______ _____ _____    ______ ____
ROOT
ATOM      1  S   UNL     1       5.225   5.255  18.732  0.00  0.00    +0.000 S 
ATOM      2  O   UNL     1       6.209   5.643  19.718  0.00  0.00    +0.000 OA
ATOM      3  O   UNL     1       4.794   6.198  17.720  0.00  0.00    +0.000 OA
ENDROOT
BRANCH   1   9
ATOM      4  C   UNL     1       7.379   5.200  12.655  0.00  0.00    +0.000 C 
ATOM      5  C   UNL     1       6.887   4.799  14.010  0.00  0.00    +0.000 A 
ATOM      6  C   UNL     1       5.578   4.365  14.222  0.00  0.00    +0.000 A 
ATOM      7  C   UNL     1       5.170   4.030  15.512  0.00  0.00    +0.000 A 
ATOM      8  C   UNL     1       6.095   4.136  16.543  0.00  0.00    +0.000 A 
ATOM      9  N   UNL     1       5.722   3.888  17.880  0.00  0.00    +0.000 N 
ATOM     10  N   UNL     1       7.359   4.554  16.382  0.00  0.00    +0.000 NA
ATOM     11  C   UNL     1       7.728   4.871  15.119  0.00  0.00    +0.000 A 
ATOM     12  H   UNL     1       5.014   3.167  17.989  0.00  0.00    +0.000 HD
ENDBRANCH   1   9
BRANCH   1  13
ATOM     13  C   UNL     1       3.783   4.898  19.581  0.00  0.00    +0.000 A 
ATOM     14  C   UNL     1       2.644   5.711  19.830  0.00  0.00    +0.000 A 
ATOM     15  C   UNL     1       2.344   7.124  19.488  0.00  0.00    +0.000 C 
ATOM     16  N   UNL     1       1.690   5.027  20.490  0.00  0.00    +0.000 NA
ATOM     17  N   UNL     1       2.212   3.796  20.658  0.00  0.00    +0.000 N 
ATOM     18  C   UNL     1       1.423   2.787  21.325  0.00  0.00    +0.000 C 
ATOM     19  C   UNL     1       3.464   3.684  20.139  0.00  0.00    +0.000 A 
ATOM     20 CL   UNL     1       4.308   2.208  20.231  0.00  0.00    +0.000 Cl
ENDBRANCH   1  13
TORSDOF 2
ENDMDL
MODEL 4
REMARK VINA RESULT:      -7.1      1.867      5.691
REMARK  Name = 
REMARK  5 active torsions:
REMARK  status: ('A' for Active; 'I' for Inactive)
REMARK    1  A    between atoms: C_1  and  C_2
REMARK    2  A    between atoms: N_6  and  S_7
REMARK    3  A    between atoms: S_7  and  C_10
REMARK    4  A    between atoms: C_11  and  C_12
REMARK    5  A    between atoms: N_14  and  C_15
REMARK                            x       y       z     vdW  Elec       q    Type
REMARK                         _______ _______ _______ _____ _____    ______ ____
ROOT
ATOM      1  S   UNL     1       5.124   5.115  18.413  0.00  0.00    +0.000 S 
ATOM      2  O   UNL     1       5.764   5.490  19.654  0.00  0.00    +0.000 OA
ATOM      3  O   UNL     1       4.920   6.100  17.370  0.00  0.00    +0.000 OA
ENDROOT
BRANCH   1   9
ATOM      4  C   UNL     1       7.517   5.192  12.426  0.00  0.00    +0.000 C 
ATOM      5  C   UNL     1       7.060   4.769  13.787  0.00  0.00    +0.000 A 
ATOM      6  C   UNL     1       5.865   4.075  13.984  0.00  0.00    +0.000 A 
ATOM      7  C   UNL     1       5.480   3.731  15.278  0.00  0.00    +0.000 A 
ATOM      8  C   UNL     1       6.313   4.092  16.330  0.00  0.00    +0.000 A 
ATOM      9  N   UNL     1       5.941   3.843  17.667  0.00  0.00    +0.000 N 
ATOM     10  N   UNL     1       7.465   4.763  16.184  0.00  0.00    +0.000 NA
ATOM     11  C   UNL     1       7.814   5.082  14.916  0.00  0.00    +0.000 A 
ATOM     12  H   UNL     1       5.399   2.993  17.799  0.00  0.00    +0.000 HD
ENDBRANCH   1   9
BRANCH   1  13
ATOM     13  C   UNL     1       3.535   4.615  18.803  0.00  0.00    +0.000 A 
ATOM     14  C   UNL     1       2.455   5.354  19.356  0.00  0.00    +0.000 A 
ATOM     15  C   UNL     1       2.352   6.763  19.814  0.00  0.00    +0.000 C 
ATOM     16  N   UNL     1       1.344   4.599  19.451  0.00  0.00    +0.000 NA
ATOM     17  N   UNL     1       1.710   3.397  18.966  0.00  0.00    +0.000 N 
ATOM     18  C   UNL     1       0.729   2.339  18.905  0.00  0.00    +0.000 C 
ATOM     19  C   UNL     1       3.014   3.364  18.579  0.00  0.00    +0.000 A 
ATOM     20 CL   UNL     1       3.685   1.943  17.925  0.00  0.00    +0.000 Cl
ENDBRANCH   1  13
TORSDOF 2
ENDMDL
MODEL 5
REMARK VINA RESULT:      -6.9      1.902      5.326
REMARK  Name = 
REMARK  5 active torsions:
REMARK  status: ('A' for Active; 'I' for Inactive)
REMARK    1  A    between atoms: C_1  and  C_2
REMARK    2  A    between atoms: N_6  and  S_7
REMARK    3  A    between atoms: S_7  and  C_10
REMARK    4  A    between atoms: C_11  and  C_12
REMARK    5  A    between atoms: N_14  and  C_15
REMARK                            x       y       z     vdW  Elec       q    Type
REMARK                         _______ _______ _______ _____ _____    ______ ____
ROOT
ATOM      1  S   UNL     1       6.123   5.496  18.527  0.00  0.00    +0.000 S 
ATOM      2  O   UNL     1       6.677   5.699  19.848  0.00  0.00    +0.000 OA
ATOM      3  O   UNL     1       6.224   6.538  17.525  0.00  0.00    +0.000 OA
ENDROOT
BRANCH   1   9
ATOM      4  C   UNL     1       6.541   4.451  12.178  0.00  0.00    +0.000 C 
ATOM      5  C   UNL     1       6.561   4.293  13.666  0.00  0.00    +0.000 A 
ATOM      6  C   UNL     1       5.544   3.627  14.353  0.00  0.00    +0.000 A 
ATOM      7  C   UNL     1       5.605   3.534  15.742  0.00  0.00    +0.000 A 
ATOM      8  C   UNL     1       6.690   4.109  16.392  0.00  0.00    +0.000 A 
ATOM      9  N   UNL     1       6.769   4.119  17.800  0.00  0.00    +0.000 N 
ATOM     10  N   UNL     1       7.683   4.762  15.771  0.00  0.00    +0.000 NA
ATOM     11  C   UNL     1       7.598   4.835  14.422  0.00  0.00    +0.000 A 
ATOM     12  H   UNL     1       6.364   3.301  18.247  0.00  0.00    +0.000 HD
ENDBRANCH   1   9
BRANCH   1  13
ATOM     13  C   UNL     1       4.435   5.294  18.720  0.00  0.00    +0.000 A 
ATOM     14  C   UNL     1       3.365   6.160  18.370  0.00  0.00    +0.000 A 
ATOM     15  C   UNL     1       3.349   7.521  17.775  0.00  0.00    +0.000 C 
ATOM     16  N   UNL     1       2.172   5.597  18.636  0.00  0.00    +0.000 NA
ATOM     17  N   UNL     1       2.476   4.388  19.148  0.00  0.00    +0.000 N 
ATOM     18  C   UNL     1       1.403   3.499  19.528  0.00  0.00    +0.000 C 
ATOM     19  C   UNL     1       3.817   4.175  19.224  0.00  0.00    +0.000 A 
ATOM     20 CL   UNL     1       4.425   2.705  19.832  0.00  0.00    +0.000 Cl
ENDBRANCH   1  13
TORSDOF 2
ENDMDL
MODEL 6
REMARK VINA RESULT:      -6.9      1.340      1.721
REMARK  Name = 
REMARK  5 active torsions:
REMARK  status: ('A' for Active; 'I' for Inactive)
REMARK    1  A    between atoms: C_1  and  C_2
REMARK    2  A    between atoms: N_6  and  S_7
REMARK    3  A    between atoms: S_7  and  C_10
REMARK    4  A    between atoms: C_11  and  C_12
REMARK    5  A    between atoms: N_14  and  C_15
REMARK                            x       y       z     vdW  Elec       q    Type
REMARK                         _______ _______ _______ _____ _____    ______ ____
ROOT
ATOM      1  S   UNL     1       5.906   5.011  19.043  0.00  0.00    +0.000 S 
ATOM      2  O   UNL     1       4.687   5.769  19.219  0.00  0.00    +0.000 OA
ATOM      3  O   UNL     1       7.027   5.214  19.938  0.00  0.00    +0.000 OA
ENDROOT
BRANCH   1   9
ATOM      4  C   UNL     1       0.075   2.259  19.035  0.00  0.00    +0.000 C 
ATOM      5  C   UNL     1       1.549   2.505  19.116  0.00  0.00    +0.000 A 
ATOM      6  C   UNL     1       2.225   2.555  20.336  0.00  0.00    +0.000 A 
ATOM      7  C   UNL     1       3.594   2.815  20.348  0.00  0.00    +0.000 A 
ATOM      8  C   UNL     1       4.237   3.009  19.132  0.00  0.00    +0.000 A 
ATOM      9  N   UNL     1       5.604   3.353  19.082  0.00  0.00    +0.000 N 
ATOM     10  N   UNL     1       3.624   2.975  17.940  0.00  0.00    +0.000 NA
ATOM     11  C   UNL     1       2.295   2.719  17.958  0.00  0.00    +0.000 A 
ATOM     12  H   UNL     1       6.165   2.942  19.823  0.00  0.00    +0.000 HD
ENDBRANCH   1   9
BRANCH   1  13
ATOM     13  C   UNL     1       6.539   5.434  17.511  0.00  0.00    +0.000 A 
ATOM     14  C   UNL     1       7.329   6.551  17.126  0.00  0.00    +0.000 A 
ATOM     15  C   UNL     1       7.823   7.725  17.890  0.00  0.00    +0.000 C 
ATOM     16  N   UNL     1       7.675   6.480  15.826  0.00  0.00    +0.000 NA
ATOM     17  N   UNL     1       7.114   5.336  15.390  0.00  0.00    +0.000 N 
ATOM     18  C   UNL     1       7.312   4.940  14.015  0.00  0.00    +0.000 C 
ATOM     19  C   UNL     1       6.419   4.689  16.364  0.00  0.00    +0.000 A 
ATOM     20 CL   UNL     1       5.639   3.212  16.032  0.00  0.00    +0.000 Cl
ENDBRANCH   1  13
TORSDOF 2
ENDMDL
MODEL 7
REMARK VINA RESULT:      -6.9      2.456      5.796
REMARK  Name = 
REMARK  5 active torsions:
REMARK  status: ('A' for Active; 'I' for Inactive)
REMARK    1  A    between atoms: C_1  and  C_2
REMARK    2  A    between atoms: N_6  and  S_7
REMARK    3  A    between atoms: S_7  and  C_10
REMARK    4  A    between atoms: C_11  and  C_12
REMARK    5  A    between atoms: N_14  and  C_15
REMARK                            x       y       z     vdW  Elec       q    Type
REMARK                         _______ _______ _______ _____ _____    ______ ____
ROOT
ATOM      1  S   UNL     1       5.680   6.699  16.989  0.00  0.00    +0.000 S 
ATOM      2  O   UNL     1       6.463   7.764  17.574  0.00  0.00    +0.000 OA
ATOM      3  O   UNL     1       5.020   6.893  15.713  0.00  0.00    +0.000 OA
ENDROOT
BRANCH   1   9
ATOM      4  C   UNL     1       6.975   3.778  11.388  0.00  0.00    +0.000 C 
ATOM      5  C   UNL     1       6.846   4.108  12.842  0.00  0.00    +0.000 A 
ATOM      6  C   UNL     1       5.865   3.528  13.647  0.00  0.00    +0.000 A 
ATOM      7  C   UNL     1       5.778   3.894  14.989  0.00  0.00    +0.000 A 
ATOM      8  C   UNL     1       6.685   4.827  15.476  0.00  0.00    +0.000 A 
ATOM      9  N   UNL     1       6.599   5.298  16.803  0.00  0.00    +0.000 N 
ATOM     10  N   UNL     1       7.638   5.411  14.735  0.00  0.00    +0.000 NA
ATOM     11  C   UNL     1       7.700   5.035  13.436  0.00  0.00    +0.000 A 
ATOM     12  H   UNL     1       6.268   4.606  17.470  0.00  0.00    +0.000 HD
ENDBRANCH   1   9
BRANCH   1  13
ATOM     13  C   UNL     1       4.384   6.386  18.061  0.00  0.00    +0.000 A 
ATOM     14  C   UNL     1       3.178   7.108  18.273  0.00  0.00    +0.000 A 
ATOM     15  C   UNL     1       2.666   8.372  17.684  0.00  0.00    +0.000 C 
ATOM     16  N   UNL     1       2.388   6.488  19.169  0.00  0.00    +0.000 NA
ATOM     17  N   UNL     1       3.079   5.388  19.525  0.00  0.00    +0.000 N 
ATOM     18  C   UNL     1       2.494   4.472  20.476  0.00  0.00    +0.000 C 
ATOM     19  C   UNL     1       4.280   5.297  18.892  0.00  0.00    +0.000 A 
ATOM     20 CL   UNL     1       5.313   3.976  19.185  0.00  0.00    +0.000 Cl
ENDBRANCH   1  13
TORSDOF 2
ENDMDL
MODEL 8
REMARK VINA RESULT:      -6.7      2.071      2.795
REMARK  Name = 
REMARK  5 active torsions:
REMARK  status: ('A' for Active; 'I' for Inactive)
REMARK    1  A    between atoms: C_1  and  C_2
REMARK    2  A    between atoms: N_6  and  S_7
REMARK    3  A    between atoms: S_7  and  C_10
REMARK    4  A    between atoms: C_11  and  C_12
REMARK    5  A    between atoms: N_14  and  C_15
REMARK                            x       y       z     vdW  Elec       q    Type
REMARK                         _______ _______ _______ _____ _____    ______ ____
ROOT
ATOM      1  S   UNL     1       5.097   4.733  18.832  0.00  0.00    +0.000 S 
ATOM      2  O   UNL     1       5.423   5.725  19.832  0.00  0.00    +0.000 OA
ATOM      3  O   UNL     1       5.414   3.337  19.057  0.00  0.00    +0.000 OA
ENDROOT
BRANCH   1   9
ATOM      4  C   UNL     1       0.933   9.341  20.564  0.00  0.00    +0.000 C 
ATOM      5  C   UNL     1       1.548   8.079  20.045  0.00  0.00    +0.000 A 
ATOM      6  C   UNL     1       1.511   6.887  20.769  0.00  0.00    +0.000 A 
ATOM      7  C   UNL     1       2.124   5.750  20.246  0.00  0.00    +0.000 A 
ATOM      8  C   UNL     1       2.747   5.850  19.008  0.00  0.00    +0.000 A 
ATOM      9  N   UNL     1       3.453   4.759  18.461  0.00  0.00    +0.000 N 
ATOM     10  N   UNL     1       2.809   6.977  18.284  0.00  0.00    +0.000 NA
ATOM     11  C   UNL     1       2.204   8.065  18.816  0.00  0.00    +0.000 A 
ATOM     12  H   UNL     1       3.059   3.850  18.690  0.00  0.00    +0.000 HD
ENDBRANCH   1   9
BRANCH   1  13
ATOM     13  C   UNL     1       5.998   5.123  17.431  0.00  0.00    +0.000 A 
ATOM     14  C   UNL     1       7.106   5.999  17.272  0.00  0.00    +0.000 A 
ATOM     15  C   UNL     1       7.812   6.886  18.231  0.00  0.00    +0.000 C 
ATOM     16  N   UNL     1       7.569   5.978  16.008  0.00  0.00    +0.000 NA
ATOM     17  N   UNL     1       6.768   5.101  15.370  0.00  0.00    +0.000 N 
ATOM     18  C   UNL     1       7.009   4.822  13.974  0.00  0.00    +0.000 C 
ATOM     19  C   UNL     1       5.812   4.578  16.184  0.00  0.00    +0.000 A 
ATOM     20 CL   UNL     1       4.698   3.438  15.586  0.00  0.00    +0.000 Cl
ENDBRANCH   1  13
TORSDOF 2
ENDMDL
MODEL 9
REMARK VINA RESULT:      -6.6      1.954      5.476
REMARK  Name = 
REMARK  5 active torsions:
REMARK  status: ('A' for Active; 'I' for Inactive)
REMARK    1  A    between atoms: C_1  and  C_2
REMARK    2  A    between atoms: N_6  and  S_7
REMARK    3  A    between atoms: S_7  and  C_10
REMARK    4  A    between atoms: C_11  and  C_12
REMARK    5  A    between atoms: N_14  and  C_15
REMARK                            x       y       z     vdW  Elec       q    Type
REMARK                         _______ _______ _______ _____ _____    ______ ____
ROOT
ATOM      1  S   UNL     1       5.748   4.970  18.731  0.00  0.00    +0.000 S 
ATOM      2  O   UNL     1       6.206   3.668  18.299  0.00  0.00    +0.000 OA
ATOM      3  O   UNL     1       6.412   5.651  19.824  0.00  0.00    +0.000 OA
ENDROOT
BRANCH   1   9
ATOM      4  C   UNL     1       6.320   3.472  12.485  0.00  0.00    +0.000 C 
ATOM      5  C   UNL     1       6.234   4.208  13.786  0.00  0.00    +0.000 A 
ATOM      6  C   UNL     1       7.366   4.721  14.421  0.00  0.00    +0.000 A 
ATOM      7  C   UNL     1       7.226   5.373  15.644  0.00  0.00    +0.000 A 
ATOM      8  C   UNL     1       5.951   5.493  16.184  0.00  0.00    +0.000 A 
ATOM      9  N   UNL     1       5.753   6.071  17.455  0.00  0.00    +0.000 N 
ATOM     10  N   UNL     1       4.840   5.009  15.609  0.00  0.00    +0.000 NA
ATOM     11  C   UNL     1       5.006   4.382  14.421  0.00  0.00    +0.000 A 
ATOM     12  H   UNL     1       6.404   6.819  17.679  0.00  0.00    +0.000 HD
ENDBRANCH   1   9
BRANCH   1  13
ATOM     13  C   UNL     1       4.147   4.772  19.300  0.00  0.00    +0.000 A 
ATOM     14  C   UNL     1       3.023   5.633  19.184  0.00  0.00    +0.000 A 
ATOM     15  C   UNL     1       2.868   6.982  18.583  0.00  0.00    +0.000 C 
ATOM     16  N   UNL     1       1.921   5.074  19.720  0.00  0.00    +0.000 NA
ATOM     17  N   UNL     1       2.337   3.875  20.172  0.00  0.00    +0.000 N 
ATOM     18  C   UNL     1       1.379   2.993  20.798  0.00  0.00    +0.000 C 
ATOM     19  C   UNL     1       3.662   3.662  19.949  0.00  0.00    +0.000 A 
ATOM     20 CL   UNL     1       4.396   2.203  20.431  0.00  0.00    +0.000 Cl
ENDBRANCH   1  13
TORSDOF 2
ENDMDL
