MODEL 1
REMARK VINA RESULT:      -8.4      0.000      0.000
REMARK  Name = 
REMARK  8 active torsions:
REMARK  status: ('A' for Active; 'I' for Inactive)
REMARK    1  A    between atoms: C_1  and  C_2
REMARK    2  A    between atoms: C_7  and  C_8
REMARK    3  A    between atoms: C_12  and  C_13
REMARK    4  A    between atoms: C_13  and  O_14
REMARK    5  A    between atoms: O_14  and  C_15
REMARK    6  A    between atoms: N_18  and  C_19
REMARK    7  A    between atoms: C_26  and  C_27
REMARK    8  A    between atoms: C_29  and  C_30
REMARK                            x       y       z     vdW  Elec       q    Type
REMARK                         _______ _______ _______ _____ _____    ______ ____
ROOT
ATOM      1  C   UNL     1      -3.336  12.558  23.966  0.00  0.00    +0.000 C 
ATOM      2  C   UNL     1      -2.392  12.831  22.826  0.00  0.00    +0.000 C 
ATOM      3  O   UNL     1      -2.371  13.938  22.301  0.00  0.00    +0.000 OA
ATOM      4  N   UNL     1      -1.632  11.727  22.489  0.00  0.00    +0.000 N 
ATOM      5  C   UNL     1      -0.613  11.732  21.523  0.00  0.00    +0.000 A 
ATOM      6  C   UNL     1      -0.117  10.522  21.097  0.00  0.00    +0.000 A 
ATOM      7  C   UNL     1       0.850  10.554  20.103  0.00  0.00    +0.000 A 
ATOM      8  N   UNL     1       1.328  11.722  19.625  0.00  0.00    +0.000 NA
ATOM      9  C   UNL     1       0.824  12.866  20.134  0.00  0.00    +0.000 A 
ATOM     10  N   UNL     1       1.351  14.133  19.674  0.00  0.00    +0.000 N 
ATOM     11  N   UNL     1       2.282  14.198  18.672  0.00  0.00    +0.000 NA
ATOM     12  C   UNL     1       2.491  15.503  18.473  0.00  0.00    +0.000 A 
ATOM     13  C   UNL     1       3.425  15.975  17.424  0.00  0.00    +0.000 C 
ATOM     14  C   UNL     1       1.743  16.297  19.357  0.00  0.00    +0.000 A 
ATOM     15  C   UNL     1       1.037  15.410  20.138  0.00  0.00    +0.000 A 
ATOM     16  C   UNL     1       0.104  15.698  21.258  0.00  0.00    +0.000 C 
ATOM     17  N   UNL     1      -0.146  12.891  21.063  0.00  0.00    +0.000 NA
ATOM     18  H   UNL     1      -1.871  10.840  22.912  0.00  0.00    +0.000 HD
ENDROOT
BRANCH   7  19
ATOM     19  C   UNL     1       1.419   9.327  19.499  0.00  0.00    +0.000 A 
ATOM     20  C   UNL     1       1.853   9.280  18.160  0.00  0.00    +0.000 A 
ATOM     21  C   UNL     1       2.389   8.115  17.605  0.00  0.00    +0.000 A 
ATOM     22  C   UNL     1       2.509   6.964  18.377  0.00  0.00    +0.000 A 
ATOM     23  C   UNL     1       2.097   6.970  19.712  0.00  0.00    +0.000 A 
ATOM     24  C   UNL     1       1.565   8.151  20.258  0.00  0.00    +0.000 A 
BRANCH  23  25
ATOM     25  C   UNL     1       2.247   5.743  20.569  0.00  0.00    +0.000 C 
BRANCH  25  26
ATOM     26  O   UNL     1       0.995   5.059  20.618  0.00  0.00    +0.000 OA
BRANCH  26  27
ATOM     27  C   UNL     1       1.136   3.653  20.428  0.00  0.00    +0.000 C 
ATOM     28  C   UNL     1       2.199   3.107  21.385  0.00  0.00    +0.000 C 
ATOM     29  C   UNL     1       3.230   2.421  20.495  0.00  0.00    +0.000 C 
ATOM     30  N   UNL     1       2.486   2.104  19.275  0.00  0.00    +0.000 NA
ATOM     31  C   UNL     1       3.364   1.830  18.144  0.00  0.00    +0.000 C 
ATOM     32  C   UNL     1       1.664   3.291  19.036  0.00  0.00    +0.000 C 
ENDBRANCH  26  27
ENDBRANCH  25  26
ENDBRANCH  23  25
ENDBRANCH   7  19
TORSDOF 4
ENDMDL
MODEL 2
REMARK VINA RESULT:      -7.9      3.279     10.054
REMARK  Name = 
REMARK  8 active torsions:
REMARK  status: ('A' for Active; 'I' for Inactive)
REMARK    1  A    between atoms: C_1  and  C_2
REMARK    2  A    between atoms: C_7  and  C_8
REMARK    3  A    between atoms: C_12  and  C_13
REMARK    4  A    between atoms: C_13  and  O_14
REMARK    5  A    between atoms: O_14  and  C_15
REMARK    6  A    between atoms: N_18  and  C_19
REMARK    7  A    between atoms: C_26  and  C_27
REMARK    8  A    between atoms: C_29  and  C_30
REMARK                            x       y       z     vdW  Elec       q    Type
REMARK                         _______ _______ _______ _____ _____    ______ ____
ROOT
ATOM      1  C   UNL     1       6.540   5.511  14.824  0.00  0.00    +0.000 C 
ATOM      2  C   UNL     1       5.506   5.230  15.881  0.00  0.00    +0.000 C 
ATOM      3  O   UNL     1       5.231   4.072  16.175  0.00  0.00    +0.000 OA
ATOM      4  N   UNL     1       4.958   6.384  16.408  0.00  0.00    +0.000 N 
ATOM      5  C   UNL     1       4.038   6.410  17.469  0.00  0.00    +0.000 A 
ATOM      6  C   UNL     1       3.373   7.588  17.722  0.00  0.00    +0.000 A 
ATOM      7  C   UNL     1       2.431   7.572  18.740  0.00  0.00    +0.000 A 
ATOM      8  N   UNL     1       2.224   6.468  19.489  0.00  0.00    +0.000 NA
ATOM      9  C   UNL     1       2.955   5.369  19.208  0.00  0.00    +0.000 A 
ATOM     10  N   UNL     1       2.789   4.186  20.024  0.00  0.00    +0.000 N 
ATOM     11  N   UNL     1       1.845   4.128  21.015  0.00  0.00    +0.000 NA
ATOM     12  C   UNL     1       1.934   2.891  21.512  0.00  0.00    +0.000 A 
ATOM     13  C   UNL     1       1.032   2.437  22.596  0.00  0.00    +0.000 C 
ATOM     14  C   UNL     1       2.952   2.147  20.893  0.00  0.00    +0.000 A 
ATOM     15  C   UNL     1       3.509   2.993  19.960  0.00  0.00    +0.000 A 
ATOM     16  C   UNL     1       4.644   2.738  19.037  0.00  0.00    +0.000 C 
ATOM     17  N   UNL     1       3.846   5.317  18.205  0.00  0.00    +0.000 NA
ATOM     18  H   UNL     1       5.175   7.261  15.957  0.00  0.00    +0.000 HD
ENDROOT
BRANCH   7  19
ATOM     19  C   UNL     1       1.591   8.745  19.073  0.00  0.00    +0.000 A 
ATOM     20  C   UNL     1       1.221   9.702  18.108  0.00  0.00    +0.000 A 
ATOM     21  C   UNL     1       0.426  10.804  18.437  0.00  0.00    +0.000 A 
ATOM     22  C   UNL     1      -0.024  10.976  19.742  0.00  0.00    +0.000 A 
ATOM     23  C   UNL     1       0.314  10.046  20.728  0.00  0.00    +0.000 A 
ATOM     24  C   UNL     1       1.110   8.940  20.381  0.00  0.00    +0.000 A 
BRANCH  23  25
ATOM     25  C   UNL     1      -0.189  10.201  22.137  0.00  0.00    +0.000 C 
BRANCH  25  26
ATOM     26  O   UNL     1       0.004  11.554  22.549  0.00  0.00    +0.000 OA
BRANCH  26  27
ATOM     27  C   UNL     1      -1.166  12.348  22.370  0.00  0.00    +0.000 C 
ATOM     28  C   UNL     1      -0.942  13.739  22.970  0.00  0.00    +0.000 C 
ATOM     29  C   UNL     1      -2.063  13.926  23.986  0.00  0.00    +0.000 C 
ATOM     30  N   UNL     1      -3.108  13.005  23.532  0.00  0.00    +0.000 NA
ATOM     31  C   UNL     1      -4.084  12.713  24.574  0.00  0.00    +0.000 C 
ATOM     32  C   UNL     1      -2.378  11.802  23.133  0.00  0.00    +0.000 C 
ENDBRANCH  26  27
ENDBRANCH  25  26
ENDBRANCH  23  25
ENDBRANCH   7  19
TORSDOF 4
ENDMDL
MODEL 3
REMARK VINA RESULT:      -7.8      1.058      1.058
REMARK  Name = 
REMARK  8 active torsions:
REMARK  status: ('A' for Active; 'I' for Inactive)
REMARK    1  A    between atoms: C_1  and  C_2
REMARK    2  A    between atoms: C_7  and  C_8
REMARK    3  A    between atoms: C_12  and  C_13
REMARK    4  A    between atoms: C_13  and  O_14
REMARK    5  A    between atoms: O_14  and  C_15
REMARK    6  A    between atoms: N_18  and  C_19
REMARK    7  A    between atoms: C_26  and  C_27
REMARK    8  A    between atoms: C_29  and  C_30
REMARK                            x       y       z     vdW  Elec       q    Type
REMARK                         _______ _______ _______ _____ _____    ______ ____
ROOT
ATOM      1  C   UNL     1      -4.587  12.700  21.299  0.00  0.00    +0.000 C 
ATOM      2  C   UNL     1      -3.256  12.916  20.629  0.00  0.00    +0.000 C 
ATOM      3  O   UNL     1      -2.982  14.012  20.154  0.00  0.00    +0.000 OA
ATOM      4  N   UNL     1      -2.472  11.778  20.626  0.00  0.00    +0.000 N 
ATOM      5  C   UNL     1      -1.153  11.727  20.147  0.00  0.00    +0.000 A 
ATOM      6  C   UNL     1      -0.579  10.492  19.956  0.00  0.00    +0.000 A 
ATOM      7  C   UNL     1       0.705  10.469  19.431  0.00  0.00    +0.000 A 
ATOM      8  N   UNL     1       1.381  11.609  19.179  0.00  0.00    +0.000 NA
ATOM      9  C   UNL     1       0.764  12.780  19.442  0.00  0.00    +0.000 A 
ATOM     10  N   UNL     1       1.482  14.018  19.228  0.00  0.00    +0.000 N 
ATOM     11  N   UNL     1       2.738  14.029  18.679  0.00  0.00    +0.000 NA
ATOM     12  C   UNL     1       3.063  15.322  18.577  0.00  0.00    +0.000 A 
ATOM     13  C   UNL     1       4.357  15.739  17.986  0.00  0.00    +0.000 C 
ATOM     14  C   UNL     1       2.059  16.160  19.088  0.00  0.00    +0.000 A 
ATOM     15  C   UNL     1       1.063  15.315  19.525  0.00  0.00    +0.000 A 
ATOM     16  C   UNL     1      -0.225  15.658  20.180  0.00  0.00    +0.000 C 
ATOM     17  N   UNL     1      -0.493  12.860  19.908  0.00  0.00    +0.000 NA
ATOM     18  H   UNL     1      -2.896  10.909  20.921  0.00  0.00    +0.000 HD
ENDROOT
BRANCH   7  19
ATOM     19  C   UNL     1       1.415   9.211  19.107  0.00  0.00    +0.000 A 
ATOM     20  C   UNL     1       2.129   9.039  17.905  0.00  0.00    +0.000 A 
ATOM     21  C   UNL     1       2.796   7.846  17.614  0.00  0.00    +0.000 A 
ATOM     22  C   UNL     1       2.770   6.791  18.521  0.00  0.00    +0.000 A 
ATOM     23  C   UNL     1       2.079   6.923  19.728  0.00  0.00    +0.000 A 
ATOM     24  C   UNL     1       1.417   8.131  20.009  0.00  0.00    +0.000 A 
BRANCH  23  25
ATOM     25  C   UNL     1       2.065   5.803  20.733  0.00  0.00    +0.000 C 
BRANCH  25  26
ATOM     26  O   UNL     1       0.865   5.048  20.565  0.00  0.00    +0.000 OA
BRANCH  26  27
ATOM     27  C   UNL     1       1.115   3.650  20.445  0.00  0.00    +0.000 C 
ATOM     28  C   UNL     1       2.246   3.245  21.394  0.00  0.00    +0.000 C 
ATOM     29  C   UNL     1       3.304   2.596  20.508  0.00  0.00    +0.000 C 
ATOM     30  N   UNL     1       2.554   2.153  19.331  0.00  0.00    +0.000 NA
ATOM     31  C   UNL     1       3.419   1.888  18.188  0.00  0.00    +0.000 C 
ATOM     32  C   UNL     1       1.631   3.255  19.058  0.00  0.00    +0.000 C 
ENDBRANCH  26  27
ENDBRANCH  25  26
ENDBRANCH  23  25
ENDBRANCH   7  19
TORSDOF 4
ENDMDL
MODEL 4
REMARK VINA RESULT:      -7.8      3.731      9.034
REMARK  Name = 
REMARK  8 active torsions:
REMARK  status: ('A' for Active; 'I' for Inactive)
REMARK    1  A    between atoms: C_1  and  C_2
REMARK    2  A    between atoms: C_7  and  C_8
REMARK    3  A    between atoms: C_12  and  C_13
REMARK    4  A    between atoms: C_13  and  O_14
REMARK    5  A    between atoms: O_14  and  C_15
REMARK    6  A    between atoms: N_18  and  C_19
REMARK    7  A    between atoms: C_26  and  C_27
REMARK    8  A    between atoms: C_29  and  C_30
REMARK                            x       y       z     vdW  Elec       q    Type
REMARK                         _______ _______ _______ _____ _____    ______ ____
ROOT
ATOM      1  C   UNL     1       1.397   2.531  22.246  0.00  0.00    +0.000 C 
ATOM      2  C   UNL     1       2.193   3.244  21.186  0.00  0.00    +0.000 C 
ATOM      3  O   UNL     1       3.200   2.721  20.723  0.00  0.00    +0.000 OA
ATOM      4  N   UNL     1       1.660   4.476  20.859  0.00  0.00    +0.000 N 
ATOM      5  C   UNL     1       2.153   5.307  19.840  0.00  0.00    +0.000 A 
ATOM      6  C   UNL     1       1.707   6.608  19.791  0.00  0.00    +0.000 A 
ATOM      7  C   UNL     1       2.251   7.422  18.808  0.00  0.00    +0.000 A 
ATOM      8  N   UNL     1       3.128   6.940  17.903  0.00  0.00    +0.000 NA
ATOM      9  C   UNL     1       3.475   5.639  17.990  0.00  0.00    +0.000 A 
ATOM     10  N   UNL     1       4.376   5.083  17.004  0.00  0.00    +0.000 N 
ATOM     11  N   UNL     1       4.955   5.868  16.042  0.00  0.00    +0.000 NA
ATOM     12  C   UNL     1       5.757   5.048  15.357  0.00  0.00    +0.000 A 
ATOM     13  C   UNL     1       6.590   5.552  14.239  0.00  0.00    +0.000 C 
ATOM     14  C   UNL     1       5.683   3.726  15.825  0.00  0.00    +0.000 A 
ATOM     15  C   UNL     1       4.778   3.755  16.863  0.00  0.00    +0.000 A 
ATOM     16  C   UNL     1       4.296   2.631  17.706  0.00  0.00    +0.000 C 
ATOM     17  N   UNL     1       3.014   4.819  18.949  0.00  0.00    +0.000 NA
ATOM     18  H   UNL     1       0.913   4.838  21.436  0.00  0.00    +0.000 HD
ENDROOT
BRANCH   7  19
ATOM     19  C   UNL     1       1.918   8.860  18.684  0.00  0.00    +0.000 A 
ATOM     20  C   UNL     1       2.755   9.769  18.009  0.00  0.00    +0.000 A 
ATOM     21  C   UNL     1       2.425  11.123  17.899  0.00  0.00    +0.000 A 
ATOM     22  C   UNL     1       1.246  11.604  18.459  0.00  0.00    +0.000 A 
ATOM     23  C   UNL     1       0.384  10.733  19.131  0.00  0.00    +0.000 A 
ATOM     24  C   UNL     1       0.726   9.373  19.229  0.00  0.00    +0.000 A 
BRANCH  23  25
ATOM     25  C   UNL     1      -0.909  11.230  19.717  0.00  0.00    +0.000 C 
BRANCH  25  26
ATOM     26  O   UNL     1      -1.995  10.631  19.010  0.00  0.00    +0.000 OA
BRANCH  26  27
ATOM     27  C   UNL     1      -2.372  11.381  17.857  0.00  0.00    +0.000 C 
ATOM     28  C   UNL     1      -3.879  11.652  17.888  0.00  0.00    +0.000 C 
ATOM     29  C   UNL     1      -4.419  11.078  16.583  0.00  0.00    +0.000 C 
ATOM     30  N   UNL     1      -3.254  11.063  15.695  0.00  0.00    +0.000 NA
ATOM     31  C   UNL     1      -3.437  10.178  14.552  0.00  0.00    +0.000 C 
ATOM     32  C   UNL     1      -2.157  10.610  16.551  0.00  0.00    +0.000 C 
ENDBRANCH  26  27
ENDBRANCH  25  26
ENDBRANCH  23  25
ENDBRANCH   7  19
TORSDOF 4
ENDMDL
MODEL 5
REMARK VINA RESULT:      -7.7      3.151     10.003
REMARK  Name = 
REMARK  8 active torsions:
REMARK  status: ('A' for Active; 'I' for Inactive)
REMARK    1  A    between atoms: C_1  and  C_2
REMARK    2  A    between atoms: C_7  and  C_8
REMARK    3  A    between atoms: C_12  and  C_13
REMARK    4  A    between atoms: C_13  and  O_14
REMARK    5  A    between atoms: O_14  and  C_15
REMARK    6  A    between atoms: N_18  and  C_19
REMARK    7  A    between atoms: C_26  and  C_27
REMARK    8  A    between atoms: C_29  and  C_30
REMARK                            x       y       z     vdW  Elec       q    Type
REMARK                         _______ _______ _______ _____ _____    ______ ____
ROOT
ATOM      1  C   UNL     1       6.716   5.700  14.925  0.00  0.00    +0.000 C 
ATOM      2  C   UNL     1       5.652   5.385  15.942  0.00  0.00    +0.000 C 
ATOM      3  O   UNL     1       5.424   4.220  16.248  0.00  0.00    +0.000 OA
ATOM      4  N   UNL     1       5.023   6.518  16.421  0.00  0.00    +0.000 N 
ATOM      5  C   UNL     1       4.057   6.516  17.442  0.00  0.00    +0.000 A 
ATOM      6  C   UNL     1       3.322   7.662  17.642  0.00  0.00    +0.000 A 
ATOM      7  C   UNL     1       2.339   7.615  18.618  0.00  0.00    +0.000 A 
ATOM      8  N   UNL     1       2.156   6.516  19.380  0.00  0.00    +0.000 NA
ATOM      9  C   UNL     1       2.955   5.451  19.153  0.00  0.00    +0.000 A 
ATOM     10  N   UNL     1       2.814   4.277  19.986  0.00  0.00    +0.000 N 
ATOM     11  N   UNL     1       1.831   4.188  20.937  0.00  0.00    +0.000 NA
ATOM     12  C   UNL     1       1.963   2.966  21.462  0.00  0.00    +0.000 A 
ATOM     13  C   UNL     1       1.038   2.485  22.516  0.00  0.00    +0.000 C 
ATOM     14  C   UNL     1       3.043   2.265  20.903  0.00  0.00    +0.000 A 
ATOM     15  C   UNL     1       3.596   3.122  19.977  0.00  0.00    +0.000 A 
ATOM     16  C   UNL     1       4.782   2.909  19.108  0.00  0.00    +0.000 C 
ATOM     17  N   UNL     1       3.890   5.427  18.190  0.00  0.00    +0.000 NA
ATOM     18  H   UNL     1       5.214   7.397  15.962  0.00  0.00    +0.000 HD
ENDROOT
BRANCH   7  19
ATOM     19  C   UNL     1       1.426   8.749  18.891  0.00  0.00    +0.000 A 
ATOM     20  C   UNL     1       0.791   9.467  17.859  0.00  0.00    +0.000 A 
ATOM     21  C   UNL     1      -0.070  10.534  18.132  0.00  0.00    +0.000 A 
ATOM     22  C   UNL     1      -0.322  10.910  19.447  0.00  0.00    +0.000 A 
ATOM     23  C   UNL     1       0.282  10.219  20.501  0.00  0.00    +0.000 A 
ATOM     24  C   UNL     1       1.141   9.144  20.211  0.00  0.00    +0.000 A 
BRANCH  23  25
ATOM     25  C   UNL     1      -0.003  10.592  21.930  0.00  0.00    +0.000 C 
BRANCH  25  26
ATOM     26  O   UNL     1       0.250  11.987  22.100  0.00  0.00    +0.000 OA
BRANCH  26  27
ATOM     27  C   UNL     1      -0.811  12.652  22.784  0.00  0.00    +0.000 C 
ATOM     28  C   UNL     1      -2.003  11.703  22.932  0.00  0.00    +0.000 C 
ATOM     29  C   UNL     1      -3.177  12.426  22.280  0.00  0.00    +0.000 C 
ATOM     30  N   UNL     1      -2.796  13.838  22.335  0.00  0.00    +0.000 NA
ATOM     31  C   UNL     1      -3.564  14.658  21.405  0.00  0.00    +0.000 C 
ATOM     32  C   UNL     1      -1.373  13.840  21.996  0.00  0.00    +0.000 C 
ENDBRANCH  26  27
ENDBRANCH  25  26
ENDBRANCH  23  25
ENDBRANCH   7  19
TORSDOF 4
ENDMDL
MODEL 6
REMARK VINA RESULT:      -7.7      3.067      9.358
REMARK  Name = 
REMARK  8 active torsions:
REMARK  status: ('A' for Active; 'I' for Inactive)
REMARK    1  A    between atoms: C_1  and  C_2
REMARK    2  A    between atoms: C_7  and  C_8
REMARK    3  A    between atoms: C_12  and  C_13
REMARK    4  A    between atoms: C_13  and  O_14
REMARK    5  A    between atoms: O_14  and  C_15
REMARK    6  A    between atoms: N_18  and  C_19
REMARK    7  A    between atoms: C_26  and  C_27
REMARK    8  A    between atoms: C_29  and  C_30
REMARK                            x       y       z     vdW  Elec       q    Type
REMARK                         _______ _______ _______ _____ _____    ______ ____
ROOT
ATOM      1  C   UNL     1       1.233   2.262  22.313  0.00  0.00    +0.000 C 
ATOM      2  C   UNL     1       2.044   3.009  21.288  0.00  0.00    +0.000 C 
ATOM      3  O   UNL     1       3.043   2.490  20.803  0.00  0.00    +0.000 OA
ATOM      4  N   UNL     1       1.534   4.264  21.017  0.00  0.00    +0.000 N 
ATOM      5  C   UNL     1       2.044   5.132  20.038  0.00  0.00    +0.000 A 
ATOM      6  C   UNL     1       1.621   6.441  20.047  0.00  0.00    +0.000 A 
ATOM      7  C   UNL     1       2.182   7.289  19.104  0.00  0.00    +0.000 A 
ATOM      8  N   UNL     1       3.053   6.835  18.179  0.00  0.00    +0.000 NA
ATOM      9  C   UNL     1       3.376   5.524  18.208  0.00  0.00    +0.000 A 
ATOM     10  N   UNL     1       4.271   4.999  17.199  0.00  0.00    +0.000 N 
ATOM     11  N   UNL     1       4.866   5.817  16.275  0.00  0.00    +0.000 NA
ATOM     12  C   UNL     1       5.655   5.014  15.554  0.00  0.00    +0.000 A 
ATOM     13  C   UNL     1       6.500   5.555  14.463  0.00  0.00    +0.000 C 
ATOM     14  C   UNL     1       5.557   3.674  15.962  0.00  0.00    +0.000 A 
ATOM     15  C   UNL     1       4.650   3.671  16.998  0.00  0.00    +0.000 A 
ATOM     16  C   UNL     1       4.146   2.519  17.787  0.00  0.00    +0.000 C 
ATOM     17  N   UNL     1       2.899   4.670  19.127  0.00  0.00    +0.000 NA
ATOM     18  H   UNL     1       0.791   4.612  21.608  0.00  0.00    +0.000 HD
ENDROOT
BRANCH   7  19
ATOM     19  C   UNL     1       1.874   8.737  19.045  0.00  0.00    +0.000 A 
ATOM     20  C   UNL     1       2.241   9.539  17.948  0.00  0.00    +0.000 A 
ATOM     21  C   UNL     1       1.941  10.904  17.906  0.00  0.00    +0.000 A 
ATOM     22  C   UNL     1       1.263  11.503  18.963  0.00  0.00    +0.000 A 
ATOM     23  C   UNL     1       0.875  10.742  20.068  0.00  0.00    +0.000 A 
ATOM     24  C   UNL     1       1.178   9.369  20.093  0.00  0.00    +0.000 A 
BRANCH  23  25
ATOM     25  C   UNL     1       0.115  11.367  21.206  0.00  0.00    +0.000 C 
BRANCH  25  26
ATOM     26  O   UNL     1      -1.235  11.584  20.794  0.00  0.00    +0.000 OA
BRANCH  26  27
ATOM     27  C   UNL     1      -1.865  12.632  21.527  0.00  0.00    +0.000 C 
ATOM     28  C   UNL     1      -1.813  12.317  23.024  0.00  0.00    +0.000 C 
ATOM     29  C   UNL     1      -3.264  12.338  23.491  0.00  0.00    +0.000 C 
ATOM     30  N   UNL     1      -3.943  13.171  22.497  0.00  0.00    +0.000 NA
ATOM     31  C   UNL     1      -5.388  12.985  22.508  0.00  0.00    +0.000 C 
ATOM     32  C   UNL     1      -3.361  12.754  21.221  0.00  0.00    +0.000 C 
ENDBRANCH  26  27
ENDBRANCH  25  26
ENDBRANCH  23  25
ENDBRANCH   7  19
TORSDOF 4
ENDMDL
MODEL 7
REMARK VINA RESULT:      -7.5      1.254      1.550
REMARK  Name = 
REMARK  8 active torsions:
REMARK  status: ('A' for Active; 'I' for Inactive)
REMARK    1  A    between atoms: C_1  and  C_2
REMARK    2  A    between atoms: C_7  and  C_8
REMARK    3  A    between atoms: C_12  and  C_13
REMARK    4  A    between atoms: C_13  and  O_14
REMARK    5  A    between atoms: O_14  and  C_15
REMARK    6  A    between atoms: N_18  and  C_19
REMARK    7  A    between atoms: C_26  and  C_27
REMARK    8  A    between atoms: C_29  and  C_30
REMARK                            x       y       z     vdW  Elec       q    Type
REMARK                         _______ _______ _______ _____ _____    ______ ____
ROOT
ATOM      1  C   UNL     1      -4.080  12.618  24.455  0.00  0.00    +0.000 C 
ATOM      2  C   UNL     1      -3.217  13.057  23.301  0.00  0.00    +0.000 C 
ATOM      3  O   UNL     1      -3.357  14.177  22.825  0.00  0.00    +0.000 OA
ATOM      4  N   UNL     1      -2.332  12.076  22.896  0.00  0.00    +0.000 N 
ATOM      5  C   UNL     1      -1.355  12.253  21.903  0.00  0.00    +0.000 A 
ATOM      6  C   UNL     1      -0.721  11.135  21.411  0.00  0.00    +0.000 A 
ATOM      7  C   UNL     1       0.201  11.333  20.393  0.00  0.00    +0.000 A 
ATOM      8  N   UNL     1       0.507  12.572  19.953  0.00  0.00    +0.000 NA
ATOM      9  C   UNL     1      -0.124  13.618  20.525  0.00  0.00    +0.000 A 
ATOM     10  N   UNL     1       0.218  14.961  20.107  0.00  0.00    +0.000 N 
ATOM     11  N   UNL     1       1.100  15.187  19.083  0.00  0.00    +0.000 NA
ATOM     12  C   UNL     1       1.131  16.515  18.935  0.00  0.00    +0.000 A 
ATOM     13  C   UNL     1       1.961  17.146  17.882  0.00  0.00    +0.000 C 
ATOM     14  C   UNL     1       0.317  17.169  19.874  0.00  0.00    +0.000 A 
ATOM     15  C   UNL     1      -0.243  16.167  20.635  0.00  0.00    +0.000 A 
ATOM     16  C   UNL     1      -1.167  16.285  21.792  0.00  0.00    +0.000 C 
ATOM     17  N   UNL     1      -1.057  13.480  21.481  0.00  0.00    +0.000 NA
ATOM     18  H   UNL     1      -2.440  11.150  23.286  0.00  0.00    +0.000 HD
ENDROOT
BRANCH   7  19
ATOM     19  C   UNL     1       0.903  10.216  19.721  0.00  0.00    +0.000 A 
ATOM     20  C   UNL     1       1.417  10.330  18.415  0.00  0.00    +0.000 A 
ATOM     21  C   UNL     1       2.080   9.267  17.794  0.00  0.00    +0.000 A 
ATOM     22  C   UNL     1       2.249   8.060  18.466  0.00  0.00    +0.000 A 
ATOM     23  C   UNL     1       1.760   7.908  19.766  0.00  0.00    +0.000 A 
ATOM     24  C   UNL     1       1.101   8.988  20.379  0.00  0.00    +0.000 A 
BRANCH  23  25
ATOM     25  C   UNL     1       1.960   6.621  20.519  0.00  0.00    +0.000 C 
BRANCH  25  26
ATOM     26  O   UNL     1       1.993   5.542  19.585  0.00  0.00    +0.000 OA
BRANCH  26  27
ATOM     27  C   UNL     1       3.127   4.698  19.769  0.00  0.00    +0.000 C 
ATOM     28  C   UNL     1       4.140   4.941  18.647  0.00  0.00    +0.000 C 
ATOM     29  C   UNL     1       4.358   3.579  17.998  0.00  0.00    +0.000 C 
ATOM     30  N   UNL     1       3.983   2.626  19.045  0.00  0.00    +0.000 NA
ATOM     31  C   UNL     1       3.717   1.294  18.515  0.00  0.00    +0.000 C 
ATOM     32  C   UNL     1       2.786   3.209  19.649  0.00  0.00    +0.000 C 
ENDBRANCH  26  27
ENDBRANCH  25  26
ENDBRANCH  23  25
ENDBRANCH   7  19
TORSDOF 4
ENDMDL
MODEL 8
REMARK VINA RESULT:      -7.4      3.846      9.979
REMARK  Name = 
REMARK  8 active torsions:
REMARK  status: ('A' for Active; 'I' for Inactive)
REMARK    1  A    between atoms: C_1  and  C_2
REMARK    2  A    between atoms: C_7  and  C_8
REMARK    3  A    between atoms: C_12  and  C_13
REMARK    4  A    between atoms: C_13  and  O_14
REMARK    5  A    between atoms: O_14  and  C_15
REMARK    6  A    between atoms: N_18  and  C_19
REMARK    7  A    between atoms: C_26  and  C_27
REMARK    8  A    between atoms: C_29  and  C_30
REMARK                            x       y       z     vdW  Elec       q    Type
REMARK                         _______ _______ _______ _____ _____    ______ ____
ROOT
ATOM      1  C   UNL     1       6.148   5.477  14.927  0.00  0.00    +0.000 C 
ATOM      2  C   UNL     1       5.152   5.172  16.014  0.00  0.00    +0.000 C 
ATOM      3  O   UNL     1       4.839   4.011  16.248  0.00  0.00    +0.000 OA
ATOM      4  N   UNL     1       4.682   6.312  16.639  0.00  0.00    +0.000 N 
ATOM      5  C   UNL     1       3.815   6.308  17.744  0.00  0.00    +0.000 A 
ATOM      6  C   UNL     1       3.217   7.494  18.103  0.00  0.00    +0.000 A 
ATOM      7  C   UNL     1       2.323   7.452  19.163  0.00  0.00    +0.000 A 
ATOM      8  N   UNL     1       2.101   6.311  19.849  0.00  0.00    +0.000 NA
ATOM      9  C   UNL     1       2.767   5.203  19.464  0.00  0.00    +0.000 A 
ATOM     10  N   UNL     1       2.586   3.977  20.212  0.00  0.00    +0.000 N 
ATOM     11  N   UNL     1       1.686   3.896  21.242  0.00  0.00    +0.000 NA
ATOM     12  C   UNL     1       1.742   2.626  21.655  0.00  0.00    +0.000 A 
ATOM     13  C   UNL     1       0.871   2.141  22.751  0.00  0.00    +0.000 C 
ATOM     14  C   UNL     1       2.695   1.881  20.941  0.00  0.00    +0.000 A 
ATOM     15  C   UNL     1       3.246   2.761  20.037  0.00  0.00    +0.000 A 
ATOM     16  C   UNL     1       4.324   2.519  19.045  0.00  0.00    +0.000 C 
ATOM     17  N   UNL     1       3.608   5.178  18.417  0.00  0.00    +0.000 NA
ATOM     18  H   UNL     1       4.918   7.206  16.234  0.00  0.00    +0.000 HD
ENDROOT
BRANCH   7  19
ATOM     19  C   UNL     1       1.554   8.636  19.609  0.00  0.00    +0.000 A 
ATOM     20  C   UNL     1       1.270   8.879  20.967  0.00  0.00    +0.000 A 
ATOM     21  C   UNL     1       0.545  10.003  21.373  0.00  0.00    +0.000 A 
ATOM     22  C   UNL     1       0.085  10.916  20.431  0.00  0.00    +0.000 A 
ATOM     23  C   UNL     1       0.351  10.716  19.073  0.00  0.00    +0.000 A 
ATOM     24  C   UNL     1       1.087   9.584  18.681  0.00  0.00    +0.000 A 
BRANCH  23  25
ATOM     25  C   UNL     1      -0.113  11.709  18.043  0.00  0.00    +0.000 C 
BRANCH  25  26
ATOM     26  O   UNL     1      -1.422  12.158  18.393  0.00  0.00    +0.000 OA
BRANCH  26  27
ATOM     27  C   UNL     1      -2.425  11.188  18.101  0.00  0.00    +0.000 C 
ATOM     28  C   UNL     1      -2.590  11.057  16.585  0.00  0.00    +0.000 C 
ATOM     29  C   UNL     1      -4.063  11.343  16.313  0.00  0.00    +0.000 C 
ATOM     30  N   UNL     1      -4.720  11.049  17.589  0.00  0.00    +0.000 NA
ATOM     31  C   UNL     1      -6.047  11.646  17.682  0.00  0.00    +0.000 C 
ATOM     32  C   UNL     1      -3.814  11.602  18.595  0.00  0.00    +0.000 C 
ENDBRANCH  26  27
ENDBRANCH  25  26
ENDBRANCH  23  25
ENDBRANCH   7  19
TORSDOF 4
ENDMDL
MODEL 9
REMARK VINA RESULT:      -7.3      2.762      5.566
REMARK  Name = 
REMARK  8 active torsions:
REMARK  status: ('A' for Active; 'I' for Inactive)
REMARK    1  A    between atoms: C_1  and  C_2
REMARK    2  A    between atoms: C_7  and  C_8
REMARK    3  A    between atoms: C_12  and  C_13
REMARK    4  A    between atoms: C_13  and  O_14
REMARK    5  A    between atoms: O_14  and  C_15
REMARK    6  A    between atoms: N_18  and  C_19
REMARK    7  A    between atoms: C_26  and  C_27
REMARK    8  A    between atoms: C_29  and  C_30
REMARK                            x       y       z     vdW  Elec       q    Type
REMARK                         _______ _______ _______ _____ _____    ______ ____
ROOT
ATOM      1  C   UNL     1      -0.936  17.989  19.016  0.00  0.00    +0.000 C 
ATOM      2  C   UNL     1      -1.730  16.984  19.807  0.00  0.00    +0.000 C 
ATOM      3  O   UNL     1      -2.766  17.326  20.364  0.00  0.00    +0.000 OA
ATOM      4  N   UNL     1      -1.147  15.731  19.812  0.00  0.00    +0.000 N 
ATOM      5  C   UNL     1      -1.724  14.592  20.398  0.00  0.00    +0.000 A 
ATOM      6  C   UNL     1      -0.933  13.479  20.567  0.00  0.00    +0.000 A 
ATOM      7  C   UNL     1      -1.512  12.387  21.197  0.00  0.00    +0.000 A 
ATOM      8  N   UNL     1      -2.809  12.396  21.568  0.00  0.00    +0.000 NA
ATOM      9  C   UNL     1      -3.529  13.510  21.320  0.00  0.00    +0.000 A 
ATOM     10  N   UNL     1      -4.934  13.531  21.663  0.00  0.00    +0.000 N 
ATOM     11  N   UNL     1      -5.526  12.482  22.315  0.00  0.00    +0.000 NA
ATOM     12  C   UNL     1      -6.791  12.864  22.517  0.00  0.00    +0.000 A 
ATOM     13  C   UNL     1      -7.747  11.990  23.237  0.00  0.00    +0.000 C 
ATOM     14  C   UNL     1      -7.052  14.131  21.970  0.00  0.00    +0.000 A 
ATOM     15  C   UNL     1      -5.865  14.538  21.404  0.00  0.00    +0.000 A 
ATOM     16  C   UNL     1      -5.571  15.791  20.663  0.00  0.00    +0.000 C 
ATOM     17  N   UNL     1      -3.006  14.611  20.755  0.00  0.00    +0.000 NA
ATOM     18  H   UNL     1      -0.214  15.641  19.435  0.00  0.00    +0.000 HD
ENDROOT
BRANCH   7  19
ATOM     19  C   UNL     1      -0.758  11.151  21.509  0.00  0.00    +0.000 A 
ATOM     20  C   UNL     1      -0.733  10.593  22.802  0.00  0.00    +0.000 A 
ATOM     21  C   UNL     1      -0.019   9.424  23.081  0.00  0.00    +0.000 A 
ATOM     22  C   UNL     1       0.688   8.779  22.071  0.00  0.00    +0.000 A 
ATOM     23  C   UNL     1       0.683   9.296  20.773  0.00  0.00    +0.000 A 
ATOM     24  C   UNL     1      -0.045  10.469  20.507  0.00  0.00    +0.000 A 
BRANCH  23  25
ATOM     25  C   UNL     1       1.417   8.595  19.662  0.00  0.00    +0.000 C 
BRANCH  25  26
ATOM     26  O   UNL     1       2.289   7.618  20.231  0.00  0.00    +0.000 OA
BRANCH  26  27
ATOM     27  C   UNL     1       2.181   6.351  19.586  0.00  0.00    +0.000 C 
ATOM     28  C   UNL     1       1.622   5.318  20.568  0.00  0.00    +0.000 C 
ATOM     29  C   UNL     1       2.657   4.199  20.609  0.00  0.00    +0.000 C 
ATOM     30  N   UNL     1       3.372   4.334  19.338  0.00  0.00    +0.000 NA
ATOM     31  C   UNL     1       4.658   3.647  19.348  0.00  0.00    +0.000 C 
ATOM     32  C   UNL     1       3.539   5.777  19.171  0.00  0.00    +0.000 C 
ENDBRANCH  26  27
ENDBRANCH  25  26
ENDBRANCH  23  25
ENDBRANCH   7  19
TORSDOF 4
ENDMDL
