MODEL 1
REMARK VINA RESULT:      -8.7      0.000      0.000
REMARK  Name = 
REMARK  4 active torsions:
REMARK  status: ('A' for Active; 'I' for Inactive)
REMARK    1  A    between atoms: C_2  and  C_5
REMARK    2  A    between atoms: C_7  and  C_8
REMARK    3  A    between atoms: N_20  and  C_21
REMARK    4  A    between atoms: C_26  and  C_27
REMARK                            x       y       z     vdW  Elec       q    Type
REMARK                         _______ _______ _______ _____ _____    ______ ____
ROOT
ATOM      1  C   UNL     1       4.983   5.399  16.767  0.00  0.00    +0.000 A 
ATOM      2  C   UNL     1       4.298   4.582  17.693  0.00  0.00    +0.000 A 
ATOM      3  C   UNL     1       3.280   5.064  18.540  0.00  0.00    +0.000 A 
ATOM      4  C   UNL     1       3.018   6.432  18.381  0.00  0.00    +0.000 A 
ATOM      5  N   UNL     1       2.188   7.278  19.050  0.00  0.00    +0.000 N 
ATOM      6  C   UNL     1       2.161   8.489  18.426  0.00  0.00    +0.000 A 
ATOM      7  N   UNL     1       1.217   9.362  18.820  0.00  0.00    +0.000 N 
ATOM      8  C   UNL     1       0.810  10.477  17.941  0.00  0.00    +0.000 C 
ATOM      9  C   UNL     1      -0.661  10.881  18.272  0.00  0.00    +0.000 C 
ATOM     10  N   UNL     1      -0.763  11.157  19.726  0.00  0.00    +0.000 N 
ATOM     11  C   UNL     1      -0.407   9.995  20.545  0.00  0.00    +0.000 C 
ATOM     12  C   UNL     1       1.074   9.666  20.257  0.00  0.00    +0.000 C 
ATOM     13  N   UNL     1       3.037   8.521  17.449  0.00  0.00    +0.000 NA
ATOM     14  C   UNL     1       3.612   7.266  17.440  0.00  0.00    +0.000 A 
ATOM     15  C   UNL     1       4.631   6.754  16.630  0.00  0.00    +0.000 A 
ATOM     16  H   UNL     1       1.587   7.032  19.817  0.00  0.00    +0.000 HD
ENDROOT
BRANCH   3  17
ATOM     17  C   UNL     1       2.550   4.219  19.511  0.00  0.00    +0.000 A 
ATOM     18  C   UNL     1       1.516   3.369  19.103  0.00  0.00    +0.000 A 
ATOM     19  C   UNL     1       0.860   2.587  20.045  0.00  0.00    +0.000 A 
ATOM     20  N   UNL     1       1.168   2.570  21.357  0.00  0.00    +0.000 NA
ATOM     21  C   UNL     1       2.151   3.400  21.749  0.00  0.00    +0.000 A 
ATOM     22  C   UNL     1       2.840   4.239  20.885  0.00  0.00    +0.000 A 
ENDBRANCH   3  17
BRANCH  10  23
ATOM     23  C   UNL     1      -1.517  12.203  20.181  0.00  0.00    +0.000 A 
ATOM     24  N   UNL     1      -2.863  12.011  20.159  0.00  0.00    +0.000 NA
ATOM     25  C   UNL     1      -3.695  12.999  20.550  0.00  0.00    +0.000 A 
ATOM     26  C   UNL     1      -3.261  14.227  20.988  0.00  0.00    +0.000 A 
ATOM     27  C   UNL     1      -1.899  14.440  21.011  0.00  0.00    +0.000 A 
ATOM     28  C   UNL     1      -0.999  13.438  20.585  0.00  0.00    +0.000 A 
BRANCH  28  29
ATOM     29  C   UNL     1       0.446  13.848  20.568  0.00  0.00    +0.000 C 
ATOM     30  F   UNL     1       1.335  13.062  21.228  0.00  0.00    +0.000 F 
ATOM     31  F   UNL     1       0.943  13.918  19.296  0.00  0.00    +0.000 F 
ATOM     32  F   UNL     1       0.621  15.100  21.085  0.00  0.00    +0.000 F 
ENDBRANCH  28  29
ENDBRANCH  10  23
BRANCH   1  34
ATOM     33  F   UNL     1       6.154   5.402  14.672  0.00  0.00    +0.000 F 
ATOM     34  C   UNL     1       6.077   4.823  15.904  0.00  0.00    +0.000 C 
ATOM     35  F   UNL     1       5.911   3.491  15.674  0.00  0.00    +0.000 F 
ATOM     36  F   UNL     1       7.312   4.960  16.456  0.00  0.00    +0.000 F 
ENDBRANCH   1  34
TORSDOF 4
ENDMDL
MODEL 2
REMARK VINA RESULT:      -8.7      0.078      1.019
REMARK  Name = 
REMARK  4 active torsions:
REMARK  status: ('A' for Active; 'I' for Inactive)
REMARK    1  A    between atoms: C_2  and  C_5
REMARK    2  A    between atoms: C_7  and  C_8
REMARK    3  A    between atoms: N_20  and  C_21
REMARK    4  A    between atoms: C_26  and  C_27
REMARK                            x       y       z     vdW  Elec       q    Type
REMARK                         _______ _______ _______ _____ _____    ______ ____
ROOT
ATOM      1  C   UNL     1       4.978   5.337  16.740  0.00  0.00    +0.000 A 
ATOM      2  C   UNL     1       4.297   4.527  17.674  0.00  0.00    +0.000 A 
ATOM      3  C   UNL     1       3.285   5.017  18.525  0.00  0.00    +0.000 A 
ATOM      4  C   UNL     1       3.027   6.385  18.360  0.00  0.00    +0.000 A 
ATOM      5  N   UNL     1       2.203   7.237  19.029  0.00  0.00    +0.000 N 
ATOM      6  C   UNL     1       2.176   8.445  18.400  0.00  0.00    +0.000 A 
ATOM      7  N   UNL     1       1.237   9.323  18.795  0.00  0.00    +0.000 N 
ATOM      8  C   UNL     1       0.829  10.435  17.913  0.00  0.00    +0.000 C 
ATOM      9  C   UNL     1      -0.639  10.845  18.250  0.00  0.00    +0.000 C 
ATOM     10  N   UNL     1      -0.731  11.129  19.703  0.00  0.00    +0.000 N 
ATOM     11  C   UNL     1      -0.375   9.970  20.526  0.00  0.00    +0.000 C 
ATOM     12  C   UNL     1       1.103   9.634  20.232  0.00  0.00    +0.000 C 
ATOM     13  N   UNL     1       3.047   8.469  17.417  0.00  0.00    +0.000 NA
ATOM     14  C   UNL     1       3.617   7.213  17.411  0.00  0.00    +0.000 A 
ATOM     15  C   UNL     1       4.630   6.693  16.599  0.00  0.00    +0.000 A 
ATOM     16  H   UNL     1       1.605   6.997  19.801  0.00  0.00    +0.000 HD
ENDROOT
BRANCH   3  17
ATOM     17  C   UNL     1       2.558   4.179  19.504  0.00  0.00    +0.000 A 
ATOM     18  C   UNL     1       2.887   4.198  20.865  0.00  0.00    +0.000 A 
ATOM     19  C   UNL     1       2.175   3.401  21.752  0.00  0.00    +0.000 A 
ATOM     20  N   UNL     1       1.150   2.604  21.394  0.00  0.00    +0.000 NA
ATOM     21  C   UNL     1       0.847   2.574  20.084  0.00  0.00    +0.000 A 
ATOM     22  C   UNL     1       1.522   3.312  19.122  0.00  0.00    +0.000 A 
ENDBRANCH   3  17
BRANCH  10  23
ATOM     23  C   UNL     1      -1.480  12.180  20.158  0.00  0.00    +0.000 A 
ATOM     24  N   UNL     1      -2.827  11.997  20.131  0.00  0.00    +0.000 NA
ATOM     25  C   UNL     1      -3.653  12.990  20.520  0.00  0.00    +0.000 A 
ATOM     26  C   UNL     1      -3.212  14.215  20.962  0.00  0.00    +0.000 A 
ATOM     27  C   UNL     1      -1.848  14.418  20.989  0.00  0.00    +0.000 A 
ATOM     28  C   UNL     1      -0.954  13.411  20.565  0.00  0.00    +0.000 A 
BRANCH  28  29
ATOM     29  C   UNL     1       0.494  13.810  20.552  0.00  0.00    +0.000 C 
ATOM     30  F   UNL     1       0.816  15.039  21.028  0.00  0.00    +0.000 F 
ATOM     31  F   UNL     1       1.266  12.955  21.288  0.00  0.00    +0.000 F 
ATOM     32  F   UNL     1       1.019  13.763  19.292  0.00  0.00    +0.000 F 
ENDBRANCH  28  29
ENDBRANCH  10  23
BRANCH   1  34
ATOM     33  F   UNL     1       6.182   5.372  14.664  0.00  0.00    +0.000 F 
ATOM     34  C   UNL     1       6.066   4.754  15.874  0.00  0.00    +0.000 C 
ATOM     35  F   UNL     1       5.858   3.437  15.595  0.00  0.00    +0.000 F 
ATOM     36  F   UNL     1       7.296   4.829  16.448  0.00  0.00    +0.000 F 
ENDBRANCH   1  34
TORSDOF 4
ENDMDL
MODEL 3
REMARK VINA RESULT:      -8.7      0.823      1.229
REMARK  Name = 
REMARK  4 active torsions:
REMARK  status: ('A' for Active; 'I' for Inactive)
REMARK    1  A    between atoms: C_2  and  C_5
REMARK    2  A    between atoms: C_7  and  C_8
REMARK    3  A    between atoms: N_20  and  C_21
REMARK    4  A    between atoms: C_26  and  C_27
REMARK                            x       y       z     vdW  Elec       q    Type
REMARK                         _______ _______ _______ _____ _____    ______ ____
ROOT
ATOM      1  C   UNL     1       5.075   5.663  16.793  0.00  0.00    +0.000 A 
ATOM      2  C   UNL     1       4.404   4.768  17.655  0.00  0.00    +0.000 A 
ATOM      3  C   UNL     1       3.325   5.152  18.476  0.00  0.00    +0.000 A 
ATOM      4  C   UNL     1       2.988   6.508  18.362  0.00  0.00    +0.000 A 
ATOM      5  N   UNL     1       2.081   7.274  19.029  0.00  0.00    +0.000 N 
ATOM      6  C   UNL     1       2.007   8.508  18.456  0.00  0.00    +0.000 A 
ATOM      7  N   UNL     1       0.997   9.306  18.843  0.00  0.00    +0.000 N 
ATOM      8  C   UNL     1       0.560  10.433  17.995  0.00  0.00    +0.000 C 
ATOM      9  C   UNL     1      -0.945  10.735  18.278  0.00  0.00    +0.000 C 
ATOM     10  N   UNL     1      -1.122  10.941  19.736  0.00  0.00    +0.000 N 
ATOM     11  C   UNL     1      -0.732   9.766  20.521  0.00  0.00    +0.000 C 
ATOM     12  C   UNL     1       0.777   9.537  20.285  0.00  0.00    +0.000 C 
ATOM     13  N   UNL     1       2.919   8.634  17.519  0.00  0.00    +0.000 NA
ATOM     14  C   UNL     1       3.568   7.416  17.483  0.00  0.00    +0.000 A 
ATOM     15  C   UNL     1       4.648   7.001  16.698  0.00  0.00    +0.000 A 
ATOM     16  H   UNL     1       1.465   6.960  19.758  0.00  0.00    +0.000 HD
ENDROOT
BRANCH   3  17
ATOM     17  C   UNL     1       2.608   4.224  19.378  0.00  0.00    +0.000 A 
ATOM     18  C   UNL     1       1.621   3.357  18.896  0.00  0.00    +0.000 A 
ATOM     19  C   UNL     1       0.976   2.496  19.775  0.00  0.00    +0.000 A 
ATOM     20  N   UNL     1       1.252   2.418  21.091  0.00  0.00    +0.000 NA
ATOM     21  C   UNL     1       2.188   3.263  21.555  0.00  0.00    +0.000 A 
ATOM     22  C   UNL     1       2.863   4.178  20.758  0.00  0.00    +0.000 A 
ENDBRANCH   3  17
BRANCH  10  23
ATOM     23  C   UNL     1      -1.957  11.920  20.202  0.00  0.00    +0.000 A 
ATOM     24  N   UNL     1      -3.103  12.100  19.494  0.00  0.00    +0.000 NA
ATOM     25  C   UNL     1      -3.973  13.069  19.849  0.00  0.00    +0.000 A 
ATOM     26  C   UNL     1      -3.775  13.914  20.915  0.00  0.00    +0.000 A 
ATOM     27  C   UNL     1      -2.612  13.747  21.639  0.00  0.00    +0.000 A 
ATOM     28  C   UNL     1      -1.668  12.761  21.282  0.00  0.00    +0.000 A 
BRANCH  28  29
ATOM     29  C   UNL     1      -0.406  12.764  22.096  0.00  0.00    +0.000 C 
ATOM     30  F   UNL     1       0.777  12.718  21.432  0.00  0.00    +0.000 F 
ATOM     31  F   UNL     1      -0.306  13.881  22.879  0.00  0.00    +0.000 F 
ATOM     32  F   UNL     1      -0.367  11.715  22.971  0.00  0.00    +0.000 F 
ENDBRANCH  28  29
ENDBRANCH  10  23
BRANCH   1  34
ATOM     33  F   UNL     1       7.426   5.751  16.318  0.00  0.00    +0.000 F 
ATOM     34  C   UNL     1       6.237   5.191  15.956  0.00  0.00    +0.000 C 
ATOM     35  F   UNL     1       6.078   5.486  14.636  0.00  0.00    +0.000 F 
ATOM     36  F   UNL     1       6.424   3.846  16.023  0.00  0.00    +0.000 F 
ENDBRANCH   1  34
TORSDOF 4
ENDMDL
MODEL 4
REMARK VINA RESULT:      -8.7      0.839      1.358
REMARK  Name = 
REMARK  4 active torsions:
REMARK  status: ('A' for Active; 'I' for Inactive)
REMARK    1  A    between atoms: C_2  and  C_5
REMARK    2  A    between atoms: C_7  and  C_8
REMARK    3  A    between atoms: N_20  and  C_21
REMARK    4  A    between atoms: C_26  and  C_27
REMARK                            x       y       z     vdW  Elec       q    Type
REMARK                         _______ _______ _______ _____ _____    ______ ____
ROOT
ATOM      1  C   UNL     1       5.087   5.674  16.878  0.00  0.00    +0.000 A 
ATOM      2  C   UNL     1       4.414   4.781  17.740  0.00  0.00    +0.000 A 
ATOM      3  C   UNL     1       3.330   5.166  18.555  0.00  0.00    +0.000 A 
ATOM      4  C   UNL     1       2.991   6.521  18.434  0.00  0.00    +0.000 A 
ATOM      5  N   UNL     1       2.079   7.288  19.094  0.00  0.00    +0.000 N 
ATOM      6  C   UNL     1       2.005   8.519  18.516  0.00  0.00    +0.000 A 
ATOM      7  N   UNL     1       0.992   9.316  18.896  0.00  0.00    +0.000 N 
ATOM      8  C   UNL     1       0.556  10.438  18.041  0.00  0.00    +0.000 C 
ATOM      9  C   UNL     1      -0.951  10.739  18.316  0.00  0.00    +0.000 C 
ATOM     10  N   UNL     1      -1.135  10.950  19.773  0.00  0.00    +0.000 N 
ATOM     11  C   UNL     1      -0.746   9.779  20.564  0.00  0.00    +0.000 C 
ATOM     12  C   UNL     1       0.765   9.552  20.335  0.00  0.00    +0.000 C 
ATOM     13  N   UNL     1       2.921   8.642  17.583  0.00  0.00    +0.000 NA
ATOM     14  C   UNL     1       3.573   7.427  17.554  0.00  0.00    +0.000 A 
ATOM     15  C   UNL     1       4.658   7.010  16.776  0.00  0.00    +0.000 A 
ATOM     16  H   UNL     1       1.461   6.975  19.822  0.00  0.00    +0.000 HD
ENDROOT
BRANCH   3  17
ATOM     17  C   UNL     1       2.611   4.240  19.458  0.00  0.00    +0.000 A 
ATOM     18  C   UNL     1       2.779   4.299  20.846  0.00  0.00    +0.000 A 
ATOM     19  C   UNL     1       2.081   3.416  21.659  0.00  0.00    +0.000 A 
ATOM     20  N   UNL     1       1.214   2.493  21.199  0.00  0.00    +0.000 NA
ATOM     21  C   UNL     1       1.066   2.426  19.864  0.00  0.00    +0.000 A 
ATOM     22  C   UNL     1       1.745   3.246  18.973  0.00  0.00    +0.000 A 
ENDBRANCH   3  17
BRANCH  10  23
ATOM     23  C   UNL     1      -1.974  11.929  20.231  0.00  0.00    +0.000 A 
ATOM     24  N   UNL     1      -3.131  12.084  19.535  0.00  0.00    +0.000 NA
ATOM     25  C   UNL     1      -4.007  13.050  19.883  0.00  0.00    +0.000 A 
ATOM     26  C   UNL     1      -3.803  13.917  20.930  0.00  0.00    +0.000 A 
ATOM     27  C   UNL     1      -2.630  13.776  21.642  0.00  0.00    +0.000 A 
ATOM     28  C   UNL     1      -1.679  12.793  21.291  0.00  0.00    +0.000 A 
BRANCH  28  29
ATOM     29  C   UNL     1      -0.407  12.825  22.088  0.00  0.00    +0.000 C 
ATOM     30  F   UNL     1       0.767  12.790  21.409  0.00  0.00    +0.000 F 
ATOM     31  F   UNL     1      -0.313  13.952  22.856  0.00  0.00    +0.000 F 
ATOM     32  F   UNL     1      -0.341  11.787  22.974  0.00  0.00    +0.000 F 
ENDBRANCH  28  29
ENDBRANCH  10  23
BRANCH   1  34
ATOM     33  F   UNL     1       5.964   5.100  14.719  0.00  0.00    +0.000 F 
ATOM     34  C   UNL     1       6.253   5.201  16.048  0.00  0.00    +0.000 C 
ATOM     35  F   UNL     1       6.691   3.967  16.423  0.00  0.00    +0.000 F 
ATOM     36  F   UNL     1       7.331   6.027  16.132  0.00  0.00    +0.000 F 
ENDBRANCH   1  34
TORSDOF 4
ENDMDL
MODEL 5
REMARK VINA RESULT:      -8.6      2.713     10.069
REMARK  Name = 
REMARK  4 active torsions:
REMARK  status: ('A' for Active; 'I' for Inactive)
REMARK    1  A    between atoms: C_2  and  C_5
REMARK    2  A    between atoms: C_7  and  C_8
REMARK    3  A    between atoms: N_20  and  C_21
REMARK    4  A    between atoms: C_26  and  C_27
REMARK                            x       y       z     vdW  Elec       q    Type
REMARK                         _______ _______ _______ _____ _____    ______ ____
ROOT
ATOM      1  C   UNL     1      -1.984  12.781  22.104  0.00  0.00    +0.000 A 
ATOM      2  C   UNL     1      -2.688  12.638  20.889  0.00  0.00    +0.000 A 
ATOM      3  C   UNL     1      -2.253  11.803  19.840  0.00  0.00    +0.000 A 
ATOM      4  C   UNL     1      -1.052  11.135  20.116  0.00  0.00    +0.000 A 
ATOM      5  N   UNL     1      -0.273  10.321  19.352  0.00  0.00    +0.000 N 
ATOM      6  C   UNL     1       0.722   9.784  20.113  0.00  0.00    +0.000 A 
ATOM      7  N   UNL     1       1.436   8.782  19.572  0.00  0.00    +0.000 N 
ATOM      8  C   UNL     1       2.197   7.852  20.431  0.00  0.00    +0.000 C 
ATOM      9  C   UNL     1       2.338   6.479  19.702  0.00  0.00    +0.000 C 
ATOM     10  N   UNL     1       2.920   6.712  18.358  0.00  0.00    +0.000 N 
ATOM     11  C   UNL     1       2.089   7.591  17.530  0.00  0.00    +0.000 C 
ATOM     12  C   UNL     1       2.031   8.964  18.234  0.00  0.00    +0.000 C 
ATOM     13  N   UNL     1       0.711  10.309  21.317  0.00  0.00    +0.000 NA
ATOM     14  C   UNL     1      -0.354  11.186  21.318  0.00  0.00    +0.000 A 
ATOM     15  C   UNL     1      -0.809  12.041  22.327  0.00  0.00    +0.000 A 
ATOM     16  H   UNL     1      -0.456  10.050  18.402  0.00  0.00    +0.000 HD
ENDROOT
BRANCH   3  17
ATOM     17  C   UNL     1      -2.984  11.638  18.564  0.00  0.00    +0.000 A 
ATOM     18  C   UNL     1      -4.376  11.761  18.501  0.00  0.00    +0.000 A 
ATOM     19  C   UNL     1      -5.023  11.605  17.282  0.00  0.00    +0.000 A 
ATOM     20  N   UNL     1      -4.390  11.358  16.118  0.00  0.00    +0.000 NA
ATOM     21  C   UNL     1      -3.054  11.224  16.184  0.00  0.00    +0.000 A 
ATOM     22  C   UNL     1      -2.326  11.332  17.361  0.00  0.00    +0.000 A 
ENDBRANCH   3  17
BRANCH  10  23
ATOM     23  C   UNL     1       3.855   5.852  17.849  0.00  0.00    +0.000 A 
ATOM     24  N   UNL     1       5.075   6.395  17.594  0.00  0.00    +0.000 NA
ATOM     25  C   UNL     1       6.053   5.639  17.052  0.00  0.00    +0.000 A 
ATOM     26  C   UNL     1       5.896   4.311  16.732  0.00  0.00    +0.000 A 
ATOM     27  C   UNL     1       4.661   3.748  16.979  0.00  0.00    +0.000 A 
ATOM     28  C   UNL     1       3.607   4.515  17.521  0.00  0.00    +0.000 A 
BRANCH  28  29
ATOM     29  C   UNL     1       2.293   3.797  17.639  0.00  0.00    +0.000 C 
ATOM     30  F   UNL     1       1.176   4.448  17.226  0.00  0.00    +0.000 F 
ATOM     31  F   UNL     1       2.282   2.631  16.925  0.00  0.00    +0.000 F 
ATOM     32  F   UNL     1       2.036   3.424  18.928  0.00  0.00    +0.000 F 
ENDBRANCH  28  29
ENDBRANCH  10  23
BRANCH   1  34
ATOM     33  F   UNL     1      -3.513  13.175  23.913  0.00  0.00    +0.000 F 
ATOM     34  C   UNL     1      -2.495  13.708  23.178  0.00  0.00    +0.000 C 
ATOM     35  F   UNL     1      -2.982  14.874  22.669  0.00  0.00    +0.000 F 
ATOM     36  F   UNL     1      -1.534  14.059  24.074  0.00  0.00    +0.000 F 
ENDBRANCH   1  34
TORSDOF 4
ENDMDL
MODEL 6
REMARK VINA RESULT:      -8.6      0.826      1.436
REMARK  Name = 
REMARK  4 active torsions:
REMARK  status: ('A' for Active; 'I' for Inactive)
REMARK    1  A    between atoms: C_2  and  C_5
REMARK    2  A    between atoms: C_7  and  C_8
REMARK    3  A    between atoms: N_20  and  C_21
REMARK    4  A    between atoms: C_26  and  C_27
REMARK                            x       y       z     vdW  Elec       q    Type
REMARK                         _______ _______ _______ _____ _____    ______ ____
ROOT
ATOM      1  C   UNL     1       4.853   5.394  16.588  0.00  0.00    +0.000 A 
ATOM      2  C   UNL     1       4.237   4.555  17.542  0.00  0.00    +0.000 A 
ATOM      3  C   UNL     1       3.289   5.017  18.476  0.00  0.00    +0.000 A 
ATOM      4  C   UNL     1       3.022   6.389  18.373  0.00  0.00    +0.000 A 
ATOM      5  N   UNL     1       2.249   7.220  19.125  0.00  0.00    +0.000 N 
ATOM      6  C   UNL     1       2.181   8.447  18.537  0.00  0.00    +0.000 A 
ATOM      7  N   UNL     1       1.273   9.312  19.024  0.00  0.00    +0.000 N 
ATOM      8  C   UNL     1       0.807  10.451  18.208  0.00  0.00    +0.000 C 
ATOM      9  C   UNL     1      -0.633  10.850  18.660  0.00  0.00    +0.000 C 
ATOM     10  N   UNL     1      -0.623  11.088  20.124  0.00  0.00    +0.000 N 
ATOM     11  C   UNL     1      -0.212   9.904  20.884  0.00  0.00    +0.000 C 
ATOM     12  C   UNL     1       1.241   9.578  20.476  0.00  0.00    +0.000 C 
ATOM     13  N   UNL     1       2.980   8.502  17.497  0.00  0.00    +0.000 NA
ATOM     14  C   UNL     1       3.547   7.247  17.411  0.00  0.00    +0.000 A 
ATOM     15  C   UNL     1       4.499   6.753  16.514  0.00  0.00    +0.000 A 
ATOM     16  H   UNL     1       1.706   6.955  19.929  0.00  0.00    +0.000 HD
ENDROOT
BRANCH   3  17
ATOM     17  C   UNL     1       2.630   4.148  19.477  0.00  0.00    +0.000 A 
ATOM     18  C   UNL     1       3.362   3.525  20.494  0.00  0.00    +0.000 A 
ATOM     19  C   UNL     1       2.705   2.722  21.418  0.00  0.00    +0.000 A 
ATOM     20  N   UNL     1       1.375   2.510  21.420  0.00  0.00    +0.000 NA
ATOM     21  C   UNL     1       0.676   3.096  20.432  0.00  0.00    +0.000 A 
ATOM     22  C   UNL     1       1.251   3.889  19.448  0.00  0.00    +0.000 A 
ENDBRANCH   3  17
BRANCH  10  23
ATOM     23  C   UNL     1      -1.336  12.124  20.663  0.00  0.00    +0.000 A 
ATOM     24  N   UNL     1      -2.269  11.776  21.589  0.00  0.00    +0.000 NA
ATOM     25  C   UNL     1      -3.052  12.721  22.149  0.00  0.00    +0.000 A 
ATOM     26  C   UNL     1      -2.966  14.058  21.842  0.00  0.00    +0.000 A 
ATOM     27  C   UNL     1      -2.028  14.426  20.899  0.00  0.00    +0.000 A 
ATOM     28  C   UNL     1      -1.209  13.462  20.274  0.00  0.00    +0.000 A 
BRANCH  28  29
ATOM     29  C   UNL     1      -0.308  13.995  19.196  0.00  0.00    +0.000 C 
ATOM     30  F   UNL     1      -0.585  13.653  17.913  0.00  0.00    +0.000 F 
ATOM     31  F   UNL     1      -0.285  15.362  19.180  0.00  0.00    +0.000 F 
ATOM     32  F   UNL     1       0.991  13.622  19.396  0.00  0.00    +0.000 F 
ENDBRANCH  28  29
ENDBRANCH  10  23
BRANCH   1  34
ATOM     33  F   UNL     1       6.278   3.573  15.942  0.00  0.00    +0.000 F 
ATOM     34  C   UNL     1       5.876   4.838  15.629  0.00  0.00    +0.000 C 
ATOM     35  F   UNL     1       7.014   5.587  15.593  0.00  0.00    +0.000 F 
ATOM     36  F   UNL     1       5.423   4.777  14.349  0.00  0.00    +0.000 F 
ENDBRANCH   1  34
TORSDOF 4
ENDMDL
MODEL 7
REMARK VINA RESULT:      -8.6      2.710     10.076
REMARK  Name = 
REMARK  4 active torsions:
REMARK  status: ('A' for Active; 'I' for Inactive)
REMARK    1  A    between atoms: C_2  and  C_5
REMARK    2  A    between atoms: C_7  and  C_8
REMARK    3  A    between atoms: N_20  and  C_21
REMARK    4  A    between atoms: C_26  and  C_27
REMARK                            x       y       z     vdW  Elec       q    Type
REMARK                         _______ _______ _______ _____ _____    ______ ____
ROOT
ATOM      1  C   UNL     1      -1.970  12.795  22.183  0.00  0.00    +0.000 A 
ATOM      2  C   UNL     1      -2.680  12.671  20.968  0.00  0.00    +0.000 A 
ATOM      3  C   UNL     1      -2.259  11.840  19.911  0.00  0.00    +0.000 A 
ATOM      4  C   UNL     1      -1.064  11.156  20.177  0.00  0.00    +0.000 A 
ATOM      5  N   UNL     1      -0.298  10.339  19.402  0.00  0.00    +0.000 N 
ATOM      6  C   UNL     1       0.693   9.784  20.154  0.00  0.00    +0.000 A 
ATOM      7  N   UNL     1       1.394   8.778  19.602  0.00  0.00    +0.000 N 
ATOM      8  C   UNL     1       2.147   7.832  20.450  0.00  0.00    +0.000 C 
ATOM      9  C   UNL     1       2.269   6.464  19.709  0.00  0.00    +0.000 C 
ATOM     10  N   UNL     1       2.849   6.702  18.364  0.00  0.00    +0.000 N 
ATOM     11  C   UNL     1       2.025   7.598  17.547  0.00  0.00    +0.000 C 
ATOM     12  C   UNL     1       1.986   8.966  18.263  0.00  0.00    +0.000 C 
ATOM     13  N   UNL     1       0.694  10.299  21.363  0.00  0.00    +0.000 NA
ATOM     14  C   UNL     1      -0.362  11.188  21.376  0.00  0.00    +0.000 A 
ATOM     15  C   UNL     1      -0.802  12.039  22.394  0.00  0.00    +0.000 A 
ATOM     16  H   UNL     1      -0.488  10.079  18.450  0.00  0.00    +0.000 HD
ENDROOT
BRANCH   3  17
ATOM     17  C   UNL     1      -2.996  11.695  18.636  0.00  0.00    +0.000 A 
ATOM     18  C   UNL     1      -2.332  11.393  17.442  0.00  0.00    +0.000 A 
ATOM     19  C   UNL     1      -3.062  11.259  16.267  0.00  0.00    +0.000 A 
ATOM     20  N   UNL     1      -4.402  11.381  16.195  0.00  0.00    +0.000 NA
ATOM     21  C   UNL     1      -5.036  11.687  17.340  0.00  0.00    +0.000 A 
ATOM     22  C   UNL     1      -4.387  11.870  18.554  0.00  0.00    +0.000 A 
ENDBRANCH   3  17
BRANCH  10  23
ATOM     23  C   UNL     1       3.771   5.836  17.844  0.00  0.00    +0.000 A 
ATOM     24  N   UNL     1       4.974   6.382  17.523  0.00  0.00    +0.000 NA
ATOM     25  C   UNL     1       5.937   5.619  16.965  0.00  0.00    +0.000 A 
ATOM     26  C   UNL     1       5.782   4.281  16.693  0.00  0.00    +0.000 A 
ATOM     27  C   UNL     1       4.564   3.714  17.006  0.00  0.00    +0.000 A 
ATOM     28  C   UNL     1       3.525   4.487  17.568  0.00  0.00    +0.000 A 
BRANCH  28  29
ATOM     29  C   UNL     1       2.225   3.760  17.760  0.00  0.00    +0.000 C 
ATOM     30  F   UNL     1       1.830   3.494  19.031  0.00  0.00    +0.000 F 
ATOM     31  F   UNL     1       1.171   4.445  17.220  0.00  0.00    +0.000 F 
ATOM     32  F   UNL     1       2.224   2.551  17.124  0.00  0.00    +0.000 F 
ENDBRANCH  28  29
ENDBRANCH  10  23
BRANCH   1  34
ATOM     33  F   UNL     1      -3.198  14.765  22.790  0.00  0.00    +0.000 F 
ATOM     34  C   UNL     1      -2.466  13.719  23.266  0.00  0.00    +0.000 C 
ATOM     35  F   UNL     1      -1.447  14.277  23.979  0.00  0.00    +0.000 F 
ATOM     36  F   UNL     1      -3.261  13.090  24.173  0.00  0.00    +0.000 F 
ENDBRANCH   1  34
TORSDOF 4
ENDMDL
MODEL 8
REMARK VINA RESULT:      -8.6      2.913      4.604
REMARK  Name = 
REMARK  4 active torsions:
REMARK  status: ('A' for Active; 'I' for Inactive)
REMARK    1  A    between atoms: C_2  and  C_5
REMARK    2  A    between atoms: C_7  and  C_8
REMARK    3  A    between atoms: N_20  and  C_21
REMARK    4  A    between atoms: C_26  and  C_27
REMARK                            x       y       z     vdW  Elec       q    Type
REMARK                         _______ _______ _______ _____ _____    ______ ____
ROOT
ATOM      1  C   UNL     1       2.344   4.040  20.575  0.00  0.00    +0.000 A 
ATOM      2  C   UNL     1       3.384   4.304  19.657  0.00  0.00    +0.000 A 
ATOM      3  C   UNL     1       3.593   5.568  19.071  0.00  0.00    +0.000 A 
ATOM      4  C   UNL     1       2.665   6.536  19.480  0.00  0.00    +0.000 A 
ATOM      5  N   UNL     1       2.475   7.828  19.093  0.00  0.00    +0.000 N 
ATOM      6  C   UNL     1       1.542   8.417  19.891  0.00  0.00    +0.000 A 
ATOM      7  N   UNL     1       1.406   9.752  19.795  0.00  0.00    +0.000 N 
ATOM      8  C   UNL     1       0.786  10.525  20.889  0.00  0.00    +0.000 C 
ATOM      9  C   UNL     1       1.343  11.983  20.868  0.00  0.00    +0.000 C 
ATOM     10  N   UNL     1       1.147  12.547  19.510  0.00  0.00    +0.000 N 
ATOM     11  C   UNL     1       1.838  11.773  18.475  0.00  0.00    +0.000 C 
ATOM     12  C   UNL     1       1.214  10.360  18.464  0.00  0.00    +0.000 C 
ATOM     13  N   UNL     1       1.013   7.535  20.707  0.00  0.00    +0.000 NA
ATOM     14  C   UNL     1       1.666   6.351  20.429  0.00  0.00    +0.000 A 
ATOM     15  C   UNL     1       1.480   5.077  20.974  0.00  0.00    +0.000 A 
ATOM     16  H   UNL     1       3.014   8.323  18.404  0.00  0.00    +0.000 HD
ENDROOT
BRANCH   3  17
ATOM     17  C   UNL     1       4.682   5.860  18.113  0.00  0.00    +0.000 A 
ATOM     18  C   UNL     1       4.417   6.096  16.759  0.00  0.00    +0.000 A 
ATOM     19  C   UNL     1       5.468   6.373  15.893  0.00  0.00    +0.000 A 
ATOM     20  N   UNL     1       6.758   6.454  16.275  0.00  0.00    +0.000 NA
ATOM     21  C   UNL     1       7.012   6.210  17.573  0.00  0.00    +0.000 A 
ATOM     22  C   UNL     1       6.030   5.896  18.503  0.00  0.00    +0.000 A 
ENDBRANCH   3  17
BRANCH  10  23
ATOM     23  C   UNL     1       0.757  13.848  19.349  0.00  0.00    +0.000 A 
ATOM     24  N   UNL     1       1.724  14.702  18.919  0.00  0.00    +0.000 NA
ATOM     25  C   UNL     1       1.450  16.015  18.768  0.00  0.00    +0.000 A 
ATOM     26  C   UNL     1       0.218  16.567  19.026  0.00  0.00    +0.000 A 
ATOM     27  C   UNL     1      -0.771  15.714  19.470  0.00  0.00    +0.000 A 
ATOM     28  C   UNL     1      -0.514  14.340  19.663  0.00  0.00    +0.000 A 
BRANCH  28  29
ATOM     29  C   UNL     1      -1.654  13.555  20.246  0.00  0.00    +0.000 C 
ATOM     30  F   UNL     1      -1.489  13.022  21.483  0.00  0.00    +0.000 F 
ATOM     31  F   UNL     1      -2.790  14.309  20.358  0.00  0.00    +0.000 F 
ATOM     32  F   UNL     1      -2.005  12.505  19.446  0.00  0.00    +0.000 F 
ENDBRANCH  28  29
ENDBRANCH  10  23
BRANCH   1  34
ATOM     33  F   UNL     1       3.279   2.185  21.776  0.00  0.00    +0.000 F 
ATOM     34  C   UNL     1       2.164   2.658  21.150  0.00  0.00    +0.000 C 
ATOM     35  F   UNL     1       1.859   1.735  20.196  0.00  0.00    +0.000 F 
ATOM     36  F   UNL     1       1.165   2.595  22.070  0.00  0.00    +0.000 F 
ENDBRANCH   1  34
TORSDOF 4
ENDMDL
MODEL 9
REMARK VINA RESULT:      -8.5      3.076      4.663
REMARK  Name = 
REMARK  4 active torsions:
REMARK  status: ('A' for Active; 'I' for Inactive)
REMARK    1  A    between atoms: C_2  and  C_5
REMARK    2  A    between atoms: C_7  and  C_8
REMARK    3  A    between atoms: N_20  and  C_21
REMARK    4  A    between atoms: C_26  and  C_27
REMARK                            x       y       z     vdW  Elec       q    Type
REMARK                         _______ _______ _______ _____ _____    ______ ____
ROOT
ATOM      1  C   UNL     1       2.285   4.068  20.527  0.00  0.00    +0.000 A 
ATOM      2  C   UNL     1       3.348   4.264  19.618  0.00  0.00    +0.000 A 
ATOM      3  C   UNL     1       3.622   5.505  19.010  0.00  0.00    +0.000 A 
ATOM      4  C   UNL     1       2.735   6.523  19.386  0.00  0.00    +0.000 A 
ATOM      5  N   UNL     1       2.610   7.814  18.970  0.00  0.00    +0.000 N 
ATOM      6  C   UNL     1       1.695   8.462  19.743  0.00  0.00    +0.000 A 
ATOM      7  N   UNL     1       1.622   9.799  19.619  0.00  0.00    +0.000 N 
ATOM      8  C   UNL     1       1.024  10.623  20.688  0.00  0.00    +0.000 C 
ATOM      9  C   UNL     1       1.648  12.053  20.645  0.00  0.00    +0.000 C 
ATOM     10  N   UNL     1       1.496  12.596  19.273  0.00  0.00    +0.000 N 
ATOM     11  C   UNL     1       2.164  11.770  18.263  0.00  0.00    +0.000 C 
ATOM     12  C   UNL     1       1.476  10.388  18.273  0.00  0.00    +0.000 C 
ATOM     13  N   UNL     1       1.115   7.622  20.569  0.00  0.00    +0.000 NA
ATOM     14  C   UNL     1       1.716   6.404  20.325  0.00  0.00    +0.000 A 
ATOM     15  C   UNL     1       1.464   5.151  20.892  0.00  0.00    +0.000 A 
ATOM     16  H   UNL     1       3.180   8.270  18.280  0.00  0.00    +0.000 HD
ENDROOT
BRANCH   3  17
ATOM     17  C   UNL     1       4.737   5.727  18.061  0.00  0.00    +0.000 A 
ATOM     18  C   UNL     1       4.522   5.751  16.678  0.00  0.00    +0.000 A 
ATOM     19  C   UNL     1       5.593   5.968  15.822  0.00  0.00    +0.000 A 
ATOM     20  N   UNL     1       6.857   6.184  16.237  0.00  0.00    +0.000 NA
ATOM     21  C   UNL     1       7.065   6.144  17.564  0.00  0.00    +0.000 A 
ATOM     22  C   UNL     1       6.061   5.903  18.493  0.00  0.00    +0.000 A 
ENDBRANCH   3  17
BRANCH  10  23
ATOM     23  C   UNL     1       1.169  13.911  19.081  0.00  0.00    +0.000 A 
ATOM     24  N   UNL     1      -0.156  14.170  18.927  0.00  0.00    +0.000 NA
ATOM     25  C   UNL     1      -0.577  15.430  18.691  0.00  0.00    +0.000 A 
ATOM     26  C   UNL     1       0.270  16.508  18.596  0.00  0.00    +0.000 A 
ATOM     27  C   UNL     1       1.619  16.260  18.744  0.00  0.00    +0.000 A 
ATOM     28  C   UNL     1       2.098  14.951  18.967  0.00  0.00    +0.000 A 
BRANCH  28  29
ATOM     29  C   UNL     1       3.594  14.818  19.004  0.00  0.00    +0.000 C 
ATOM     30  F   UNL     1       4.193  14.117  18.009  0.00  0.00    +0.000 F 
ATOM     31  F   UNL     1       4.215  16.036  18.976  0.00  0.00    +0.000 F 
ATOM     32  F   UNL     1       4.019  14.232  20.164  0.00  0.00    +0.000 F 
ENDBRANCH  28  29
ENDBRANCH  10  23
BRANCH   1  34
ATOM     33  F   UNL     1       1.010   2.696  22.027  0.00  0.00    +0.000 F 
ATOM     34  C   UNL     1       2.034   2.708  21.127  0.00  0.00    +0.000 C 
ATOM     35  F   UNL     1       3.118   2.228  21.797  0.00  0.00    +0.000 F 
ATOM     36  F   UNL     1       1.720   1.769  20.195  0.00  0.00    +0.000 F 
ENDBRANCH   1  34
TORSDOF 4
ENDMDL
