MODEL 1
REMARK VINA RESULT:      -7.1      0.000      0.000
REMARK  Name = 
REMARK  6 active torsions:
REMARK  status: ('A' for Active; 'I' for Inactive)
REMARK    1  A    between atoms: C_1  and  C_2
REMARK    2  A    between atoms: C_5  and  O_6
REMARK    3  A    between atoms: O_6  and  C_7
REMARK    4  A    between atoms: C_7  and  C_8
REMARK    5  A    between atoms: C_8  and  C_9
REMARK    6  A    between atoms: C_9  and  C_10
REMARK                            x       y       z     vdW  Elec       q    Type
REMARK                         _______ _______ _______ _____ _____    ______ ____
ROOT
ATOM      1  C   UNL     1       7.408   6.218  17.683  0.00  0.00    +0.000 C 
ENDROOT
BRANCH   1   2
ATOM      2  C   UNL     1       6.653   6.239  16.358  0.00  0.00    +0.000 C 
BRANCH   2   3
ATOM      3  O   UNL     1       7.579   5.858  15.339  0.00  0.00    +0.000 OA
BRANCH   3   8
ATOM      4  C   UNL     1       5.196   2.555  11.387  0.00  0.00    +0.000 C 
ATOM      5  C   UNL     1       5.846   3.422  12.424  0.00  0.00    +0.000 A 
ATOM      6  C   UNL     1       5.282   3.576  13.695  0.00  0.00    +0.000 A 
ATOM      7  C   UNL     1       5.897   4.398  14.642  0.00  0.00    +0.000 A 
ATOM      8  C   UNL     1       7.087   5.064  14.342  0.00  0.00    +0.000 A 
ATOM      9  C   UNL     1       7.646   4.923  13.073  0.00  0.00    +0.000 A 
ATOM     10  C   UNL     1       7.028   4.106  12.121  0.00  0.00    +0.000 A 
ENDBRANCH   3   8
ENDBRANCH   2   3
ENDBRANCH   1   2
BRANCH   1  11
ATOM     11  C   UNL     1       7.223   4.903  18.422  0.00  0.00    +0.000 C 
BRANCH  11  12
ATOM     12  C   UNL     1       5.796   4.733  18.893  0.00  0.00    +0.000 C 
ATOM     13  O   UNL     1       5.322   5.532  19.703  0.00  0.00    +0.000 OA
ATOM     14  N   UNL     1       5.172   3.624  18.370  0.00  0.00    +0.000 N 
ATOM     15  C   UNL     1       3.873   3.340  18.671  0.00  0.00    +0.000 A 
ATOM     16  N   UNL     1       2.965   4.107  19.217  0.00  0.00    +0.000 NA
ATOM     17  C   UNL     1       1.808   3.387  19.415  0.00  0.00    +0.000 A 
ATOM     18  C   UNL     1       1.852   2.073  19.001  0.00  0.00    +0.000 A 
ATOM     19  S   UNL     1       3.375   1.754  18.269  0.00  0.00    +0.000 S 
ATOM     20  H   UNL     1       5.694   2.922  17.872  0.00  0.00    +0.000 HD
ENDBRANCH  11  12
ENDBRANCH   1  11
TORSDOF 5
ENDMDL
MODEL 2
REMARK VINA RESULT:      -6.7      0.986      1.503
REMARK  Name = 
REMARK  6 active torsions:
REMARK  status: ('A' for Active; 'I' for Inactive)
REMARK    1  A    between atoms: C_1  and  C_2
REMARK    2  A    between atoms: C_5  and  O_6
REMARK    3  A    between atoms: O_6  and  C_7
REMARK    4  A    between atoms: C_7  and  C_8
REMARK    5  A    between atoms: C_8  and  C_9
REMARK    6  A    between atoms: C_9  and  C_10
REMARK                            x       y       z     vdW  Elec       q    Type
REMARK                         _______ _______ _______ _____ _____    ______ ____
ROOT
ATOM      1  C   UNL     1       7.506   5.927  18.124  0.00  0.00    +0.000 C 
ENDROOT
BRANCH   1   2
ATOM      2  C   UNL     1       7.607   4.844  17.056  0.00  0.00    +0.000 C 
BRANCH   2   3
ATOM      3  O   UNL     1       7.614   5.503  15.787  0.00  0.00    +0.000 OA
BRANCH   3   8
ATOM      4  C   UNL     1       4.946   2.985  11.457  0.00  0.00    +0.000 C 
ATOM      5  C   UNL     1       5.633   3.659  12.608  0.00  0.00    +0.000 A 
ATOM      6  C   UNL     1       6.913   4.204  12.469  0.00  0.00    +0.000 A 
ATOM      7  C   UNL     1       7.539   4.815  13.558  0.00  0.00    +0.000 A 
ATOM      8  C   UNL     1       6.892   4.907  14.792  0.00  0.00    +0.000 A 
ATOM      9  C   UNL     1       5.621   4.355  14.939  0.00  0.00    +0.000 A 
ATOM     10  C   UNL     1       4.995   3.735  13.852  0.00  0.00    +0.000 A 
ENDBRANCH   3   8
ENDBRANCH   2   3
ENDBRANCH   1   2
BRANCH   1  11
ATOM     11  C   UNL     1       6.609   5.507  19.276  0.00  0.00    +0.000 C 
BRANCH  11  12
ATOM     12  C   UNL     1       5.175   5.337  18.824  0.00  0.00    +0.000 C 
ATOM     13  O   UNL     1       4.591   6.278  18.285  0.00  0.00    +0.000 OA
ATOM     14  N   UNL     1       4.648   4.101  19.121  0.00  0.00    +0.000 N 
ATOM     15  C   UNL     1       3.376   3.773  18.757  0.00  0.00    +0.000 A 
ATOM     16  N   UNL     1       2.580   4.370  17.907  0.00  0.00    +0.000 NA
ATOM     17  C   UNL     1       1.351   3.749  17.906  0.00  0.00    +0.000 A 
ATOM     18  C   UNL     1       1.235   2.670  18.756  0.00  0.00    +0.000 A 
ATOM     19  S   UNL     1       2.746   2.382  19.527  0.00  0.00    +0.000 S 
ATOM     20  H   UNL     1       5.130   3.465  19.735  0.00  0.00    +0.000 HD
ENDBRANCH  11  12
ENDBRANCH   1  11
TORSDOF 5
ENDMDL
MODEL 3
REMARK VINA RESULT:      -6.5      3.538      6.721
REMARK  Name = 
REMARK  6 active torsions:
REMARK  status: ('A' for Active; 'I' for Inactive)
REMARK    1  A    between atoms: C_1  and  C_2
REMARK    2  A    between atoms: C_5  and  O_6
REMARK    3  A    between atoms: O_6  and  C_7
REMARK    4  A    between atoms: C_7  and  C_8
REMARK    5  A    between atoms: C_8  and  C_9
REMARK    6  A    between atoms: C_9  and  C_10
REMARK                            x       y       z     vdW  Elec       q    Type
REMARK                         _______ _______ _______ _____ _____    ______ ____
ROOT
ATOM      1  C   UNL     1       2.045   2.329  20.012  0.00  0.00    +0.000 C 
ENDROOT
BRANCH   1   2
ATOM      2  C   UNL     1       1.188   3.588  19.934  0.00  0.00    +0.000 C 
BRANCH   2   3
ATOM      3  O   UNL     1       1.856   4.600  20.691  0.00  0.00    +0.000 OA
BRANCH   3   8
ATOM      4  C   UNL     1       2.066   9.589  17.994  0.00  0.00    +0.000 C 
ATOM      5  C   UNL     1       2.018   8.280  18.725  0.00  0.00    +0.000 A 
ATOM      6  C   UNL     1       2.350   7.082  18.086  0.00  0.00    +0.000 A 
ATOM      7  C   UNL     1       2.286   5.872  18.782  0.00  0.00    +0.000 A 
ATOM      8  C   UNL     1       1.906   5.843  20.125  0.00  0.00    +0.000 A 
ATOM      9  C   UNL     1       1.563   7.034  20.763  0.00  0.00    +0.000 A 
ATOM     10  C   UNL     1       1.619   8.245  20.066  0.00  0.00    +0.000 A 
ENDBRANCH   3   8
ENDBRANCH   2   3
ENDBRANCH   1   2
BRANCH   1  11
ATOM     11  C   UNL     1       2.902   2.148  18.770  0.00  0.00    +0.000 C 
BRANCH  11  12
ATOM     12  C   UNL     1       4.211   2.896  18.890  0.00  0.00    +0.000 C 
ATOM     13  O   UNL     1       4.902   2.755  19.901  0.00  0.00    +0.000 OA
ATOM     14  N   UNL     1       4.471   3.723  17.823  0.00  0.00    +0.000 N 
ATOM     15  C   UNL     1       5.624   4.448  17.760  0.00  0.00    +0.000 A 
ATOM     16  N   UNL     1       6.720   4.319  18.461  0.00  0.00    +0.000 NA
ATOM     17  C   UNL     1       7.607   5.318  18.126  0.00  0.00    +0.000 A 
ATOM     18  C   UNL     1       7.169   6.194  17.155  0.00  0.00    +0.000 A 
ATOM     19  S   UNL     1       5.621   5.698  16.593  0.00  0.00    +0.000 S 
ATOM     20  H   UNL     1       3.762   3.924  17.137  0.00  0.00    +0.000 HD
ENDBRANCH  11  12
ENDBRANCH   1  11
TORSDOF 5
ENDMDL
MODEL 4
REMARK VINA RESULT:      -6.5      5.123      7.548
REMARK  Name = 
REMARK  6 active torsions:
REMARK  status: ('A' for Active; 'I' for Inactive)
REMARK    1  A    between atoms: C_1  and  C_2
REMARK    2  A    between atoms: C_5  and  O_6
REMARK    3  A    between atoms: O_6  and  C_7
REMARK    4  A    between atoms: C_7  and  C_8
REMARK    5  A    between atoms: C_8  and  C_9
REMARK    6  A    between atoms: C_9  and  C_10
REMARK                            x       y       z     vdW  Elec       q    Type
REMARK                         _______ _______ _______ _____ _____    ______ ____
ROOT
ATOM      1  C   UNL     1       8.474   8.117  18.546  0.00  0.00    +0.000 C 
ENDROOT
BRANCH   1   2
ATOM      2  C   UNL     1       8.572   9.622  18.322  0.00  0.00    +0.000 C 
BRANCH   2   3
ATOM      3  O   UNL     1       9.284  10.168  19.434  0.00  0.00    +0.000 OA
BRANCH   3   8
ATOM      4  C   UNL     1      12.305  14.769  18.050  0.00  0.00    +0.000 C 
ATOM      5  C   UNL     1      11.523  13.546  18.428  0.00  0.00    +0.000 A 
ATOM      6  C   UNL     1      10.662  12.927  17.517  0.00  0.00    +0.000 A 
ATOM      7  C   UNL     1       9.933  11.796  17.893  0.00  0.00    +0.000 A 
ATOM      8  C   UNL     1      10.066  11.259  19.175  0.00  0.00    +0.000 A 
ATOM      9  C   UNL     1      10.914  11.878  20.091  0.00  0.00    +0.000 A 
ATOM     10  C   UNL     1      11.639  13.015  19.718  0.00  0.00    +0.000 A 
ENDBRANCH   3   8
ENDBRANCH   2   3
ENDBRANCH   1   2
BRANCH   1  11
ATOM     11  C   UNL     1       7.536   7.454  17.551  0.00  0.00    +0.000 C 
BRANCH  11  12
ATOM     12  C   UNL     1       7.001   6.145  18.087  0.00  0.00    +0.000 C 
ATOM     13  O   UNL     1       7.786   5.295  18.514  0.00  0.00    +0.000 OA
ATOM     14  N   UNL     1       5.634   6.029  17.993  0.00  0.00    +0.000 N 
ATOM     15  C   UNL     1       4.987   4.922  18.458  0.00  0.00    +0.000 A 
ATOM     16  N   UNL     1       5.429   3.979  19.249  0.00  0.00    +0.000 NA
ATOM     17  C   UNL     1       4.466   3.005  19.394  0.00  0.00    +0.000 A 
ATOM     18  C   UNL     1       3.290   3.232  18.712  0.00  0.00    +0.000 A 
ATOM     19  S   UNL     1       3.372   4.759  17.923  0.00  0.00    +0.000 S 
ATOM     20  H   UNL     1       5.093   6.686  17.455  0.00  0.00    +0.000 HD
ENDBRANCH  11  12
ENDBRANCH   1  11
TORSDOF 5
ENDMDL
MODEL 5
REMARK VINA RESULT:      -6.5      3.733      6.892
REMARK  Name = 
REMARK  6 active torsions:
REMARK  status: ('A' for Active; 'I' for Inactive)
REMARK    1  A    between atoms: C_1  and  C_2
REMARK    2  A    between atoms: C_5  and  O_6
REMARK    3  A    between atoms: O_6  and  C_7
REMARK    4  A    between atoms: C_7  and  C_8
REMARK    5  A    between atoms: C_8  and  C_9
REMARK    6  A    between atoms: C_9  and  C_10
REMARK                            x       y       z     vdW  Elec       q    Type
REMARK                         _______ _______ _______ _____ _____    ______ ____
ROOT
ATOM      1  C   UNL     1       1.365   3.706  19.469  0.00  0.00    +0.000 C 
ENDROOT
BRANCH   1   2
ATOM      2  C   UNL     1       1.485   4.685  20.632  0.00  0.00    +0.000 C 
BRANCH   2   3
ATOM      3  O   UNL     1       2.555   5.580  20.321  0.00  0.00    +0.000 OA
BRANCH   3   8
ATOM      4  C   UNL     1       1.019  10.709  18.440  0.00  0.00    +0.000 C 
ATOM      5  C   UNL     1       1.421   9.345  18.918  0.00  0.00    +0.000 A 
ATOM      6  C   UNL     1       1.126   8.917  20.216  0.00  0.00    +0.000 A 
ATOM      7  C   UNL     1       1.521   7.647  20.644  0.00  0.00    +0.000 A 
ATOM      8  C   UNL     1       2.199   6.784  19.781  0.00  0.00    +0.000 A 
ATOM      9  C   UNL     1       2.506   7.211  18.491  0.00  0.00    +0.000 A 
ATOM     10  C   UNL     1       2.118   8.484  18.062  0.00  0.00    +0.000 A 
ENDBRANCH   3   8
ENDBRANCH   2   3
ENDBRANCH   1   2
BRANCH   1  11
ATOM     11  C   UNL     1       2.415   2.610  19.538  0.00  0.00    +0.000 C 
BRANCH  11  12
ATOM     12  C   UNL     1       3.432   2.750  18.427  0.00  0.00    +0.000 C 
ATOM     13  O   UNL     1       3.568   1.839  17.608  0.00  0.00    +0.000 OA
ATOM     14  N   UNL     1       4.154   3.919  18.486  0.00  0.00    +0.000 N 
ATOM     15  C   UNL     1       5.092   4.216  17.542  0.00  0.00    +0.000 A 
ATOM     16  N   UNL     1       5.286   3.668  16.370  0.00  0.00    +0.000 NA
ATOM     17  C   UNL     1       6.399   4.221  15.777  0.00  0.00    +0.000 A 
ATOM     18  C   UNL     1       7.033   5.200  16.512  0.00  0.00    +0.000 A 
ATOM     19  S   UNL     1       6.155   5.486  17.963  0.00  0.00    +0.000 S 
ATOM     20  H   UNL     1       4.113   4.514  19.297  0.00  0.00    +0.000 HD
ENDBRANCH  11  12
ENDBRANCH   1  11
TORSDOF 5
ENDMDL
MODEL 6
REMARK VINA RESULT:      -6.5      1.240      1.818
REMARK  Name = 
REMARK  6 active torsions:
REMARK  status: ('A' for Active; 'I' for Inactive)
REMARK    1  A    between atoms: C_1  and  C_2
REMARK    2  A    between atoms: C_5  and  O_6
REMARK    3  A    between atoms: O_6  and  C_7
REMARK    4  A    between atoms: C_7  and  C_8
REMARK    5  A    between atoms: C_8  and  C_9
REMARK    6  A    between atoms: C_9  and  C_10
REMARK                            x       y       z     vdW  Elec       q    Type
REMARK                         _______ _______ _______ _____ _____    ______ ____
ROOT
ATOM      1  C   UNL     1       6.090   6.978  17.205  0.00  0.00    +0.000 C 
ENDROOT
BRANCH   1   2
ATOM      2  C   UNL     1       6.924   5.712  17.038  0.00  0.00    +0.000 C 
BRANCH   2   3
ATOM      3  O   UNL     1       7.544   5.782  15.752  0.00  0.00    +0.000 OA
BRANCH   3   8
ATOM      4  C   UNL     1       5.562   2.630  11.469  0.00  0.00    +0.000 C 
ATOM      5  C   UNL     1       6.065   3.466  12.608  0.00  0.00    +0.000 A 
ATOM      6  C   UNL     1       7.130   4.356  12.438  0.00  0.00    +0.000 A 
ATOM      7  C   UNL     1       7.592   5.115  13.516  0.00  0.00    +0.000 A 
ATOM      8  C   UNL     1       6.989   5.009  14.771  0.00  0.00    +0.000 A 
ATOM      9  C   UNL     1       5.935   4.115  14.948  0.00  0.00    +0.000 A 
ATOM     10  C   UNL     1       5.476   3.349  13.872  0.00  0.00    +0.000 A 
ENDBRANCH   3   8
ENDBRANCH   2   3
ENDBRANCH   1   2
BRANCH   1  11
ATOM     11  C   UNL     1       4.661   6.784  16.728  0.00  0.00    +0.000 C 
BRANCH  11  12
ATOM     12  C   UNL     1       3.816   6.105  17.783  0.00  0.00    +0.000 C 
ATOM     13  O   UNL     1       3.550   6.702  18.828  0.00  0.00    +0.000 OA
ATOM     14  N   UNL     1       3.457   4.818  17.456  0.00  0.00    +0.000 N 
ATOM     15  C   UNL     1       2.671   4.074  18.285  0.00  0.00    +0.000 A 
ATOM     16  N   UNL     1       1.943   4.462  19.300  0.00  0.00    +0.000 NA
ATOM     17  C   UNL     1       1.374   3.365  19.909  0.00  0.00    +0.000 A 
ATOM     18  C   UNL     1       1.674   2.149  19.334  0.00  0.00    +0.000 A 
ATOM     19  S   UNL     1       2.643   2.401  17.935  0.00  0.00    +0.000 S 
ATOM     20  H   UNL     1       3.880   4.345  16.674  0.00  0.00    +0.000 HD
ENDBRANCH  11  12
ENDBRANCH   1  11
TORSDOF 5
ENDMDL
MODEL 7
REMARK VINA RESULT:      -6.5      3.855      7.090
REMARK  Name = 
REMARK  6 active torsions:
REMARK  status: ('A' for Active; 'I' for Inactive)
REMARK    1  A    between atoms: C_1  and  C_2
REMARK    2  A    between atoms: C_5  and  O_6
REMARK    3  A    between atoms: O_6  and  C_7
REMARK    4  A    between atoms: C_7  and  C_8
REMARK    5  A    between atoms: C_8  and  C_9
REMARK    6  A    between atoms: C_9  and  C_10
REMARK                            x       y       z     vdW  Elec       q    Type
REMARK                         _______ _______ _______ _____ _____    ______ ____
ROOT
ATOM      1  C   UNL     1       1.621   4.166  19.374  0.00  0.00    +0.000 C 
ENDROOT
BRANCH   1   2
ATOM      2  C   UNL     1       2.051   5.076  20.520  0.00  0.00    +0.000 C 
BRANCH   2   3
ATOM      3  O   UNL     1       2.839   6.124  19.953  0.00  0.00    +0.000 OA
BRANCH   3   8
ATOM      4  C   UNL     1       0.208  10.995  18.705  0.00  0.00    +0.000 C 
ATOM      5  C   UNL     1       0.908   9.716  19.054  0.00  0.00    +0.000 A 
ATOM      6  C   UNL     1       1.631   9.001  18.094  0.00  0.00    +0.000 A 
ATOM      7  C   UNL     1       2.265   7.804  18.438  0.00  0.00    +0.000 A 
ATOM      8  C   UNL     1       2.202   7.315  19.744  0.00  0.00    +0.000 A 
ATOM      9  C   UNL     1       1.473   8.017  20.702  0.00  0.00    +0.000 A 
ATOM     10  C   UNL     1       0.831   9.211  20.358  0.00  0.00    +0.000 A 
ENDBRANCH   3   8
ENDBRANCH   2   3
ENDBRANCH   1   2
BRANCH   1  11
ATOM     11  C   UNL     1       2.521   2.949  19.246  0.00  0.00    +0.000 C 
BRANCH  11  12
ATOM     12  C   UNL     1       3.976   3.349  19.140  0.00  0.00    +0.000 C 
ATOM     13  O   UNL     1       4.807   2.827  19.886  0.00  0.00    +0.000 OA
ATOM     14  N   UNL     1       4.211   4.329  18.205  0.00  0.00    +0.000 N 
ATOM     15  C   UNL     1       5.473   4.784  17.963  0.00  0.00    +0.000 A 
ATOM     16  N   UNL     1       6.620   4.260  18.310  0.00  0.00    +0.000 NA
ATOM     17  C   UNL     1       7.646   5.096  17.931  0.00  0.00    +0.000 A 
ATOM     18  C   UNL     1       7.259   6.250  17.284  0.00  0.00    +0.000 A 
ATOM     19  S   UNL     1       5.551   6.246  17.080  0.00  0.00    +0.000 S 
ATOM     20  H   UNL     1       3.450   4.835  17.781  0.00  0.00    +0.000 HD
ENDBRANCH  11  12
ENDBRANCH   1  11
TORSDOF 5
ENDMDL
MODEL 8
REMARK VINA RESULT:      -6.4      3.381      6.758
REMARK  Name = 
REMARK  6 active torsions:
REMARK  status: ('A' for Active; 'I' for Inactive)
REMARK    1  A    between atoms: C_1  and  C_2
REMARK    2  A    between atoms: C_5  and  O_6
REMARK    3  A    between atoms: O_6  and  C_7
REMARK    4  A    between atoms: C_7  and  C_8
REMARK    5  A    between atoms: C_8  and  C_9
REMARK    6  A    between atoms: C_9  and  C_10
REMARK                            x       y       z     vdW  Elec       q    Type
REMARK                         _______ _______ _______ _____ _____    ______ ____
ROOT
ATOM      1  C   UNL     1       2.805   2.860  20.523  0.00  0.00    +0.000 C 
ENDROOT
BRANCH   1   2
ATOM      2  C   UNL     1       1.733   3.921  20.302  0.00  0.00    +0.000 C 
BRANCH   2   3
ATOM      3  O   UNL     1       2.144   5.090  21.013  0.00  0.00    +0.000 OA
BRANCH   3   8
ATOM      4  C   UNL     1       1.809   9.808  17.876  0.00  0.00    +0.000 C 
ATOM      5  C   UNL     1       1.902   8.573  18.723  0.00  0.00    +0.000 A 
ATOM      6  C   UNL     1       2.482   7.400  18.231  0.00  0.00    +0.000 A 
ATOM      7  C   UNL     1       2.546   6.257  19.032  0.00  0.00    +0.000 A 
ATOM      8  C   UNL     1       2.048   6.274  20.337  0.00  0.00    +0.000 A 
ATOM      9  C   UNL     1       1.459   7.437  20.827  0.00  0.00    +0.000 A 
ATOM     10  C   UNL     1       1.387   8.580  20.024  0.00  0.00    +0.000 A 
ENDBRANCH   3   8
ENDBRANCH   2   3
ENDBRANCH   1   2
BRANCH   1  11
ATOM     11  C   UNL     1       3.076   2.054  19.264  0.00  0.00    +0.000 C 
BRANCH  11  12
ATOM     12  C   UNL     1       3.539   2.942  18.130  0.00  0.00    +0.000 C 
ATOM     13  O   UNL     1       2.826   3.080  17.134  0.00  0.00    +0.000 OA
ATOM     14  N   UNL     1       4.784   3.489  18.333  0.00  0.00    +0.000 N 
ATOM     15  C   UNL     1       5.338   4.338  17.421  0.00  0.00    +0.000 A 
ATOM     16  N   UNL     1       4.768   4.964  16.424  0.00  0.00    +0.000 NA
ATOM     17  C   UNL     1       5.718   5.655  15.705  0.00  0.00    +0.000 A 
ATOM     18  C   UNL     1       7.008   5.550  16.180  0.00  0.00    +0.000 A 
ATOM     19  S   UNL     1       7.013   4.613  17.622  0.00  0.00    +0.000 S 
ATOM     20  H   UNL     1       5.376   3.169  19.082  0.00  0.00    +0.000 HD
ENDBRANCH  11  12
ENDBRANCH   1  11
TORSDOF 5
ENDMDL
MODEL 9
REMARK VINA RESULT:      -6.4      3.320      6.502
REMARK  Name = 
REMARK  6 active torsions:
REMARK  status: ('A' for Active; 'I' for Inactive)
REMARK    1  A    between atoms: C_1  and  C_2
REMARK    2  A    between atoms: C_5  and  O_6
REMARK    3  A    between atoms: O_6  and  C_7
REMARK    4  A    between atoms: C_7  and  C_8
REMARK    5  A    between atoms: C_8  and  C_9
REMARK    6  A    between atoms: C_9  and  C_10
REMARK                            x       y       z     vdW  Elec       q    Type
REMARK                         _______ _______ _______ _____ _____    ______ ____
ROOT
ATOM      1  C   UNL     1       2.575   1.929  20.156  0.00  0.00    +0.000 C 
ENDROOT
BRANCH   1   2
ATOM      2  C   UNL     1       1.717   2.609  21.217  0.00  0.00    +0.000 C 
BRANCH   2   3
ATOM      3  O   UNL     1       0.833   3.501  20.536  0.00  0.00    +0.000 OA
BRANCH   3   8
ATOM      4  C   UNL     1       3.065   7.878  17.696  0.00  0.00    +0.000 C 
ATOM      5  C   UNL     1       2.490   6.724  18.462  0.00  0.00    +0.000 A 
ATOM      6  C   UNL     1       1.968   5.606  17.803  0.00  0.00    +0.000 A 
ATOM      7  C   UNL     1       1.425   4.548  18.536  0.00  0.00    +0.000 A 
ATOM      8  C   UNL     1       1.412   4.582  19.932  0.00  0.00    +0.000 A 
ATOM      9  C   UNL     1       1.920   5.698  20.592  0.00  0.00    +0.000 A 
ATOM     10  C   UNL     1       2.457   6.762  19.860  0.00  0.00    +0.000 A 
ENDBRANCH   3   8
ENDBRANCH   2   3
ENDBRANCH   1   2
BRANCH   1  11
ATOM     11  C   UNL     1       4.040   2.313  20.276  0.00  0.00    +0.000 C 
BRANCH  11  12
ATOM     12  C   UNL     1       4.512   3.072  19.055  0.00  0.00    +0.000 C 
ATOM     13  O   UNL     1       4.128   2.725  17.936  0.00  0.00    +0.000 OA
ATOM     14  N   UNL     1       5.393   4.087  19.345  0.00  0.00    +0.000 N 
ATOM     15  C   UNL     1       5.893   4.888  18.361  0.00  0.00    +0.000 A 
ATOM     16  N   UNL     1       5.481   5.036  17.129  0.00  0.00    +0.000 NA
ATOM     17  C   UNL     1       6.330   5.887  16.455  0.00  0.00    +0.000 A 
ATOM     18  C   UNL     1       7.378   6.385  17.198  0.00  0.00    +0.000 A 
ATOM     19  S   UNL     1       7.248   5.824  18.819  0.00  0.00    +0.000 S 
ATOM     20  H   UNL     1       5.801   4.174  20.261  0.00  0.00    +0.000 HD
ENDBRANCH  11  12
ENDBRANCH   1  11
TORSDOF 5
ENDMDL
