MODEL 1
REMARK VINA RESULT:      -7.3      0.000      0.000
REMARK  Name = 
REMARK  4 active torsions:
REMARK  status: ('A' for Active; 'I' for Inactive)
REMARK    1  A    between atoms: C_1  and  C_2
REMARK    2  A    between atoms: C_2  and  C_4
REMARK    3  A    between atoms: C_17  and  C_18
REMARK    4  A    between atoms: C_22  and  C_23
REMARK                            x       y       z     vdW  Elec       q    Type
REMARK                         _______ _______ _______ _____ _____    ______ ____
ROOT
ATOM      1  C   UNL     1       0.324  11.422  19.963  0.00  0.00    +0.000 C 
ATOM      2  C   UNL     1      -0.379  10.927  21.252  0.00  0.00    +0.000 C 
ATOM      3  C   UNL     1      -0.044   9.433  21.388  0.00  0.00    +0.000 C 
ATOM      4  C   UNL     1       1.029   9.198  20.333  0.00  0.00    +0.000 C 
ATOM      5  C   UNL     1       1.306   7.760  19.884  0.00  0.00    +0.000 C 
ATOM      6  C   UNL     1       1.677   6.856  21.072  0.00  0.00    +0.000 C 
ATOM      7  C   UNL     1       2.025   5.439  20.624  0.00  0.00    +0.000 C 
ATOM      8  C   UNL     1       3.093   5.467  19.558  0.00  0.00    +0.000 C 
ATOM      9  C   UNL     1       4.262   4.834  19.758  0.00  0.00    +0.000 C 
ATOM     10  C   UNL     1       5.366   4.907  18.779  0.00  0.00    +0.000 C 
ATOM     11  O   UNL     1       6.433   4.339  18.976  0.00  0.00    +0.000 OA
ATOM     12  C   UNL     1       5.137   5.705  17.560  0.00  0.00    +0.000 C 
ATOM     13  C   UNL     1       3.972   6.337  17.360  0.00  0.00    +0.000 C 
ATOM     14  C   UNL     1       2.786   6.313  18.315  0.00  0.00    +0.000 C 
ATOM     15  C   UNL     1       1.619   5.669  17.531  0.00  0.00    +0.000 C 
ATOM     16  C   UNL     1       2.451   7.767  18.815  0.00  0.00    +0.000 C 
ATOM     17  C   UNL     1       2.181   8.794  17.681  0.00  0.00    +0.000 C 
ATOM     18  C   UNL     1       1.782  10.191  18.189  0.00  0.00    +0.000 C 
ATOM     19  C   UNL     1       0.604  10.123  19.169  0.00  0.00    +0.000 C 
ATOM     20  C   UNL     1      -0.668   9.645  18.422  0.00  0.00    +0.000 C 
ENDROOT
BRANCH   1  22
ATOM     21  C   UNL     1      -1.871  12.772  19.745  0.00  0.00    +0.000 C 
ATOM     22  C   UNL     1      -0.483  12.490  19.232  0.00  0.00    +0.000 C 
ATOM     23  O   UNL     1      -0.032  13.120  18.274  0.00  0.00    +0.000 OA
ENDBRANCH   1  22
TORSDOF 1
ENDMDL
MODEL 2
REMARK VINA RESULT:      -7.0      4.602      7.210
REMARK  Name = 
REMARK  4 active torsions:
REMARK  status: ('A' for Active; 'I' for Inactive)
REMARK    1  A    between atoms: C_1  and  C_2
REMARK    2  A    between atoms: C_2  and  C_4
REMARK    3  A    between atoms: C_17  and  C_18
REMARK    4  A    between atoms: C_22  and  C_23
REMARK                            x       y       z     vdW  Elec       q    Type
REMARK                         _______ _______ _______ _____ _____    ______ ____
ROOT
ATOM      1  C   UNL     1       7.176   5.207  15.678  0.00  0.00    +0.000 C 
ATOM      2  C   UNL     1       7.456   6.620  16.249  0.00  0.00    +0.000 C 
ATOM      3  C   UNL     1       6.330   6.919  17.252  0.00  0.00    +0.000 C 
ATOM      4  C   UNL     1       5.608   5.586  17.404  0.00  0.00    +0.000 C 
ATOM      5  C   UNL     1       4.192   5.589  17.987  0.00  0.00    +0.000 C 
ATOM      6  C   UNL     1       4.151   6.253  19.374  0.00  0.00    +0.000 C 
ATOM      7  C   UNL     1       2.757   6.194  19.994  0.00  0.00    +0.000 C 
ATOM      8  C   UNL     1       2.243   4.776  20.012  0.00  0.00    +0.000 C 
ATOM      9  C   UNL     1       1.914   4.192  21.177  0.00  0.00    +0.000 C 
ATOM     10  C   UNL     1       1.490   2.778  21.249  0.00  0.00    +0.000 C 
ATOM     11  O   UNL     1       1.206   2.251  22.318  0.00  0.00    +0.000 OA
ATOM     12  C   UNL     1       1.436   2.023  19.984  0.00  0.00    +0.000 C 
ATOM     13  C   UNL     1       1.764   2.603  18.822  0.00  0.00    +0.000 C 
ATOM     14  C   UNL     1       2.210   4.051  18.659  0.00  0.00    +0.000 C 
ATOM     15  C   UNL     1       1.159   4.721  17.743  0.00  0.00    +0.000 C 
ATOM     16  C   UNL     1       3.665   4.116  18.063  0.00  0.00    +0.000 C 
ATOM     17  C   UNL     1       3.844   3.365  16.714  0.00  0.00    +0.000 C 
ATOM     18  C   UNL     1       5.253   3.502  16.109  0.00  0.00    +0.000 C 
ATOM     19  C   UNL     1       5.677   4.971  15.987  0.00  0.00    +0.000 C 
ATOM     20  C   UNL     1       4.778   5.690  14.948  0.00  0.00    +0.000 C 
ENDROOT
BRANCH   1  22
ATOM     21  C   UNL     1       6.870   4.034  13.394  0.00  0.00    +0.000 C 
ATOM     22  C   UNL     1       7.583   5.078  14.214  0.00  0.00    +0.000 C 
ATOM     23  O   UNL     1       8.439   5.799  13.699  0.00  0.00    +0.000 OA
ENDBRANCH   1  22
TORSDOF 1
ENDMDL
MODEL 3
REMARK VINA RESULT:      -6.7      1.441      1.698
REMARK  Name = 
REMARK  4 active torsions:
REMARK  status: ('A' for Active; 'I' for Inactive)
REMARK    1  A    between atoms: C_1  and  C_2
REMARK    2  A    between atoms: C_2  and  C_4
REMARK    3  A    between atoms: C_17  and  C_18
REMARK    4  A    between atoms: C_22  and  C_23
REMARK                            x       y       z     vdW  Elec       q    Type
REMARK                         _______ _______ _______ _____ _____    ______ ____
ROOT
ATOM      1  C   UNL     1       1.476  10.768  19.623  0.00  0.00    +0.000 C 
ATOM      2  C   UNL     1       0.460  10.585  20.779  0.00  0.00    +0.000 C 
ATOM      3  C   UNL     1       0.309   9.071  20.994  0.00  0.00    +0.000 C 
ATOM      4  C   UNL     1       1.418   8.465  20.144  0.00  0.00    +0.000 C 
ATOM      5  C   UNL     1       1.323   6.982  19.772  0.00  0.00    +0.000 C 
ATOM      6  C   UNL     1       1.212   6.090  21.021  0.00  0.00    +0.000 C 
ATOM      7  C   UNL     1       1.189   4.607  20.662  0.00  0.00    +0.000 C 
ATOM      8  C   UNL     1       2.373   4.252  19.797  0.00  0.00    +0.000 C 
ATOM      9  C   UNL     1       3.253   3.321  20.205  0.00  0.00    +0.000 C 
ATOM     10  C   UNL     1       4.471   3.005  19.430  0.00  0.00    +0.000 C 
ATOM     11  O   UNL     1       5.274   2.166  19.818  0.00  0.00    +0.000 OA
ATOM     12  C   UNL     1       4.688   3.752  18.178  0.00  0.00    +0.000 C 
ATOM     13  C   UNL     1       3.813   4.681  17.770  0.00  0.00    +0.000 C 
ATOM     14  C   UNL     1       2.536   5.066  18.505  0.00  0.00    +0.000 C 
ATOM     15  C   UNL     1       1.371   4.739  17.542  0.00  0.00    +0.000 C 
ATOM     16  C   UNL     1       2.574   6.585  18.918  0.00  0.00    +0.000 C 
ATOM     17  C   UNL     1       2.807   7.568  17.738  0.00  0.00    +0.000 C 
ATOM     18  C   UNL     1       2.767   9.051  18.148  0.00  0.00    +0.000 C 
ATOM     19  C   UNL     1       1.480   9.394  18.910  0.00  0.00    +0.000 C 
ATOM     20  C   UNL     1       0.261   9.259  17.962  0.00  0.00    +0.000 C 
ENDROOT
BRANCH   1  22
ATOM     21  C   UNL     1       2.307  12.640  18.044  0.00  0.00    +0.000 C 
ATOM     22  C   UNL     1       1.153  11.974  18.747  0.00  0.00    +0.000 C 
ATOM     23  O   UNL     1       0.003  12.388  18.590  0.00  0.00    +0.000 OA
ENDBRANCH   1  22
TORSDOF 1
ENDMDL
MODEL 4
REMARK VINA RESULT:      -6.5      9.384     11.038
REMARK  Name = 
REMARK  4 active torsions:
REMARK  status: ('A' for Active; 'I' for Inactive)
REMARK    1  A    between atoms: C_1  and  C_2
REMARK    2  A    between atoms: C_2  and  C_4
REMARK    3  A    between atoms: C_17  and  C_18
REMARK    4  A    between atoms: C_22  and  C_23
REMARK                            x       y       z     vdW  Elec       q    Type
REMARK                         _______ _______ _______ _____ _____    ______ ____
ROOT
ATOM      1  C   UNL     1      11.594  13.225  19.490  0.00  0.00    +0.000 C 
ATOM      2  C   UNL     1      11.881  14.747  19.542  0.00  0.00    +0.000 C 
ATOM      3  C   UNL     1      10.963  15.330  20.628  0.00  0.00    +0.000 C 
ATOM      4  C   UNL     1      10.386  14.102  21.321  0.00  0.00    +0.000 C 
ATOM      5  C   UNL     1       9.121  14.272  22.168  0.00  0.00    +0.000 C 
ATOM      6  C   UNL     1       9.314  15.327  23.270  0.00  0.00    +0.000 C 
ATOM      7  C   UNL     1       8.083  15.451  24.164  0.00  0.00    +0.000 C 
ATOM      8  C   UNL     1       7.688  14.101  24.712  0.00  0.00    +0.000 C 
ATOM      9  C   UNL     1       7.645  13.899  26.041  0.00  0.00    +0.000 C 
ATOM     10  C   UNL     1       7.348  12.572  26.618  0.00  0.00    +0.000 C 
ATOM     11  O   UNL     1       7.326  12.394  27.830  0.00  0.00    +0.000 OA
ATOM     12  C   UNL     1       7.093  11.466  25.677  0.00  0.00    +0.000 C 
ATOM     13  C   UNL     1       7.136  11.666  24.353  0.00  0.00    +0.000 C 
ATOM     14  C   UNL     1       7.433  12.998  23.676  0.00  0.00    +0.000 C 
ATOM     15  C   UNL     1       6.173  13.349  22.851  0.00  0.00    +0.000 C 
ATOM     16  C   UNL     1       8.729  12.889  22.788  0.00  0.00    +0.000 C 
ATOM     17  C   UNL     1       8.684  11.763  21.718  0.00  0.00    +0.000 C 
ATOM     18  C   UNL     1       9.927  11.719  20.811  0.00  0.00    +0.000 C 
ATOM     19  C   UNL     1      10.210  13.084  20.170  0.00  0.00    +0.000 C 
ATOM     20  C   UNL     1       9.069  13.444  19.184  0.00  0.00    +0.000 C 
ENDROOT
BRANCH   1  22
ATOM     21  C   UNL     1      12.028  13.629  16.973  0.00  0.00    +0.000 C 
ATOM     22  C   UNL     1      11.703  12.658  18.078  0.00  0.00    +0.000 C 
ATOM     23  O   UNL     1      11.557  11.460  17.833  0.00  0.00    +0.000 OA
ENDBRANCH   1  22
TORSDOF 1
ENDMDL
MODEL 5
REMARK VINA RESULT:      -6.4      2.869      4.523
REMARK  Name = 
REMARK  4 active torsions:
REMARK  status: ('A' for Active; 'I' for Inactive)
REMARK    1  A    between atoms: C_1  and  C_2
REMARK    2  A    between atoms: C_2  and  C_4
REMARK    3  A    between atoms: C_17  and  C_18
REMARK    4  A    between atoms: C_22  and  C_23
REMARK                            x       y       z     vdW  Elec       q    Type
REMARK                         _______ _______ _______ _____ _____    ______ ____
ROOT
ATOM      1  C   UNL     1       2.058  15.722  19.954  0.00  0.00    +0.000 C 
ATOM      2  C   UNL     1       1.292  15.828  21.297  0.00  0.00    +0.000 C 
ATOM      3  C   UNL     1       0.712  14.434  21.583  0.00  0.00    +0.000 C 
ATOM      4  C   UNL     1       1.375  13.539  20.544  0.00  0.00    +0.000 C 
ATOM      5  C   UNL     1       0.739  12.178  20.244  0.00  0.00    +0.000 C 
ATOM      6  C   UNL     1       0.603  11.322  21.515  0.00  0.00    +0.000 C 
ATOM      7  C   UNL     1       0.037   9.937  21.212  0.00  0.00    +0.000 C 
ATOM      8  C   UNL     1       0.846   9.257  20.135  0.00  0.00    +0.000 C 
ATOM      9  C   UNL     1       1.446   8.080  20.385  0.00  0.00    +0.000 C 
ATOM     10  C   UNL     1       2.318   7.422  19.389  0.00  0.00    +0.000 C 
ATOM     11  O   UNL     1       2.871   6.357  19.630  0.00  0.00    +0.000 OA
ATOM     12  C   UNL     1       2.504   8.107  18.096  0.00  0.00    +0.000 C 
ATOM     13  C   UNL     1       1.908   9.281  17.847  0.00  0.00    +0.000 C 
ATOM     14  C   UNL     1       0.996  10.024  18.814  0.00  0.00    +0.000 C 
ATOM     15  C   UNL     1      -0.381  10.121  18.117  0.00  0.00    +0.000 C 
ATOM     16  C   UNL     1       1.598  11.436  19.165  0.00  0.00    +0.000 C 
ATOM     17  C   UNL     1       1.890  12.337  17.934  0.00  0.00    +0.000 C 
ATOM     18  C   UNL     1       2.408  13.739  18.299  0.00  0.00    +0.000 C 
ATOM     19  C   UNL     1       1.480  14.445  19.296  0.00  0.00    +0.000 C 
ATOM     20  C   UNL     1       0.116  14.740  18.620  0.00  0.00    +0.000 C 
ENDROOT
BRANCH   1  22
ATOM     21  C   UNL     1       1.007  18.058  19.604  0.00  0.00    +0.000 C 
ATOM     22  C   UNL     1       1.966  16.999  19.126  0.00  0.00    +0.000 C 
ATOM     23  O   UNL     1       2.651  17.186  18.119  0.00  0.00    +0.000 OA
ENDBRANCH   1  22
TORSDOF 1
ENDMDL
MODEL 6
REMARK VINA RESULT:      -6.2      9.089      9.994
REMARK  Name = 
REMARK  4 active torsions:
REMARK  status: ('A' for Active; 'I' for Inactive)
REMARK    1  A    between atoms: C_1  and  C_2
REMARK    2  A    between atoms: C_2  and  C_4
REMARK    3  A    between atoms: C_17  and  C_18
REMARK    4  A    between atoms: C_22  and  C_23
REMARK                            x       y       z     vdW  Elec       q    Type
REMARK                         _______ _______ _______ _____ _____    ______ ____
ROOT
ATOM      1  C   UNL     1       8.587  13.764  24.933  0.00  0.00    +0.000 C 
ATOM      2  C   UNL     1       8.300  12.255  25.138  0.00  0.00    +0.000 C 
ATOM      3  C   UNL     1       8.343  11.607  23.745  0.00  0.00    +0.000 C 
ATOM      4  C   UNL     1       8.899  12.704  22.846  0.00  0.00    +0.000 C 
ATOM      5  C   UNL     1       8.693  12.578  21.333  0.00  0.00    +0.000 C 
ATOM      6  C   UNL     1       9.265  11.257  20.791  0.00  0.00    +0.000 C 
ATOM      7  C   UNL     1       9.129  11.156  19.274  0.00  0.00    +0.000 C 
ATOM      8  C   UNL     1       9.730  12.368  18.606  0.00  0.00    +0.000 C 
ATOM      9  C   UNL     1      10.735  12.224  17.724  0.00  0.00    +0.000 C 
ATOM     10  C   UNL     1      11.409  13.388  17.113  0.00  0.00    +0.000 C 
ATOM     11  O   UNL     1      12.333  13.247  16.322  0.00  0.00    +0.000 OA
ATOM     12  C   UNL     1      10.933  14.728  17.504  0.00  0.00    +0.000 C 
ATOM     13  C   UNL     1       9.933  14.873  18.383  0.00  0.00    +0.000 C 
ATOM     14  C   UNL     1       9.184  13.730  19.057  0.00  0.00    +0.000 C 
ATOM     15  C   UNL     1       7.709  13.864  18.616  0.00  0.00    +0.000 C 
ATOM     16  C   UNL     1       9.359  13.803  20.620  0.00  0.00    +0.000 C 
ATOM     17  C   UNL     1       8.924  15.152  21.256  0.00  0.00    +0.000 C 
ATOM     18  C   UNL     1       9.031  15.179  22.791  0.00  0.00    +0.000 C 
ATOM     19  C   UNL     1       8.290  13.999  23.432  0.00  0.00    +0.000 C 
ATOM     20  C   UNL     1       6.767  14.142  23.185  0.00  0.00    +0.000 C 
ENDROOT
BRANCH   1  22
ATOM     21  C   UNL     1       6.818  13.957  26.810  0.00  0.00    +0.000 C 
ATOM     22  C   UNL     1       7.814  14.643  25.911  0.00  0.00    +0.000 C 
ATOM     23  O   UNL     1       7.995  15.859  25.993  0.00  0.00    +0.000 OA
ENDBRANCH   1  22
TORSDOF 1
ENDMDL
MODEL 7
REMARK VINA RESULT:      -6.1      4.406      7.877
REMARK  Name = 
REMARK  4 active torsions:
REMARK  status: ('A' for Active; 'I' for Inactive)
REMARK    1  A    between atoms: C_1  and  C_2
REMARK    2  A    between atoms: C_2  and  C_4
REMARK    3  A    between atoms: C_17  and  C_18
REMARK    4  A    between atoms: C_22  and  C_23
REMARK                            x       y       z     vdW  Elec       q    Type
REMARK                         _______ _______ _______ _____ _____    ______ ____
ROOT
ATOM      1  C   UNL     1      -6.806  13.858  22.020  0.00  0.00    +0.000 C 
ATOM      2  C   UNL     1      -6.885  14.294  20.535  0.00  0.00    +0.000 C 
ATOM      3  C   UNL     1      -5.529  13.944  19.902  0.00  0.00    +0.000 C 
ATOM      4  C   UNL     1      -4.833  13.102  20.964  0.00  0.00    +0.000 C 
ATOM      5  C   UNL     1      -3.314  12.925  20.872  0.00  0.00    +0.000 C 
ATOM      6  C   UNL     1      -2.894  12.329  19.517  0.00  0.00    +0.000 C 
ATOM      7  C   UNL     1      -1.389  12.082  19.445  0.00  0.00    +0.000 C 
ATOM      8  C   UNL     1      -0.932  11.247  20.616  0.00  0.00    +0.000 C 
ATOM      9  C   UNL     1      -0.329  10.063  20.405  0.00  0.00    +0.000 C 
ATOM     10  C   UNL     1       0.056   9.175  21.522  0.00  0.00    +0.000 C 
ATOM     11  O   UNL     1       0.592   8.093  21.319  0.00  0.00    +0.000 OA
ATOM     12  C   UNL     1      -0.243   9.638  22.889  0.00  0.00    +0.000 C 
ATOM     13  C   UNL     1      -0.845  10.817  23.100  0.00  0.00    +0.000 C 
ATOM     14  C   UNL     1      -1.273  11.791  22.010  0.00  0.00    +0.000 C 
ATOM     15  C   UNL     1      -0.477  13.092  22.262  0.00  0.00    +0.000 C 
ATOM     16  C   UNL     1      -2.831  12.014  22.051  0.00  0.00    +0.000 C 
ATOM     17  C   UNL     1      -3.377  12.500  23.422  0.00  0.00    +0.000 C 
ATOM     18  C   UNL     1      -4.890  12.784  23.422  0.00  0.00    +0.000 C 
ATOM     19  C   UNL     1      -5.286  13.746  22.295  0.00  0.00    +0.000 C 
ATOM     20  C   UNL     1      -4.666  15.143  22.557  0.00  0.00    +0.000 C 
ENDROOT
BRANCH   1  22
ATOM     21  C   UNL     1      -7.916  14.270  24.319  0.00  0.00    +0.000 C 
ATOM     22  C   UNL     1      -7.583  14.790  22.944  0.00  0.00    +0.000 C 
ATOM     23  O   UNL     1      -7.917  15.927  22.609  0.00  0.00    +0.000 OA
ENDBRANCH   1  22
TORSDOF 1
ENDMDL
MODEL 8
REMARK VINA RESULT:      -6.0      1.543      7.024
REMARK  Name = 
REMARK  4 active torsions:
REMARK  status: ('A' for Active; 'I' for Inactive)
REMARK    1  A    between atoms: C_1  and  C_2
REMARK    2  A    between atoms: C_2  and  C_4
REMARK    3  A    between atoms: C_17  and  C_18
REMARK    4  A    between atoms: C_22  and  C_23
REMARK                            x       y       z     vdW  Elec       q    Type
REMARK                         _______ _______ _______ _____ _____    ______ ____
ROOT
ATOM      1  C   UNL     1       3.801   4.527  19.251  0.00  0.00    +0.000 C 
ATOM      2  C   UNL     1       4.387   4.825  17.848  0.00  0.00    +0.000 C 
ATOM      3  C   UNL     1       3.834   6.195  17.423  0.00  0.00    +0.000 C 
ATOM      4  C   UNL     1       3.173   6.733  18.686  0.00  0.00    +0.000 C 
ATOM      5  C   UNL     1       2.158   7.872  18.548  0.00  0.00    +0.000 C 
ATOM      6  C   UNL     1       2.768   9.092  17.836  0.00  0.00    +0.000 C 
ATOM      7  C   UNL     1       1.785  10.257  17.759  0.00  0.00    +0.000 C 
ATOM      8  C   UNL     1       1.247  10.590  19.129  0.00  0.00    +0.000 C 
ATOM      9  C   UNL     1       1.427  11.819  19.644  0.00  0.00    +0.000 C 
ATOM     10  C   UNL     1       0.994  12.161  21.015  0.00  0.00    +0.000 C 
ATOM     11  O   UNL     1       1.175  13.279  21.481  0.00  0.00    +0.000 OA
ATOM     12  C   UNL     1       0.347  11.097  21.805  0.00  0.00    +0.000 C 
ATOM     13  C   UNL     1       0.168   9.872  21.293  0.00  0.00    +0.000 C 
ATOM     14  C   UNL     1       0.582   9.437  19.894  0.00  0.00    +0.000 C 
ATOM     15  C   UNL     1      -0.721   9.026  19.170  0.00  0.00    +0.000 C 
ATOM     16  C   UNL     1       1.630   8.265  19.969  0.00  0.00    +0.000 C 
ATOM     17  C   UNL     1       1.156   7.026  20.776  0.00  0.00    +0.000 C 
ATOM     18  C   UNL     1       2.163   5.862  20.776  0.00  0.00    +0.000 C 
ATOM     19  C   UNL     1       2.578   5.471  19.352  0.00  0.00    +0.000 C 
ATOM     20  C   UNL     1       1.359   4.880  18.597  0.00  0.00    +0.000 C 
ENDROOT
BRANCH   1  22
ATOM     21  C   UNL     1       3.565   2.156  18.245  0.00  0.00    +0.000 C 
ATOM     22  C   UNL     1       3.517   3.043  19.462  0.00  0.00    +0.000 C 
ATOM     23  O   UNL     1       3.278   2.567  20.573  0.00  0.00    +0.000 OA
ENDBRANCH   1  22
TORSDOF 1
ENDMDL
MODEL 9
REMARK VINA RESULT:      -6.0      2.809      8.177
REMARK  Name = 
REMARK  4 active torsions:
REMARK  status: ('A' for Active; 'I' for Inactive)
REMARK    1  A    between atoms: C_1  and  C_2
REMARK    2  A    between atoms: C_2  and  C_4
REMARK    3  A    between atoms: C_17  and  C_18
REMARK    4  A    between atoms: C_22  and  C_23
REMARK                            x       y       z     vdW  Elec       q    Type
REMARK                         _______ _______ _______ _____ _____    ______ ____
ROOT
ATOM      1  C   UNL     1       0.925   8.935  19.375  0.00  0.00    +0.000 C 
ATOM      2  C   UNL     1       1.590   8.643  20.744  0.00  0.00    +0.000 C 
ATOM      3  C   UNL     1       0.907   9.562  21.768  0.00  0.00    +0.000 C 
ATOM      4  C   UNL     1      -0.277  10.147  21.008  0.00  0.00    +0.000 C 
ATOM      5  C   UNL     1      -0.940  11.414  21.557  0.00  0.00    +0.000 C 
ATOM      6  C   UNL     1      -1.420  11.221  23.005  0.00  0.00    +0.000 C 
ATOM      7  C   UNL     1      -2.147  12.455  23.534  0.00  0.00    +0.000 C 
ATOM      8  C   UNL     1      -3.261  12.857  22.599  0.00  0.00    +0.000 C 
ATOM      9  C   UNL     1      -4.529  12.905  23.043  0.00  0.00    +0.000 C 
ATOM     10  C   UNL     1      -5.660  13.209  22.141  0.00  0.00    +0.000 C 
ATOM     11  O   UNL     1      -6.813  13.237  22.551  0.00  0.00    +0.000 OA
ATOM     12  C   UNL     1      -5.344  13.464  20.723  0.00  0.00    +0.000 C 
ATOM     13  C   UNL     1      -4.081  13.416  20.280  0.00  0.00    +0.000 C 
ATOM     14  C   UNL     1      -2.860  13.112  21.139  0.00  0.00    +0.000 C 
ATOM     15  C   UNL     1      -1.961  14.368  21.065  0.00  0.00    +0.000 C 
ATOM     16  C   UNL     1      -2.134  11.813  20.625  0.00  0.00    +0.000 C 
ATOM     17  C   UNL     1      -1.715  11.858  19.130  0.00  0.00    +0.000 C 
ATOM     18  C   UNL     1      -0.940  10.612  18.665  0.00  0.00    +0.000 C 
ATOM     19  C   UNL     1       0.264  10.322  19.570  0.00  0.00    +0.000 C 
ATOM     20  C   UNL     1       1.309  11.458  19.429  0.00  0.00    +0.000 C 
ENDROOT
BRANCH   1  22
ATOM     21  C   UNL     1       2.774   7.592  18.166  0.00  0.00    +0.000 C 
ATOM     22  C   UNL     1       1.906   8.822  18.213  0.00  0.00    +0.000 C 
ATOM     23  O   UNL     1       1.987   9.678  17.330  0.00  0.00    +0.000 OA
ENDBRANCH   1  22
TORSDOF 1
ENDMDL
