MODEL 1
REMARK VINA RESULT:      -5.4      0.000      0.000
REMARK  Name = 
REMARK  5 active torsions:
REMARK  status: ('A' for Active; 'I' for Inactive)
REMARK    1  A    between atoms: N_4  and  C_5
REMARK    2  A    between atoms: C_5  and  C_6
REMARK    3  A    between atoms: C_6  and  C_7
REMARK    4  A    between atoms: C_7  and  C_8
REMARK    5  A    between atoms: C_8  and  N_9
REMARK                            x       y       z     vdW  Elec       q    Type
REMARK                         _______ _______ _______ _____ _____    ______ ____
ROOT
ATOM      1  C   UNL     1       4.636   5.412  19.288  0.00  0.00    +0.000 C 
ENDROOT
BRANCH   1   2
ATOM      2  C   UNL     1       5.292   4.198  18.631  0.00  0.00    +0.000 C 
BRANCH   2   6
ATOM      3  N   UNL     1       4.891   1.885  20.302  0.00  0.00    +0.000 NA
ATOM      4  C   UNL     1       4.399   1.964  19.125  0.00  0.00    +0.000 C 
ATOM      5  N   UNL     1       3.863   0.919  18.466  0.00  0.00    +0.000 N 
ATOM      6  N   UNL     1       4.319   3.118  18.423  0.00  0.00    +0.000 N 
ATOM      7  H   UNL     1       4.867   0.913  20.625  0.00  0.00    +0.000 HD
ATOM      8  H   UNL     1       3.706   0.083  19.018  0.00  0.00    +0.000 HD
ATOM      9  H   UNL     1       3.050   1.134  17.898  0.00  0.00    +0.000 HD
ATOM     10  H   UNL     1       4.103   2.971  17.443  0.00  0.00    +0.000 HD
ENDBRANCH   2   6
ENDBRANCH   1   2
BRANCH   1  11
ATOM     11  C   UNL     1       3.209   5.654  18.788  0.00  0.00    +0.000 C 
BRANCH  11  12
ATOM     12  C   UNL     1       2.244   5.840  19.958  0.00  0.00    +0.000 C 
BRANCH  12  13
ATOM     13  N   UNL     1       2.494   4.839  20.979  0.00  0.00    +0.000 N 
ATOM     14  C   UNL     1       1.773   3.704  21.100  0.00  0.00    +0.000 C 
ATOM     15  N   UNL     1       0.720   3.354  20.461  0.00  0.00    +0.000 NA
ATOM     16  N   UNL     1       2.272   2.891  22.048  0.00  0.00    +0.000 N 
ATOM     17  H   UNL     1       3.478   4.679  21.171  0.00  0.00    +0.000 HD
ATOM     18  H   UNL     1       0.473   4.075  19.785  0.00  0.00    +0.000 HD
ATOM     19  H   UNL     1       2.462   3.379  22.914  0.00  0.00    +0.000 HD
ATOM     20  H   UNL     1       1.613   2.134  22.209  0.00  0.00    +0.000 HD
ENDBRANCH  12  13
ENDBRANCH  11  12
ENDBRANCH   1  11
TORSDOF 5
ENDMDL
MODEL 2
REMARK VINA RESULT:      -5.2      2.337      4.335
REMARK  Name = 
REMARK  5 active torsions:
REMARK  status: ('A' for Active; 'I' for Inactive)
REMARK    1  A    between atoms: N_4  and  C_5
REMARK    2  A    between atoms: C_5  and  C_6
REMARK    3  A    between atoms: C_6  and  C_7
REMARK    4  A    between atoms: C_7  and  C_8
REMARK    5  A    between atoms: C_8  and  N_9
REMARK                            x       y       z     vdW  Elec       q    Type
REMARK                         _______ _______ _______ _____ _____    ______ ____
ROOT
ATOM      1  C   UNL     1       2.732   5.302  17.930  0.00  0.00    +0.000 C 
ENDROOT
BRANCH   1   2
ATOM      2  C   UNL     1       2.749   4.630  19.302  0.00  0.00    +0.000 C 
BRANCH   2   6
ATOM      3  N   UNL     1       5.151   3.042  19.408  0.00  0.00    +0.000 NA
ATOM      4  C   UNL     1       4.043   2.566  18.983  0.00  0.00    +0.000 C 
ATOM      5  N   UNL     1       3.932   1.391  18.336  0.00  0.00    +0.000 N 
ATOM      6  N   UNL     1       2.847   3.171  19.176  0.00  0.00    +0.000 N 
ATOM      7  H   UNL     1       5.923   2.428  19.128  0.00  0.00    +0.000 HD
ATOM      8  H   UNL     1       4.756   0.801  18.349  0.00  0.00    +0.000 HD
ATOM      9  H   UNL     1       3.099   0.852  18.555  0.00  0.00    +0.000 HD
ATOM     10  H   UNL     1       2.110   2.778  18.602  0.00  0.00    +0.000 HD
ENDBRANCH   2   6
ENDBRANCH   1   2
BRANCH   1  11
ATOM     11  C   UNL     1       3.629   6.542  17.868  0.00  0.00    +0.000 C 
BRANCH  11  12
ATOM     12  C   UNL     1       4.810   6.314  16.926  0.00  0.00    +0.000 C 
BRANCH  12  13
ATOM     13  N   UNL     1       5.748   5.375  17.513  0.00  0.00    +0.000 N 
ATOM     14  C   UNL     1       6.964   5.113  16.987  0.00  0.00    +0.000 C 
ATOM     15  N   UNL     1       7.461   5.518  15.880  0.00  0.00    +0.000 NA
ATOM     16  N   UNL     1       7.686   4.296  17.776  0.00  0.00    +0.000 N 
ATOM     17  H   UNL     1       5.775   5.396  18.527  0.00  0.00    +0.000 HD
ATOM     18  H   UNL     1       6.792   6.122  15.403  0.00  0.00    +0.000 HD
ATOM     19  H   UNL     1       7.159   3.486  18.077  0.00  0.00    +0.000 HD
ATOM     20  H   UNL     1       8.517   4.004  17.270  0.00  0.00    +0.000 HD
ENDBRANCH  12  13
ENDBRANCH  11  12
ENDBRANCH   1  11
TORSDOF 5
ENDMDL
MODEL 3
REMARK VINA RESULT:      -5.1      2.791      4.447
REMARK  Name = 
REMARK  5 active torsions:
REMARK  status: ('A' for Active; 'I' for Inactive)
REMARK    1  A    between atoms: N_4  and  C_5
REMARK    2  A    between atoms: C_5  and  C_6
REMARK    3  A    between atoms: C_6  and  C_7
REMARK    4  A    between atoms: C_7  and  C_8
REMARK    5  A    between atoms: C_8  and  N_9
REMARK                            x       y       z     vdW  Elec       q    Type
REMARK                         _______ _______ _______ _____ _____    ______ ____
ROOT
ATOM      1  C   UNL     1       5.298   4.281  15.676  0.00  0.00    +0.000 C 
ENDROOT
BRANCH   1   2
ATOM      2  C   UNL     1       4.342   4.079  16.851  0.00  0.00    +0.000 C 
BRANCH   2   6
ATOM      3  N   UNL     1       2.829   2.519  18.742  0.00  0.00    +0.000 NA
ATOM      4  C   UNL     1       4.102   2.611  18.805  0.00  0.00    +0.000 C 
ATOM      5  N   UNL     1       4.830   2.204  19.862  0.00  0.00    +0.000 N 
ATOM      6  N   UNL     1       4.869   3.087  17.797  0.00  0.00    +0.000 N 
ATOM      7  H   UNL     1       2.462   2.153  19.626  0.00  0.00    +0.000 HD
ATOM      8  H   UNL     1       4.335   1.651  20.553  0.00  0.00    +0.000 HD
ATOM      9  H   UNL     1       5.724   1.780  19.636  0.00  0.00    +0.000 HD
ATOM     10  H   UNL     1       5.820   3.288  18.084  0.00  0.00    +0.000 HD
ENDBRANCH   2   6
ENDBRANCH   1   2
BRANCH   1  11
ATOM     11  C   UNL     1       6.710   4.671  16.124  0.00  0.00    +0.000 C 
BRANCH  11  12
ATOM     12  C   UNL     1       6.696   6.004  16.872  0.00  0.00    +0.000 C 
BRANCH  12  13
ATOM     13  N   UNL     1       7.632   5.969  17.980  0.00  0.00    +0.000 N 
ATOM     14  C   UNL     1       7.302   5.544  19.218  0.00  0.00    +0.000 C 
ATOM     15  N   UNL     1       6.150   5.220  19.672  0.00  0.00    +0.000 NA
ATOM     16  N   UNL     1       8.370   5.501  20.035  0.00  0.00    +0.000 N 
ATOM     17  H   UNL     1       8.569   5.677  17.721  0.00  0.00    +0.000 HD
ATOM     18  H   UNL     1       5.452   5.308  18.934  0.00  0.00    +0.000 HD
ATOM     19  H   UNL     1       8.918   6.350  19.999  0.00  0.00    +0.000 HD
ATOM     20  H   UNL     1       8.049   5.331  20.984  0.00  0.00    +0.000 HD
ENDBRANCH  12  13
ENDBRANCH  11  12
ENDBRANCH   1  11
TORSDOF 5
ENDMDL
MODEL 4
REMARK VINA RESULT:      -5.1      0.603      1.067
REMARK  Name = 
REMARK  5 active torsions:
REMARK  status: ('A' for Active; 'I' for Inactive)
REMARK    1  A    between atoms: N_4  and  C_5
REMARK    2  A    between atoms: C_5  and  C_6
REMARK    3  A    between atoms: C_6  and  C_7
REMARK    4  A    between atoms: C_7  and  C_8
REMARK    5  A    between atoms: C_8  and  N_9
REMARK                            x       y       z     vdW  Elec       q    Type
REMARK                         _______ _______ _______ _____ _____    ______ ____
ROOT
ATOM      1  C   UNL     1       4.249   5.605  19.001  0.00  0.00    +0.000 C 
ENDROOT
BRANCH   1   2
ATOM      2  C   UNL     1       4.931   4.557  18.123  0.00  0.00    +0.000 C 
BRANCH   2   6
ATOM      3  N   UNL     1       3.706   1.983  18.543  0.00  0.00    +0.000 NA
ATOM      4  C   UNL     1       4.679   2.396  19.263  0.00  0.00    +0.000 C 
ATOM      5  N   UNL     1       5.068   1.803  20.407  0.00  0.00    +0.000 N 
ATOM      6  N   UNL     1       5.459   3.452  18.931  0.00  0.00    +0.000 N 
ATOM      7  H   UNL     1       3.248   1.189  19.001  0.00  0.00    +0.000 HD
ATOM      8  H   UNL     1       4.659   0.894  20.594  0.00  0.00    +0.000 HD
ATOM      9  H   UNL     1       6.069   1.788  20.570  0.00  0.00    +0.000 HD
ATOM     10  H   UNL     1       6.038   3.772  19.700  0.00  0.00    +0.000 HD
ENDBRANCH   2   6
ENDBRANCH   1   2
BRANCH   1  11
ATOM     11  C   UNL     1       2.727   5.619  18.830  0.00  0.00    +0.000 C 
BRANCH  11  12
ATOM     12  C   UNL     1       2.031   5.899  20.161  0.00  0.00    +0.000 C 
BRANCH  12  13
ATOM     13  N   UNL     1       2.322   4.843  21.113  0.00  0.00    +0.000 N 
ATOM     14  C   UNL     1       1.656   3.668  21.145  0.00  0.00    +0.000 C 
ATOM     15  N   UNL     1       0.628   3.313  20.470  0.00  0.00    +0.000 NA
ATOM     16  N   UNL     1       2.187   2.816  22.040  0.00  0.00    +0.000 N 
ATOM     17  H   UNL     1       3.311   4.718  21.305  0.00  0.00    +0.000 HD
ATOM     18  H   UNL     1       0.351   4.067  19.843  0.00  0.00    +0.000 HD
ATOM     19  H   UNL     1       2.345   3.251  22.940  0.00  0.00    +0.000 HD
ATOM     20  H   UNL     1       1.565   2.019  22.140  0.00  0.00    +0.000 HD
ENDBRANCH  12  13
ENDBRANCH  11  12
ENDBRANCH   1  11
TORSDOF 5
ENDMDL
MODEL 5
REMARK VINA RESULT:      -5.1      2.537      3.841
REMARK  Name = 
REMARK  5 active torsions:
REMARK  status: ('A' for Active; 'I' for Inactive)
REMARK    1  A    between atoms: N_4  and  C_5
REMARK    2  A    between atoms: C_5  and  C_6
REMARK    3  A    between atoms: C_6  and  C_7
REMARK    4  A    between atoms: C_7  and  C_8
REMARK    5  A    between atoms: C_8  and  N_9
REMARK                            x       y       z     vdW  Elec       q    Type
REMARK                         _______ _______ _______ _____ _____    ______ ____
ROOT
ATOM      1  C   UNL     1       5.018   4.267  16.366  0.00  0.00    +0.000 C 
ENDROOT
BRANCH   1   2
ATOM      2  C   UNL     1       6.181   5.219  16.093  0.00  0.00    +0.000 C 
BRANCH   2   6
ATOM      3  N   UNL     1       8.263   4.094  17.738  0.00  0.00    +0.000 NA
ATOM      4  C   UNL     1       7.503   5.033  18.155  0.00  0.00    +0.000 C 
ATOM      5  N   UNL     1       7.431   5.422  19.443  0.00  0.00    +0.000 N 
ATOM      6  N   UNL     1       6.715   5.775  17.343  0.00  0.00    +0.000 N 
ATOM      7  H   UNL     1       8.747   3.660  18.530  0.00  0.00    +0.000 HD
ATOM      8  H   UNL     1       8.146   5.048  20.056  0.00  0.00    +0.000 HD
ATOM      9  H   UNL     1       7.316   6.419  19.589  0.00  0.00    +0.000 HD
ATOM     10  H   UNL     1       6.029   6.323  17.850  0.00  0.00    +0.000 HD
ENDBRANCH   2   6
ENDBRANCH   1   2
BRANCH   1  11
ATOM     11  C   UNL     1       3.903   4.918  17.189  0.00  0.00    +0.000 C 
BRANCH  11  12
ATOM     12  C   UNL     1       3.766   4.244  18.553  0.00  0.00    +0.000 C 
BRANCH  12  13
ATOM     13  N   UNL     1       4.269   2.884  18.495  0.00  0.00    +0.000 N 
ATOM     14  C   UNL     1       3.469   1.797  18.459  0.00  0.00    +0.000 C 
ATOM     15  N   UNL     1       2.197   1.736  18.579  0.00  0.00    +0.000 NA
ATOM     16  N   UNL     1       4.173   0.662  18.293  0.00  0.00    +0.000 N 
ATOM     17  H   UNL     1       5.085   2.769  17.902  0.00  0.00    +0.000 HD
ATOM     18  H   UNL     1       1.817   2.674  18.700  0.00  0.00    +0.000 HD
ATOM     19  H   UNL     1       4.961   0.601  18.924  0.00  0.00    +0.000 HD
ATOM     20  H   UNL     1       3.552  -0.130  18.430  0.00  0.00    +0.000 HD
ENDBRANCH  12  13
ENDBRANCH  11  12
ENDBRANCH   1  11
TORSDOF 5
ENDMDL
MODEL 6
REMARK VINA RESULT:      -5.1      2.450      3.297
REMARK  Name = 
REMARK  5 active torsions:
REMARK  status: ('A' for Active; 'I' for Inactive)
REMARK    1  A    between atoms: N_4  and  C_5
REMARK    2  A    between atoms: C_5  and  C_6
REMARK    3  A    between atoms: C_6  and  C_7
REMARK    4  A    between atoms: C_7  and  C_8
REMARK    5  A    between atoms: C_8  and  N_9
REMARK                            x       y       z     vdW  Elec       q    Type
REMARK                         _______ _______ _______ _____ _____    ______ ____
ROOT
ATOM      1  C   UNL     1       3.695   4.107  17.966  0.00  0.00    +0.000 C 
ENDROOT
BRANCH   1   2
ATOM      2  C   UNL     1       5.211   4.210  18.118  0.00  0.00    +0.000 C 
BRANCH   2   6
ATOM      3  N   UNL     1       8.039   4.165  17.564  0.00  0.00    +0.000 NA
ATOM      4  C   UNL     1       7.194   4.644  16.733  0.00  0.00    +0.000 C 
ATOM      5  N   UNL     1       7.535   5.373  15.654  0.00  0.00    +0.000 N 
ATOM      6  N   UNL     1       5.859   4.435  16.819  0.00  0.00    +0.000 N 
ATOM      7  H   UNL     1       8.984   4.470  17.313  0.00  0.00    +0.000 HD
ATOM      8  H   UNL     1       8.522   5.384  15.424  0.00  0.00    +0.000 HD
ATOM      9  H   UNL     1       6.974   5.209  14.824  0.00  0.00    +0.000 HD
ATOM     10  H   UNL     1       5.323   5.050  16.217  0.00  0.00    +0.000 HD
ENDBRANCH   2   6
ENDBRANCH   1   2
BRANCH   1  11
ATOM     11  C   UNL     1       3.239   2.713  17.527  0.00  0.00    +0.000 C 
BRANCH  11  12
ATOM     12  C   UNL     1       2.053   2.237  18.365  0.00  0.00    +0.000 C 
BRANCH  12  13
ATOM     13  N   UNL     1       2.376   2.307  19.779  0.00  0.00    +0.000 N 
ATOM     14  C   UNL     1       1.601   2.937  20.688  0.00  0.00    +0.000 C 
ATOM     15  N   UNL     1       0.558   3.652  20.491  0.00  0.00    +0.000 NA
ATOM     16  N   UNL     1       2.057   2.764  21.941  0.00  0.00    +0.000 N 
ATOM     17  H   UNL     1       2.776   1.454  20.155  0.00  0.00    +0.000 HD
ATOM     18  H   UNL     1       0.347   3.687  19.494  0.00  0.00    +0.000 HD
ATOM     19  H   UNL     1       3.050   2.941  22.019  0.00  0.00    +0.000 HD
ATOM     20  H   UNL     1       1.541   3.378  22.564  0.00  0.00    +0.000 HD
ENDBRANCH  12  13
ENDBRANCH  11  12
ENDBRANCH   1  11
TORSDOF 5
ENDMDL
MODEL 7
REMARK VINA RESULT:      -5.1      2.393      5.059
REMARK  Name = 
REMARK  5 active torsions:
REMARK  status: ('A' for Active; 'I' for Inactive)
REMARK    1  A    between atoms: N_4  and  C_5
REMARK    2  A    between atoms: C_5  and  C_6
REMARK    3  A    between atoms: C_6  and  C_7
REMARK    4  A    between atoms: C_7  and  C_8
REMARK    5  A    between atoms: C_8  and  N_9
REMARK                            x       y       z     vdW  Elec       q    Type
REMARK                         _______ _______ _______ _____ _____    ______ ____
ROOT
ATOM      1  C   UNL     1       2.639   3.512  17.808  0.00  0.00    +0.000 C 
ENDROOT
BRANCH   1   2
ATOM      2  C   UNL     1       1.414   4.034  18.557  0.00  0.00    +0.000 C 
BRANCH   2   6
ATOM      3  N   UNL     1       2.309   5.187  21.042  0.00  0.00    +0.000 NA
ATOM      4  C   UNL     1       1.997   3.951  20.942  0.00  0.00    +0.000 C 
ATOM      5  N   UNL     1       2.272   3.031  21.886  0.00  0.00    +0.000 N 
ATOM      6  N   UNL     1       1.315   3.434  19.893  0.00  0.00    +0.000 N 
ATOM      7  H   UNL     1       2.840   5.343  21.904  0.00  0.00    +0.000 HD
ATOM      8  H   UNL     1       2.590   3.395  22.777  0.00  0.00    +0.000 HD
ATOM      9  H   UNL     1       1.559   2.322  22.021  0.00  0.00    +0.000 HD
ATOM     10  H   UNL     1       1.337   2.421  19.869  0.00  0.00    +0.000 HD
ENDBRANCH   2   6
ENDBRANCH   1   2
BRANCH   1  11
ATOM     11  C   UNL     1       3.698   4.594  17.581  0.00  0.00    +0.000 C 
BRANCH  11  12
ATOM     12  C   UNL     1       4.717   4.149  16.533  0.00  0.00    +0.000 C 
BRANCH  12  13
ATOM     13  N   UNL     1       6.002   3.893  17.157  0.00  0.00    +0.000 N 
ATOM     14  C   UNL     1       7.112   4.618  16.897  0.00  0.00    +0.000 C 
ATOM     15  N   UNL     1       7.280   5.537  16.024  0.00  0.00    +0.000 NA
ATOM     16  N   UNL     1       8.142   4.256  17.684  0.00  0.00    +0.000 N 
ATOM     17  H   UNL     1       5.943   3.637  18.137  0.00  0.00    +0.000 HD
ATOM     18  H   UNL     1       6.412   5.690  15.513  0.00  0.00    +0.000 HD
ATOM     19  H   UNL     1       8.273   3.253  17.710  0.00  0.00    +0.000 HD
ATOM     20  H   UNL     1       8.985   4.712  17.348  0.00  0.00    +0.000 HD
ENDBRANCH  12  13
ENDBRANCH  11  12
ENDBRANCH   1  11
TORSDOF 5
ENDMDL
MODEL 8
REMARK VINA RESULT:      -5.1      1.890      3.248
REMARK  Name = 
REMARK  5 active torsions:
REMARK  status: ('A' for Active; 'I' for Inactive)
REMARK    1  A    between atoms: N_4  and  C_5
REMARK    2  A    between atoms: C_5  and  C_6
REMARK    3  A    between atoms: C_6  and  C_7
REMARK    4  A    between atoms: C_7  and  C_8
REMARK    5  A    between atoms: C_8  and  N_9
REMARK                            x       y       z     vdW  Elec       q    Type
REMARK                         _______ _______ _______ _____ _____    ______ ____
ROOT
ATOM      1  C   UNL     1       3.054   5.478  18.474  0.00  0.00    +0.000 C 
ENDROOT
BRANCH   1   2
ATOM      2  C   UNL     1       4.242   6.001  17.668  0.00  0.00    +0.000 C 
BRANCH   2   6
ATOM      3  N   UNL     1       6.201   5.119  19.589  0.00  0.00    +0.000 NA
ATOM      4  C   UNL     1       6.278   4.807  18.352  0.00  0.00    +0.000 C 
ATOM      5  N   UNL     1       7.368   4.258  17.784  0.00  0.00    +0.000 N 
ATOM      6  N   UNL     1       5.254   4.954  17.478  0.00  0.00    +0.000 N 
ATOM      7  H   UNL     1       7.099   4.943  20.049  0.00  0.00    +0.000 HD
ATOM      8  H   UNL     1       8.083   3.934  18.426  0.00  0.00    +0.000 HD
ATOM      9  H   UNL     1       7.182   3.560  17.071  0.00  0.00    +0.000 HD
ATOM     10  H   UNL     1       5.544   4.862  16.511  0.00  0.00    +0.000 HD
ENDBRANCH   2   6
ENDBRANCH   1   2
BRANCH   1  11
ATOM     11  C   UNL     1       2.153   4.544  17.661  0.00  0.00    +0.000 C 
BRANCH  11  12
ATOM     12  C   UNL     1       2.010   3.187  18.349  0.00  0.00    +0.000 C 
BRANCH  12  13
ATOM     13  N   UNL     1       3.113   2.970  19.267  0.00  0.00    +0.000 N 
ATOM     14  C   UNL     1       3.968   1.929  19.168  0.00  0.00    +0.000 C 
ATOM     15  N   UNL     1       3.918   0.926  18.375  0.00  0.00    +0.000 NA
ATOM     16  N   UNL     1       4.967   2.014  20.065  0.00  0.00    +0.000 N 
ATOM     17  H   UNL     1       3.589   3.820  19.551  0.00  0.00    +0.000 HD
ATOM     18  H   UNL     1       3.106   1.010  17.764  0.00  0.00    +0.000 HD
ATOM     19  H   UNL     1       4.631   2.214  20.998  0.00  0.00    +0.000 HD
ATOM     20  H   UNL     1       5.486   1.141  20.058  0.00  0.00    +0.000 HD
ENDBRANCH  12  13
ENDBRANCH  11  12
ENDBRANCH   1  11
TORSDOF 5
ENDMDL
MODEL 9
REMARK VINA RESULT:      -5.1      1.776      2.966
REMARK  Name = 
REMARK  5 active torsions:
REMARK  status: ('A' for Active; 'I' for Inactive)
REMARK    1  A    between atoms: N_4  and  C_5
REMARK    2  A    between atoms: C_5  and  C_6
REMARK    3  A    between atoms: C_6  and  C_7
REMARK    4  A    between atoms: C_7  and  C_8
REMARK    5  A    between atoms: C_8  and  N_9
REMARK                            x       y       z     vdW  Elec       q    Type
REMARK                         _______ _______ _______ _____ _____    ______ ____
ROOT
ATOM      1  C   UNL     1       2.776   6.122  18.090  0.00  0.00    +0.000 C 
ENDROOT
BRANCH   1   2
ATOM      2  C   UNL     1       4.261   6.185  17.737  0.00  0.00    +0.000 C 
BRANCH   2   6
ATOM      3  N   UNL     1       6.282   4.224  18.348  0.00  0.00    +0.000 NA
ATOM      4  C   UNL     1       5.786   4.342  17.176  0.00  0.00    +0.000 C 
ATOM      5  N   UNL     1       6.303   3.753  16.081  0.00  0.00    +0.000 N 
ATOM      6  N   UNL     1       4.656   5.039  16.909  0.00  0.00    +0.000 N 
ATOM      7  H   UNL     1       7.146   3.674  18.306  0.00  0.00    +0.000 HD
ATOM      8  H   UNL     1       7.018   3.056  16.252  0.00  0.00    +0.000 HD
ATOM      9  H   UNL     1       5.622   3.414  15.409  0.00  0.00    +0.000 HD
ATOM     10  H   UNL     1       4.522   5.208  15.918  0.00  0.00    +0.000 HD
ENDBRANCH   2   6
ENDBRANCH   1   2
BRANCH   1  11
ATOM     11  C   UNL     1       2.186   4.720  17.917  0.00  0.00    +0.000 C 
BRANCH  11  12
ATOM     12  C   UNL     1       1.988   4.040  19.272  0.00  0.00    +0.000 C 
BRANCH  12  13
ATOM     13  N   UNL     1       3.218   3.398  19.697  0.00  0.00    +0.000 N 
ATOM     14  C   UNL     1       3.621   2.191  19.243  0.00  0.00    +0.000 C 
ATOM     15  N   UNL     1       2.992   1.369  18.490  0.00  0.00    +0.000 NA
ATOM     16  N   UNL     1       4.844   1.867  19.700  0.00  0.00    +0.000 N 
ATOM     17  H   UNL     1       4.000   4.035  19.812  0.00  0.00    +0.000 HD
ATOM     18  H   UNL     1       2.086   1.760  18.235  0.00  0.00    +0.000 HD
ATOM     19  H   UNL     1       4.933   2.009  20.698  0.00  0.00    +0.000 HD
ATOM     20  H   UNL     1       5.034   0.897  19.465  0.00  0.00    +0.000 HD
ENDBRANCH  12  13
ENDBRANCH  11  12
ENDBRANCH   1  11
TORSDOF 5
ENDMDL
