MODEL 1
REMARK VINA RESULT:      -7.6      0.000      0.000
REMARK  Name = 
REMARK  6 active torsions:
REMARK  status: ('A' for Active; 'I' for Inactive)
REMARK    1  A    between atoms: C_1  and  O_2
REMARK    2  A    between atoms: O_2  and  C_3
REMARK    3  A    between atoms: C_5  and  C_6
REMARK    4  A    between atoms: N_7  and  N_8
REMARK    5  A    between atoms: N_8  and  C_9
REMARK    6  A    between atoms: C_21  and  O_22
REMARK                            x       y       z     vdW  Elec       q    Type
REMARK                         _______ _______ _______ _____ _____    ______ ____
ROOT
ATOM      1  C   UNL     1       8.878   9.156  18.754  0.00  0.00    +0.000 C 
ATOM      2  N   UNL     1       8.130   8.416  18.019  0.00  0.00    +0.000 NA
ENDROOT
BRANCH   1   5
ATOM      3  C   UNL     1       8.356  12.695  17.529  0.00  0.00    +0.000 A 
ATOM      4  C   UNL     1       8.118  11.363  17.924  0.00  0.00    +0.000 A 
ATOM      5  C   UNL     1       9.168  10.544  18.347  0.00  0.00    +0.000 A 
ATOM      6  C   UNL     1      10.475  11.059  18.378  0.00  0.00    +0.000 A 
ATOM      7  C   UNL     1      10.722  12.375  17.985  0.00  0.00    +0.000 A 
ATOM      8  C   UNL     1       9.669  13.195  17.560  0.00  0.00    +0.000 A 
BRANCH   3  10
ATOM      9  C   UNL     1       6.710  14.441  17.916  0.00  0.00    +0.000 C 
ATOM     10  O   UNL     1       7.348  13.511  17.121  0.00  0.00    +0.000 OA
ENDBRANCH   3  10
BRANCH   8  11
ATOM     11  O   UNL     1       9.910  14.467  17.179  0.00  0.00    +0.000 OA
ATOM     12  H   UNL     1      10.722  14.932  17.431  0.00  0.00    +0.000 HD
ENDBRANCH   8  11
ENDBRANCH   1   5
BRANCH   2  13
ATOM     13  N   UNL     1       7.829   7.115  18.344  0.00  0.00    +0.000 N 
ATOM     14  H   UNL     1       8.090   6.751  19.270  0.00  0.00    +0.000 HD
BRANCH  13  15
ATOM     15  C   UNL     1       7.187   6.306  17.369  0.00  0.00    +0.000 A 
ATOM     16  N   UNL     1       7.697   6.302  16.105  0.00  0.00    +0.000 NA
ATOM     17  N   UNL     1       7.176   5.572  15.122  0.00  0.00    +0.000 NA
ATOM     18  C   UNL     1       6.098   4.780  15.329  0.00  0.00    +0.000 A 
ATOM     19  C   UNL     1       5.514   4.725  16.596  0.00  0.00    +0.000 A 
ATOM     20  C   UNL     1       4.399   3.905  16.822  0.00  0.00    +0.000 A 
ATOM     21  C   UNL     1       3.815   3.848  18.086  0.00  0.00    +0.000 A 
ATOM     22  C   UNL     1       4.337   4.608  19.133  0.00  0.00    +0.000 A 
ATOM     23  C   UNL     1       5.449   5.429  18.924  0.00  0.00    +0.000 A 
ATOM     24  C   UNL     1       6.056   5.500  17.651  0.00  0.00    +0.000 A 
ENDBRANCH  13  15
ENDBRANCH   2  13
TORSDOF 5
ENDMDL
MODEL 2
REMARK VINA RESULT:      -7.6      5.365      6.698
REMARK  Name = 
REMARK  6 active torsions:
REMARK  status: ('A' for Active; 'I' for Inactive)
REMARK    1  A    between atoms: C_1  and  O_2
REMARK    2  A    between atoms: O_2  and  C_3
REMARK    3  A    between atoms: C_5  and  C_6
REMARK    4  A    between atoms: N_7  and  N_8
REMARK    5  A    between atoms: N_8  and  C_9
REMARK    6  A    between atoms: C_21  and  O_22
REMARK                            x       y       z     vdW  Elec       q    Type
REMARK                         _______ _______ _______ _____ _____    ______ ____
ROOT
ATOM      1  C   UNL     1       3.210   6.657  18.779  0.00  0.00    +0.000 C 
ATOM      2  N   UNL     1       2.898   5.490  19.215  0.00  0.00    +0.000 NA
ENDROOT
BRANCH   1   5
ATOM      3  C   UNL     1       0.753   9.066  20.345  0.00  0.00    +0.000 A 
ATOM      4  C   UNL     1       1.664   8.006  20.167  0.00  0.00    +0.000 A 
ATOM      5  C   UNL     1       2.261   7.776  18.924  0.00  0.00    +0.000 A 
ATOM      6  C   UNL     1       1.945   8.615  17.842  0.00  0.00    +0.000 A 
ATOM      7  C   UNL     1       1.041   9.665  18.006  0.00  0.00    +0.000 A 
ATOM      8  C   UNL     1       0.443   9.895  19.252  0.00  0.00    +0.000 A 
BRANCH   3  10
ATOM      9  C   UNL     1       0.826   9.333  22.760  0.00  0.00    +0.000 C 
ATOM     10  O   UNL     1       0.168   9.312  21.547  0.00  0.00    +0.000 OA
ENDBRANCH   3  10
BRANCH   8  11
ATOM     11  O   UNL     1      -0.432  10.910  19.408  0.00  0.00    +0.000 OA
ATOM     12  H   UNL     1      -1.313  10.893  19.005  0.00  0.00    +0.000 HD
ENDBRANCH   8  11
ENDBRANCH   1   5
BRANCH   2  13
ATOM     13  N   UNL     1       3.739   4.409  19.104  0.00  0.00    +0.000 N 
ATOM     14  H   UNL     1       3.382   3.466  19.308  0.00  0.00    +0.000 HD
BRANCH  13  15
ATOM     15  C   UNL     1       5.089   4.640  18.732  0.00  0.00    +0.000 A 
ATOM     16  N   UNL     1       5.980   4.947  19.716  0.00  0.00    +0.000 NA
ATOM     17  N   UNL     1       7.269   5.171  19.476  0.00  0.00    +0.000 NA
ATOM     18  C   UNL     1       7.773   5.102  18.221  0.00  0.00    +0.000 A 
ATOM     19  C   UNL     1       6.929   4.793  17.153  0.00  0.00    +0.000 A 
ATOM     20  C   UNL     1       7.441   4.715  15.850  0.00  0.00    +0.000 A 
ATOM     21  C   UNL     1       6.600   4.405  14.783  0.00  0.00    +0.000 A 
ATOM     22  C   UNL     1       5.243   4.172  15.006  0.00  0.00    +0.000 A 
ATOM     23  C   UNL     1       4.717   4.244  16.301  0.00  0.00    +0.000 A 
ATOM     24  C   UNL     1       5.553   4.555  17.395  0.00  0.00    +0.000 A 
ENDBRANCH  13  15
ENDBRANCH   2  13
TORSDOF 5
ENDMDL
MODEL 3
REMARK VINA RESULT:      -7.6      6.338      8.841
REMARK  Name = 
REMARK  6 active torsions:
REMARK  status: ('A' for Active; 'I' for Inactive)
REMARK    1  A    between atoms: C_1  and  O_2
REMARK    2  A    between atoms: O_2  and  C_3
REMARK    3  A    between atoms: C_5  and  C_6
REMARK    4  A    between atoms: N_7  and  N_8
REMARK    5  A    between atoms: N_8  and  C_9
REMARK    6  A    between atoms: C_21  and  O_22
REMARK                            x       y       z     vdW  Elec       q    Type
REMARK                         _______ _______ _______ _____ _____    ______ ____
ROOT
ATOM      1  C   UNL     1       2.563   5.845  19.798  0.00  0.00    +0.000 C 
ATOM      2  N   UNL     1       2.473   7.124  19.879  0.00  0.00    +0.000 NA
ENDROOT
BRANCH   1   5
ATOM      3  C   UNL     1       5.829   4.681  18.289  0.00  0.00    +0.000 A 
ATOM      4  C   UNL     1       4.884   5.257  19.162  0.00  0.00    +0.000 A 
ATOM      5  C   UNL     1       3.521   5.232  18.858  0.00  0.00    +0.000 A 
ATOM      6  C   UNL     1       3.090   4.624  17.667  0.00  0.00    +0.000 A 
ATOM      7  C   UNL     1       4.017   4.054  16.793  0.00  0.00    +0.000 A 
ATOM      8  C   UNL     1       5.385   4.080  17.099  0.00  0.00    +0.000 A 
BRANCH   3  10
ATOM      9  C   UNL     1       7.878   5.791  18.983  0.00  0.00    +0.000 C 
ATOM     10  O   UNL     1       7.159   4.687  18.569  0.00  0.00    +0.000 OA
ENDBRANCH   3  10
BRANCH   8  11
ATOM     11  O   UNL     1       6.279   3.530  16.252  0.00  0.00    +0.000 OA
ATOM     12  H   UNL     1       6.769   2.724  16.476  0.00  0.00    +0.000 HD
ENDBRANCH   8  11
ENDBRANCH   1   5
BRANCH   2  13
ATOM     13  N   UNL     1       1.598   7.751  20.732  0.00  0.00    +0.000 N 
ATOM     14  H   UNL     1       1.358   7.307  21.629  0.00  0.00    +0.000 HD
BRANCH  13  15
ATOM     15  C   UNL     1       1.030   8.988  20.327  0.00  0.00    +0.000 A 
ATOM     16  N   UNL     1       1.263   9.413  19.054  0.00  0.00    +0.000 NA
ATOM     17  N   UNL     1       0.769  10.551  18.574  0.00  0.00    +0.000 NA
ATOM     18  C   UNL     1      -0.006  11.359  19.335  0.00  0.00    +0.000 A 
ATOM     19  C   UNL     1      -0.296  10.997  20.652  0.00  0.00    +0.000 A 
ATOM     20  C   UNL     1      -1.101  11.824  21.448  0.00  0.00    +0.000 A 
ATOM     21  C   UNL     1      -1.392  11.464  22.763  0.00  0.00    +0.000 A 
ATOM     22  C   UNL     1      -0.881  10.280  23.294  0.00  0.00    +0.000 A 
ATOM     23  C   UNL     1      -0.078   9.443  22.512  0.00  0.00    +0.000 A 
ATOM     24  C   UNL     1       0.227   9.789  21.177  0.00  0.00    +0.000 A 
ENDBRANCH  13  15
ENDBRANCH   2  13
TORSDOF 5
ENDMDL
MODEL 4
REMARK VINA RESULT:      -7.5      0.809      1.862
REMARK  Name = 
REMARK  6 active torsions:
REMARK  status: ('A' for Active; 'I' for Inactive)
REMARK    1  A    between atoms: C_1  and  O_2
REMARK    2  A    between atoms: O_2  and  C_3
REMARK    3  A    between atoms: C_5  and  C_6
REMARK    4  A    between atoms: N_7  and  N_8
REMARK    5  A    between atoms: N_8  and  C_9
REMARK    6  A    between atoms: C_21  and  O_22
REMARK                            x       y       z     vdW  Elec       q    Type
REMARK                         _______ _______ _______ _____ _____    ______ ____
ROOT
ATOM      1  C   UNL     1       8.818   9.038  18.645  0.00  0.00    +0.000 C 
ATOM      2  N   UNL     1       7.987   8.311  17.990  0.00  0.00    +0.000 NA
ENDROOT
BRANCH   1   5
ATOM      3  C   UNL     1      10.117  12.589  18.633  0.00  0.00    +0.000 A 
ATOM      4  C   UNL     1       9.989  11.208  18.884  0.00  0.00    +0.000 A 
ATOM      5  C   UNL     1       8.916  10.482  18.361  0.00  0.00    +0.000 A 
ATOM      6  C   UNL     1       7.955  11.141  17.575  0.00  0.00    +0.000 A 
ATOM      7  C   UNL     1       8.070  12.509  17.324  0.00  0.00    +0.000 A 
ATOM      8  C   UNL     1       9.146  13.236  17.850  0.00  0.00    +0.000 A 
BRANCH   3  10
ATOM      9  C   UNL     1      12.332  13.574  18.449  0.00  0.00    +0.000 C 
ATOM     10  O   UNL     1      11.157  13.312  19.126  0.00  0.00    +0.000 OA
ENDBRANCH   3  10
BRANCH   8  11
ATOM     11  O   UNL     1       9.255  14.559  17.607  0.00  0.00    +0.000 OA
ATOM     12  H   UNL     1      10.115  14.993  17.506  0.00  0.00    +0.000 HD
ENDBRANCH   8  11
ENDBRANCH   1   5
BRANCH   2  13
ATOM     13  N   UNL     1       7.854   6.961  18.207  0.00  0.00    +0.000 N 
ATOM     14  H   UNL     1       8.325   6.528  19.014  0.00  0.00    +0.000 HD
BRANCH  13  15
ATOM     15  C   UNL     1       7.087   6.200  17.285  0.00  0.00    +0.000 A 
ATOM     16  N   UNL     1       7.494   6.171  15.985  0.00  0.00    +0.000 NA
ATOM     17  N   UNL     1       6.852   5.481  15.046  0.00  0.00    +0.000 NA
ATOM     18  C   UNL     1       5.745   4.758  15.337  0.00  0.00    +0.000 A 
ATOM     19  C   UNL     1       5.260   4.732  16.646  0.00  0.00    +0.000 A 
ATOM     20  C   UNL     1       4.118   3.983  16.959  0.00  0.00    +0.000 A 
ATOM     21  C   UNL     1       3.633   3.955  18.266  0.00  0.00    +0.000 A 
ATOM     22  C   UNL     1       4.283   4.675  19.269  0.00  0.00    +0.000 A 
ATOM     23  C   UNL     1       5.426   5.426  18.973  0.00  0.00    +0.000 A 
ATOM     24  C   UNL     1       5.933   5.465  17.655  0.00  0.00    +0.000 A 
ENDBRANCH  13  15
ENDBRANCH   2  13
TORSDOF 5
ENDMDL
MODEL 5
REMARK VINA RESULT:      -7.4      4.932      6.493
REMARK  Name = 
REMARK  6 active torsions:
REMARK  status: ('A' for Active; 'I' for Inactive)
REMARK    1  A    between atoms: C_1  and  O_2
REMARK    2  A    between atoms: O_2  and  C_3
REMARK    3  A    between atoms: C_5  and  C_6
REMARK    4  A    between atoms: N_7  and  N_8
REMARK    5  A    between atoms: N_8  and  C_9
REMARK    6  A    between atoms: C_21  and  O_22
REMARK                            x       y       z     vdW  Elec       q    Type
REMARK                         _______ _______ _______ _____ _____    ______ ____
ROOT
ATOM      1  C   UNL     1       2.616   6.597  19.011  0.00  0.00    +0.000 C 
ATOM      2  N   UNL     1       3.146   5.699  19.761  0.00  0.00    +0.000 NA
ENDROOT
BRANCH   1   5
ATOM      3  C   UNL     1       1.058  10.018  19.416  0.00  0.00    +0.000 A 
ATOM      4  C   UNL     1       1.727   8.905  18.869  0.00  0.00    +0.000 A 
ATOM      5  C   UNL     1       1.912   7.741  19.620  0.00  0.00    +0.000 A 
ATOM      6  C   UNL     1       1.424   7.684  20.937  0.00  0.00    +0.000 A 
ATOM      7  C   UNL     1       0.763   8.783  21.490  0.00  0.00    +0.000 A 
ATOM      8  C   UNL     1       0.579   9.949  20.736  0.00  0.00    +0.000 A 
BRANCH   3  10
ATOM      9  C   UNL     1       1.772  12.185  18.577  0.00  0.00    +0.000 C 
ATOM     10  O   UNL     1       0.860  11.156  18.701  0.00  0.00    +0.000 OA
ENDBRANCH   3  10
BRANCH   8  11
ATOM     11  O   UNL     1      -0.059  11.010  21.273  0.00  0.00    +0.000 OA
ATOM     12  H   UNL     1      -0.230  11.817  20.764  0.00  0.00    +0.000 HD
ENDBRANCH   8  11
ENDBRANCH   1   5
BRANCH   2  13
ATOM     13  N   UNL     1       3.810   4.609  19.251  0.00  0.00    +0.000 N 
ATOM     14  H   UNL     1       3.332   3.698  19.208  0.00  0.00    +0.000 HD
BRANCH  13  15
ATOM     15  C   UNL     1       5.154   4.775  18.824  0.00  0.00    +0.000 A 
ATOM     16  N   UNL     1       6.094   5.062  19.767  0.00  0.00    +0.000 NA
ATOM     17  N   UNL     1       7.381   5.227  19.473  0.00  0.00    +0.000 NA
ATOM     18  C   UNL     1       7.833   5.114  18.201  0.00  0.00    +0.000 A 
ATOM     19  C   UNL     1       6.935   4.821  17.172  0.00  0.00    +0.000 A 
ATOM     20  C   UNL     1       7.392   4.697  15.853  0.00  0.00    +0.000 A 
ATOM     21  C   UNL     1       6.498   4.403  14.825  0.00  0.00    +0.000 A 
ATOM     22  C   UNL     1       5.142   4.232  15.105  0.00  0.00    +0.000 A 
ATOM     23  C   UNL     1       4.670   4.350  16.417  0.00  0.00    +0.000 A 
ATOM     24  C   UNL     1       5.561   4.646  17.472  0.00  0.00    +0.000 A 
ENDBRANCH  13  15
ENDBRANCH   2  13
TORSDOF 5
ENDMDL
MODEL 6
REMARK VINA RESULT:      -7.3      5.876      8.088
REMARK  Name = 
REMARK  6 active torsions:
REMARK  status: ('A' for Active; 'I' for Inactive)
REMARK    1  A    between atoms: C_1  and  O_2
REMARK    2  A    between atoms: O_2  and  C_3
REMARK    3  A    between atoms: C_5  and  C_6
REMARK    4  A    between atoms: N_7  and  N_8
REMARK    5  A    between atoms: N_8  and  C_9
REMARK    6  A    between atoms: C_21  and  O_22
REMARK                            x       y       z     vdW  Elec       q    Type
REMARK                         _______ _______ _______ _____ _____    ______ ____
ROOT
ATOM      1  C   UNL     1       2.693   6.185  18.513  0.00  0.00    +0.000 C 
ATOM      2  N   UNL     1       2.747   7.136  19.374  0.00  0.00    +0.000 NA
ENDROOT
BRANCH   1   5
ATOM      3  C   UNL     1       6.077   6.428  16.846  0.00  0.00    +0.000 A 
ATOM      4  C   UNL     1       4.907   6.755  17.560  0.00  0.00    +0.000 A 
ATOM      5  C   UNL     1       3.902   5.804  17.759  0.00  0.00    +0.000 A 
ATOM      6  C   UNL     1       4.065   4.508  17.240  0.00  0.00    +0.000 A 
ATOM      7  C   UNL     1       5.218   4.176  16.528  0.00  0.00    +0.000 A 
ATOM      8  C   UNL     1       6.225   5.129  16.328  0.00  0.00    +0.000 A 
BRANCH   3  10
ATOM      9  C   UNL     1       7.805   7.938  17.648  0.00  0.00    +0.000 C 
ATOM     10  O   UNL     1       7.071   7.334  16.647  0.00  0.00    +0.000 OA
ENDBRANCH   3  10
BRANCH   8  11
ATOM     11  O   UNL     1       7.338   4.806  15.638  0.00  0.00    +0.000 OA
ATOM     12  H   UNL     1       8.024   5.460  15.435  0.00  0.00    +0.000 HD
ENDBRANCH   8  11
ENDBRANCH   1   5
BRANCH   2  13
ATOM     13  N   UNL     1       1.653   7.537  20.102  0.00  0.00    +0.000 N 
ATOM     14  H   UNL     1       1.175   6.861  20.712  0.00  0.00    +0.000 HD
BRANCH  13  15
ATOM     15  C   UNL     1       1.203   8.877  19.963  0.00  0.00    +0.000 A 
ATOM     16  N   UNL     1       1.449   9.515  18.784  0.00  0.00    +0.000 NA
ATOM     17  N   UNL     1       1.060  10.766  18.549  0.00  0.00    +0.000 NA
ATOM     18  C   UNL     1       0.388  11.481  19.481  0.00  0.00    +0.000 A 
ATOM     19  C   UNL     1       0.095  10.902  20.717  0.00  0.00    +0.000 A 
ATOM     20  C   UNL     1      -0.605  11.633  21.688  0.00  0.00    +0.000 A 
ATOM     21  C   UNL     1      -0.899  11.056  22.922  0.00  0.00    +0.000 A 
ATOM     22  C   UNL     1      -0.498   9.749  23.198  0.00  0.00    +0.000 A 
ATOM     23  C   UNL     1       0.198   9.006  22.239  0.00  0.00    +0.000 A 
ATOM     24  C   UNL     1       0.505   9.572  20.982  0.00  0.00    +0.000 A 
ENDBRANCH  13  15
ENDBRANCH   2  13
TORSDOF 5
ENDMDL
MODEL 7
REMARK VINA RESULT:      -7.3      6.666      8.063
REMARK  Name = 
REMARK  6 active torsions:
REMARK  status: ('A' for Active; 'I' for Inactive)
REMARK    1  A    between atoms: C_1  and  O_2
REMARK    2  A    between atoms: O_2  and  C_3
REMARK    3  A    between atoms: C_5  and  C_6
REMARK    4  A    between atoms: N_7  and  N_8
REMARK    5  A    between atoms: N_8  and  C_9
REMARK    6  A    between atoms: C_21  and  O_22
REMARK                            x       y       z     vdW  Elec       q    Type
REMARK                         _______ _______ _______ _____ _____    ______ ____
ROOT
ATOM      1  C   UNL     1       1.206   9.413  19.224  0.00  0.00    +0.000 C 
ATOM      2  N   UNL     1       1.207   8.334  19.920  0.00  0.00    +0.000 NA
ENDROOT
BRANCH   1   5
ATOM      3  C   UNL     1      -2.075  10.466  17.668  0.00  0.00    +0.000 A 
ATOM      4  C   UNL     1      -0.862   9.792  17.914  0.00  0.00    +0.000 A 
ATOM      5  C   UNL     1      -0.056  10.144  18.999  0.00  0.00    +0.000 A 
ATOM      6  C   UNL     1      -0.463  11.183  19.854  0.00  0.00    +0.000 A 
ATOM      7  C   UNL     1      -1.660  11.859  19.617  0.00  0.00    +0.000 A 
ATOM      8  C   UNL     1      -2.468  11.506  18.528  0.00  0.00    +0.000 A 
BRANCH   3  10
ATOM      9  C   UNL     1      -2.811  10.693  15.362  0.00  0.00    +0.000 C 
ATOM     10  O   UNL     1      -2.878  10.135  16.623  0.00  0.00    +0.000 OA
ENDBRANCH   3  10
BRANCH   8  11
ATOM     11  O   UNL     1      -3.624  12.163  18.300  0.00  0.00    +0.000 OA
ATOM     12  H   UNL     1      -4.345  11.769  17.785  0.00  0.00    +0.000 HD
ENDBRANCH   8  11
ENDBRANCH   1   5
BRANCH   2  13
ATOM     13  N   UNL     1       2.349   7.609  20.159  0.00  0.00    +0.000 N 
ATOM     14  H   UNL     1       2.947   7.855  20.959  0.00  0.00    +0.000 HD
BRANCH  13  15
ATOM     15  C   UNL     1       2.679   6.554  19.267  0.00  0.00    +0.000 A 
ATOM     16  N   UNL     1       3.490   6.840  18.211  0.00  0.00    +0.000 NA
ATOM     17  N   UNL     1       3.867   5.922  17.324  0.00  0.00    +0.000 NA
ATOM     18  C   UNL     1       3.459   4.635  17.427  0.00  0.00    +0.000 A 
ATOM     19  C   UNL     1       2.625   4.256  18.481  0.00  0.00    +0.000 A 
ATOM     20  C   UNL     1       2.201   2.926  18.600  0.00  0.00    +0.000 A 
ATOM     21  C   UNL     1       1.369   2.546  19.652  0.00  0.00    +0.000 A 
ATOM     22  C   UNL     1       0.954   3.489  20.592  0.00  0.00    +0.000 A 
ATOM     23  C   UNL     1       1.371   4.821  20.488  0.00  0.00    +0.000 A 
ATOM     24  C   UNL     1       2.215   5.225  19.431  0.00  0.00    +0.000 A 
ENDBRANCH  13  15
ENDBRANCH   2  13
TORSDOF 5
ENDMDL
MODEL 8
REMARK VINA RESULT:      -7.2      6.420      7.475
REMARK  Name = 
REMARK  6 active torsions:
REMARK  status: ('A' for Active; 'I' for Inactive)
REMARK    1  A    between atoms: C_1  and  O_2
REMARK    2  A    between atoms: O_2  and  C_3
REMARK    3  A    between atoms: C_5  and  C_6
REMARK    4  A    between atoms: N_7  and  N_8
REMARK    5  A    between atoms: N_8  and  C_9
REMARK    6  A    between atoms: C_21  and  O_22
REMARK                            x       y       z     vdW  Elec       q    Type
REMARK                         _______ _______ _______ _____ _____    ______ ____
ROOT
ATOM      1  C   UNL     1       0.649   8.883  20.650  0.00  0.00    +0.000 C 
ATOM      2  N   UNL     1       1.670   8.353  20.079  0.00  0.00    +0.000 NA
ENDROOT
BRANCH   1   5
ATOM      3  C   UNL     1      -1.353  11.564  18.888  0.00  0.00    +0.000 A 
ATOM      4  C   UNL     1      -0.877  10.308  19.315  0.00  0.00    +0.000 A 
ATOM      5  C   UNL     1       0.180  10.216  20.225  0.00  0.00    +0.000 A 
ATOM      6  C   UNL     1       0.771  11.392  20.719  0.00  0.00    +0.000 A 
ATOM      7  C   UNL     1       0.309  12.640  20.299  0.00  0.00    +0.000 A 
ATOM      8  C   UNL     1      -0.750  12.732  19.386  0.00  0.00    +0.000 A 
BRANCH   3  10
ATOM      9  C   UNL     1      -2.437  11.078  16.767  0.00  0.00    +0.000 C 
ATOM     10  O   UNL     1      -2.384  11.676  18.010  0.00  0.00    +0.000 OA
ENDBRANCH   3  10
BRANCH   8  11
ATOM     11  O   UNL     1      -1.194  13.940  18.980  0.00  0.00    +0.000 OA
ATOM     12  H   UNL     1      -1.726  14.510  19.555  0.00  0.00    +0.000 HD
ENDBRANCH   8  11
ENDBRANCH   1   5
BRANCH   2  13
ATOM     13  N   UNL     1       2.156   7.118  20.435  0.00  0.00    +0.000 N 
ATOM     14  H   UNL     1       2.231   6.870  21.431  0.00  0.00    +0.000 HD
BRANCH  13  15
ATOM     15  C   UNL     1       2.566   6.231  19.404  0.00  0.00    +0.000 A 
ATOM     16  N   UNL     1       3.462   6.688  18.485  0.00  0.00    +0.000 NA
ATOM     17  N   UNL     1       3.917   5.935  17.487  0.00  0.00    +0.000 NA
ATOM     18  C   UNL     1       3.510   4.653  17.331  0.00  0.00    +0.000 A 
ATOM     19  C   UNL     1       2.593   4.105  18.230  0.00  0.00    +0.000 A 
ATOM     20  C   UNL     1       2.168   2.777  18.079  0.00  0.00    +0.000 A 
ATOM     21  C   UNL     1       1.254   2.228  18.976  0.00  0.00    +0.000 A 
ATOM     22  C   UNL     1       0.755   2.997  20.028  0.00  0.00    +0.000 A 
ATOM     23  C   UNL     1       1.171   4.323  20.192  0.00  0.00    +0.000 A 
ATOM     24  C   UNL     1       2.098   4.897  19.295  0.00  0.00    +0.000 A 
ENDBRANCH  13  15
ENDBRANCH   2  13
TORSDOF 5
ENDMDL
MODEL 9
REMARK VINA RESULT:      -7.2      6.590      7.637
REMARK  Name = 
REMARK  6 active torsions:
REMARK  status: ('A' for Active; 'I' for Inactive)
REMARK    1  A    between atoms: C_1  and  O_2
REMARK    2  A    between atoms: O_2  and  C_3
REMARK    3  A    between atoms: C_5  and  C_6
REMARK    4  A    between atoms: N_7  and  N_8
REMARK    5  A    between atoms: N_8  and  C_9
REMARK    6  A    between atoms: C_21  and  O_22
REMARK                            x       y       z     vdW  Elec       q    Type
REMARK                         _______ _______ _______ _____ _____    ______ ____
ROOT
ATOM      1  C   UNL     1       1.009   8.519  20.822  0.00  0.00    +0.000 C 
ATOM      2  N   UNL     1       1.826   7.986  19.986  0.00  0.00    +0.000 NA
ENDROOT
BRANCH   1   5
ATOM      3  C   UNL     1      -1.194  11.583  21.067  0.00  0.00    +0.000 A 
ATOM      4  C   UNL     1      -0.426  10.451  21.410  0.00  0.00    +0.000 A 
ATOM      5  C   UNL     1       0.214   9.696  20.423  0.00  0.00    +0.000 A 
ATOM      6  C   UNL     1       0.089  10.074  19.075  0.00  0.00    +0.000 A 
ATOM      7  C   UNL     1      -0.672  11.190  18.725  0.00  0.00    +0.000 A 
ATOM      8  C   UNL     1      -1.314  11.946  19.715  0.00  0.00    +0.000 A 
BRANCH   3  10
ATOM      9  C   UNL     1      -1.182  13.033  23.019  0.00  0.00    +0.000 C 
ATOM     10  O   UNL     1      -1.818  12.335  22.011  0.00  0.00    +0.000 OA
ENDBRANCH   3  10
BRANCH   8  11
ATOM     11  O   UNL     1      -2.051  13.024  19.374  0.00  0.00    +0.000 OA
ATOM     12  H   UNL     1      -1.641  13.861  19.106  0.00  0.00    +0.000 HD
ENDBRANCH   8  11
ENDBRANCH   1   5
BRANCH   2  13
ATOM     13  N   UNL     1       2.596   6.892  20.302  0.00  0.00    +0.000 N 
ATOM     14  H   UNL     1       2.942   6.776  21.264  0.00  0.00    +0.000 HD
BRANCH  13  15
ATOM     15  C   UNL     1       2.911   5.968  19.271  0.00  0.00    +0.000 A 
ATOM     16  N   UNL     1       3.860   6.324  18.360  0.00  0.00    +0.000 NA
ATOM     17  N   UNL     1       4.235   5.527  17.363  0.00  0.00    +0.000 NA
ATOM     18  C   UNL     1       3.686   4.300  17.199  0.00  0.00    +0.000 A 
ATOM     19  C   UNL     1       2.707   3.856  18.089  0.00  0.00    +0.000 A 
ATOM     20  C   UNL     1       2.136   2.585  17.931  0.00  0.00    +0.000 A 
ATOM     21  C   UNL     1       1.158   2.140  18.818  0.00  0.00    +0.000 A 
ATOM     22  C   UNL     1       0.742   2.958  19.869  0.00  0.00    +0.000 A 
ATOM     23  C   UNL     1       1.303   4.227  20.042  0.00  0.00    +0.000 A 
ATOM     24  C   UNL     1       2.296   4.696  19.154  0.00  0.00    +0.000 A 
ENDBRANCH  13  15
ENDBRANCH   2  13
TORSDOF 5
ENDMDL
