MODEL 1
REMARK VINA RESULT:      -6.0      0.000      0.000
REMARK  Name = 
REMARK  5 active torsions:
REMARK  status: ('A' for Active; 'I' for Inactive)
REMARK    1  A    between atoms: N_1  and  CA_2
REMARK    2  A    between atoms: CA_2  and  C_3
REMARK    3  A    between atoms: CA_2  and  C_11
REMARK    4  A    between atoms: C_3  and  C_4
REMARK    5  A    between atoms: C_11  and  OXT_13
REMARK                            x       y       z     vdW  Elec       q    Type
REMARK                         _______ _______ _______ _____ _____    ______ ____
ROOT
ATOM      1  CA  UNL     1       6.530   5.635  17.962  0.00  0.00    +0.000 C 
ENDROOT
BRANCH   1   2
ATOM      2  N   UNL     1       6.312   4.956  19.260  0.00  0.00    +0.000 NA
ATOM      3  H1  UNL     1       5.667   4.176  19.202  0.00  0.00    +0.000 HD
ATOM      4  H2  UNL     1       5.900   5.620  19.920  0.00  0.00    +0.000 HD
ENDBRANCH   1   2
BRANCH   1   5
ATOM      5  C   UNL     1       7.432   4.764  17.066  0.00  0.00    +0.000 C 
ATOM      6  O   UNL     1       7.388   4.718  15.845  0.00  0.00    +0.000 OA
BRANCH   5   7
ATOM      7  OXT UNL     1       8.308   4.013  17.783  0.00  0.00    +0.000 OA
ATOM      8  HXT UNL     1       7.890   3.564  18.541  0.00  0.00    +0.000 HD
ENDBRANCH   5   7
ENDBRANCH   1   5
BRANCH   1   9
ATOM      9  C   UNL     1       5.206   5.932  17.224  0.00  0.00    +0.000 C 
BRANCH   9  10
ATOM     10  C   UNL     1       4.060   5.023  17.612  0.00  0.00    +0.000 A 
ATOM     11  C   UNL     1       3.994   3.707  17.140  0.00  0.00    +0.000 A 
ATOM     12  C   UNL     1       2.917   2.884  17.488  0.00  0.00    +0.000 A 
ATOM     13  C   UNL     1       1.903   3.380  18.307  0.00  0.00    +0.000 A 
ATOM     14 CL   UNL     1       0.571   2.373  18.722  0.00  0.00    +0.000 Cl
ATOM     15  C   UNL     1       1.959   4.684  18.787  0.00  0.00    +0.000 A 
ATOM     16  C   UNL     1       3.037   5.503  18.443  0.00  0.00    +0.000 A 
ENDBRANCH   9  10
ENDBRANCH   1   9
TORSDOF 5
ENDMDL
MODEL 2
REMARK VINA RESULT:      -5.9      1.801      2.057
REMARK  Name = 
REMARK  5 active torsions:
REMARK  status: ('A' for Active; 'I' for Inactive)
REMARK    1  A    between atoms: N_1  and  CA_2
REMARK    2  A    between atoms: CA_2  and  C_3
REMARK    3  A    between atoms: CA_2  and  C_11
REMARK    4  A    between atoms: C_3  and  C_4
REMARK    5  A    between atoms: C_11  and  OXT_13
REMARK                            x       y       z     vdW  Elec       q    Type
REMARK                         _______ _______ _______ _____ _____    ______ ____
ROOT
ATOM      1  CA  UNL     1       6.524   4.832  17.179  0.00  0.00    +0.000 C 
ENDROOT
BRANCH   1   2
ATOM      2  N   UNL     1       7.849   4.200  16.981  0.00  0.00    +0.000 NA
ATOM      3  H1  UNL     1       8.408   4.166  17.826  0.00  0.00    +0.000 HD
ATOM      4  H2  UNL     1       8.385   4.750  16.306  0.00  0.00    +0.000 HD
ENDBRANCH   1   2
BRANCH   1   5
ATOM      5  C   UNL     1       6.504   6.217  16.504  0.00  0.00    +0.000 C 
ATOM      6  O   UNL     1       5.558   6.697  15.897  0.00  0.00    +0.000 OA
BRANCH   5   7
ATOM      7  OXT UNL     1       7.682   6.879  16.639  0.00  0.00    +0.000 OA
ATOM      8  HXT UNL     1       8.261   6.489  17.320  0.00  0.00    +0.000 HD
ENDBRANCH   5   7
ENDBRANCH   1   5
BRANCH   1   9
ATOM      9  C   UNL     1       5.372   3.971  16.617  0.00  0.00    +0.000 C 
BRANCH   9  10
ATOM     10  C   UNL     1       4.249   3.716  17.600  0.00  0.00    +0.000 A 
ATOM     11  C   UNL     1       2.930   3.555  17.160  0.00  0.00    +0.000 A 
ATOM     12  C   UNL     1       1.898   3.343  18.081  0.00  0.00    +0.000 A 
ATOM     13  C   UNL     1       2.186   3.296  19.445  0.00  0.00    +0.000 A 
ATOM     14 CL   UNL     1       0.915   3.052  20.578  0.00  0.00    +0.000 Cl
ATOM     15  C   UNL     1       3.493   3.450  19.895  0.00  0.00    +0.000 A 
ATOM     16  C   UNL     1       4.523   3.656  18.975  0.00  0.00    +0.000 A 
ENDBRANCH   9  10
ENDBRANCH   1   9
TORSDOF 5
ENDMDL
MODEL 3
REMARK VINA RESULT:      -5.9      1.485      1.675
REMARK  Name = 
REMARK  5 active torsions:
REMARK  status: ('A' for Active; 'I' for Inactive)
REMARK    1  A    between atoms: N_1  and  CA_2
REMARK    2  A    between atoms: CA_2  and  C_3
REMARK    3  A    between atoms: CA_2  and  C_11
REMARK    4  A    between atoms: C_3  and  C_4
REMARK    5  A    between atoms: C_11  and  OXT_13
REMARK                            x       y       z     vdW  Elec       q    Type
REMARK                         _______ _______ _______ _____ _____    ______ ____
ROOT
ATOM      1  CA  UNL     1       6.634   5.165  16.550  0.00  0.00    +0.000 C 
ENDROOT
BRANCH   1   2
ATOM      2  N   UNL     1       7.386   5.618  15.355  0.00  0.00    +0.000 NA
ATOM      3  H1  UNL     1       8.288   5.168  15.253  0.00  0.00    +0.000 HD
ATOM      4  H2  UNL     1       7.573   6.620  15.438  0.00  0.00    +0.000 HD
ENDBRANCH   1   2
BRANCH   1   5
ATOM      5  C   UNL     1       7.488   5.385  17.813  0.00  0.00    +0.000 C 
ATOM      6  O   UNL     1       7.901   4.504  18.553  0.00  0.00    +0.000 OA
BRANCH   5   7
ATOM      7  OXT UNL     1       7.742   6.699  18.048  0.00  0.00    +0.000 OA
ATOM      8  HXT UNL     1       7.611   6.949  18.981  0.00  0.00    +0.000 HD
ENDBRANCH   5   7
ENDBRANCH   1   5
BRANCH   1   9
ATOM      9  C   UNL     1       5.284   5.897  16.708  0.00  0.00    +0.000 C 
BRANCH   9  10
ATOM     10  C   UNL     1       4.162   5.026  17.230  0.00  0.00    +0.000 A 
ATOM     11  C   UNL     1       4.203   3.634  17.085  0.00  0.00    +0.000 A 
ATOM     12  C   UNL     1       3.149   2.842  17.551  0.00  0.00    +0.000 A 
ATOM     13  C   UNL     1       2.048   3.444  18.161  0.00  0.00    +0.000 A 
ATOM     14 CL   UNL     1       0.744   2.471  18.721  0.00  0.00    +0.000 Cl
ATOM     15  C   UNL     1       1.996   4.825  18.317  0.00  0.00    +0.000 A 
ATOM     16  C   UNL     1       3.052   5.614  17.855  0.00  0.00    +0.000 A 
ENDBRANCH   9  10
ENDBRANCH   1   9
TORSDOF 5
ENDMDL
MODEL 4
REMARK VINA RESULT:      -5.9      1.749      1.982
REMARK  Name = 
REMARK  5 active torsions:
REMARK  status: ('A' for Active; 'I' for Inactive)
REMARK    1  A    between atoms: N_1  and  CA_2
REMARK    2  A    between atoms: CA_2  and  C_3
REMARK    3  A    between atoms: CA_2  and  C_11
REMARK    4  A    between atoms: C_3  and  C_4
REMARK    5  A    between atoms: C_11  and  OXT_13
REMARK                            x       y       z     vdW  Elec       q    Type
REMARK                         _______ _______ _______ _____ _____    ______ ____
ROOT
ATOM      1  CA  UNL     1       6.884   4.980  17.589  0.00  0.00    +0.000 C 
ENDROOT
BRANCH   1   2
ATOM      2  N   UNL     1       8.098   4.142  17.734  0.00  0.00    +0.000 NA
ATOM      3  H1  UNL     1       7.913   3.233  18.141  0.00  0.00    +0.000 HD
ATOM      4  H2  UNL     1       8.754   4.610  18.364  0.00  0.00    +0.000 HD
ENDBRANCH   1   2
BRANCH   1   5
ATOM      5  C   UNL     1       7.204   6.210  16.719  0.00  0.00    +0.000 C 
ATOM      6  O   UNL     1       7.185   7.372  17.097  0.00  0.00    +0.000 OA
BRANCH   5   7
ATOM      7  OXT UNL     1       7.511   5.877  15.438  0.00  0.00    +0.000 OA
ATOM      8  HXT UNL     1       7.075   5.055  15.145  0.00  0.00    +0.000 HD
ENDBRANCH   5   7
ENDBRANCH   1   5
BRANCH   1   9
ATOM      9  C   UNL     1       5.705   4.202  16.966  0.00  0.00    +0.000 C 
BRANCH   9  10
ATOM     10  C   UNL     1       4.492   4.086  17.864  0.00  0.00    +0.000 A 
ATOM     11  C   UNL     1       4.570   3.431  19.098  0.00  0.00    +0.000 A 
ATOM     12  C   UNL     1       3.436   3.311  19.909  0.00  0.00    +0.000 A 
ATOM     13  C   UNL     1       2.221   3.845  19.482  0.00  0.00    +0.000 A 
ATOM     14 CL   UNL     1       0.822   3.684  20.472  0.00  0.00    +0.000 Cl
ATOM     15  C   UNL     1       2.130   4.504  18.260  0.00  0.00    +0.000 A 
ATOM     16  C   UNL     1       3.263   4.627  17.455  0.00  0.00    +0.000 A 
ENDBRANCH   9  10
ENDBRANCH   1   9
TORSDOF 5
ENDMDL
MODEL 5
REMARK VINA RESULT:      -5.9      1.909      2.113
REMARK  Name = 
REMARK  5 active torsions:
REMARK  status: ('A' for Active; 'I' for Inactive)
REMARK    1  A    between atoms: N_1  and  CA_2
REMARK    2  A    between atoms: CA_2  and  C_3
REMARK    3  A    between atoms: CA_2  and  C_11
REMARK    4  A    between atoms: C_3  and  C_4
REMARK    5  A    between atoms: C_11  and  OXT_13
REMARK                            x       y       z     vdW  Elec       q    Type
REMARK                         _______ _______ _______ _____ _____    ______ ____
ROOT
ATOM      1  CA  UNL     1       5.959   3.917  16.225  0.00  0.00    +0.000 C 
ENDROOT
BRANCH   1   2
ATOM      2  N   UNL     1       6.133   3.537  14.803  0.00  0.00    +0.000 NA
ATOM      3  H1  UNL     1       5.256   3.385  14.318  0.00  0.00    +0.000 HD
ATOM      4  H2  UNL     1       6.645   2.654  14.754  0.00  0.00    +0.000 HD
ENDBRANCH   1   2
BRANCH   1   5
ATOM      5  C   UNL     1       7.181   4.725  16.698  0.00  0.00    +0.000 C 
ATOM      6  O   UNL     1       7.544   5.799  16.239  0.00  0.00    +0.000 OA
BRANCH   5   7
ATOM      7  OXT UNL     1       7.855   4.110  17.705  0.00  0.00    +0.000 OA
ATOM      8  HXT UNL     1       8.393   4.728  18.234  0.00  0.00    +0.000 HD
ENDBRANCH   5   7
ENDBRANCH   1   5
BRANCH   1   9
ATOM      9  C   UNL     1       4.675   4.743  16.460  0.00  0.00    +0.000 C 
BRANCH   9  10
ATOM     10  C   UNL     1       3.802   4.229  17.584  0.00  0.00    +0.000 A 
ATOM     11  C   UNL     1       2.407   4.239  17.475  0.00  0.00    +0.000 A 
ATOM     12  C   UNL     1       1.611   3.782  18.531  0.00  0.00    +0.000 A 
ATOM     13  C   UNL     1       2.212   3.319  19.701  0.00  0.00    +0.000 A 
ATOM     14 CL   UNL     1       1.233   2.772  21.007  0.00  0.00    +0.000 Cl
ATOM     15  C   UNL     1       3.598   3.299  19.821  0.00  0.00    +0.000 A 
ATOM     16  C   UNL     1       4.391   3.750  18.765  0.00  0.00    +0.000 A 
ENDBRANCH   9  10
ENDBRANCH   1   9
TORSDOF 5
ENDMDL
MODEL 6
REMARK VINA RESULT:      -5.9      2.198      2.544
REMARK  Name = 
REMARK  5 active torsions:
REMARK  status: ('A' for Active; 'I' for Inactive)
REMARK    1  A    between atoms: N_1  and  CA_2
REMARK    2  A    between atoms: CA_2  and  C_3
REMARK    3  A    between atoms: CA_2  and  C_11
REMARK    4  A    between atoms: C_3  and  C_4
REMARK    5  A    between atoms: C_11  and  OXT_13
REMARK                            x       y       z     vdW  Elec       q    Type
REMARK                         _______ _______ _______ _____ _____    ______ ____
ROOT
ATOM      1  CA  UNL     1       6.633   4.713  16.003  0.00  0.00    +0.000 C 
ENDROOT
BRANCH   1   2
ATOM      2  N   UNL     1       7.757   4.223  16.835  0.00  0.00    +0.000 NA
ATOM      3  H1  UNL     1       8.628   4.714  16.664  0.00  0.00    +0.000 HD
ATOM      4  H2  UNL     1       7.934   3.241  16.613  0.00  0.00    +0.000 HD
ENDBRANCH   1   2
BRANCH   1   5
ATOM      5  C   UNL     1       7.035   4.681  14.517  0.00  0.00    +0.000 C 
ATOM      6  O   UNL     1       7.746   5.502  13.955  0.00  0.00    +0.000 OA
BRANCH   5   7
ATOM      7  OXT UNL     1       6.501   3.622  13.855  0.00  0.00    +0.000 OA
ATOM      8  HXT UNL     1       5.596   3.792  13.535  0.00  0.00    +0.000 HD
ENDBRANCH   5   7
ENDBRANCH   1   5
BRANCH   1   9
ATOM      9  C   UNL     1       5.346   3.884  16.206  0.00  0.00    +0.000 C 
BRANCH   9  10
ATOM     10  C   UNL     1       4.455   4.381  17.323  0.00  0.00    +0.000 A 
ATOM     11  C   UNL     1       3.918   3.496  18.264  0.00  0.00    +0.000 A 
ATOM     12  C   UNL     1       3.077   3.966  19.279  0.00  0.00    +0.000 A 
ATOM     13  C   UNL     1       2.769   5.324  19.349  0.00  0.00    +0.000 A 
ATOM     14 CL   UNL     1       1.721   5.900  20.587  0.00  0.00    +0.000 Cl
ATOM     15  C   UNL     1       3.299   6.216  18.423  0.00  0.00    +0.000 A 
ATOM     16  C   UNL     1       4.143   5.747  17.414  0.00  0.00    +0.000 A 
ENDBRANCH   9  10
ENDBRANCH   1   9
TORSDOF 5
ENDMDL
MODEL 7
REMARK VINA RESULT:      -5.9      1.437      1.678
REMARK  Name = 
REMARK  5 active torsions:
REMARK  status: ('A' for Active; 'I' for Inactive)
REMARK    1  A    between atoms: N_1  and  CA_2
REMARK    2  A    between atoms: CA_2  and  C_3
REMARK    3  A    between atoms: CA_2  and  C_11
REMARK    4  A    between atoms: C_3  and  C_4
REMARK    5  A    between atoms: C_11  and  OXT_13
REMARK                            x       y       z     vdW  Elec       q    Type
REMARK                         _______ _______ _______ _____ _____    ______ ____
ROOT
ATOM      1  CA  UNL     1       6.396   5.871  16.803  0.00  0.00    +0.000 C 
ENDROOT
BRANCH   1   2
ATOM      2  N   UNL     1       7.493   6.863  16.707  0.00  0.00    +0.000 NA
ATOM      3  H1  UNL     1       8.067   6.747  15.879  0.00  0.00    +0.000 HD
ATOM      4  H2  UNL     1       8.118   6.749  17.507  0.00  0.00    +0.000 HD
ENDBRANCH   1   2
BRANCH   1   5
ATOM      5  C   UNL     1       6.914   4.483  16.381  0.00  0.00    +0.000 C 
ATOM      6  O   UNL     1       6.399   3.757  15.543  0.00  0.00    +0.000 OA
BRANCH   5   7
ATOM      7  OXT UNL     1       8.033   4.116  17.059  0.00  0.00    +0.000 OA
ATOM      8  HXT UNL     1       8.736   3.778  16.475  0.00  0.00    +0.000 HD
ENDBRANCH   5   7
ENDBRANCH   1   5
BRANCH   1   9
ATOM      9  C   UNL     1       5.802   5.787  18.226  0.00  0.00    +0.000 C 
BRANCH   9  10
ATOM     10  C   UNL     1       4.553   4.938  18.330  0.00  0.00    +0.000 A 
ATOM     11  C   UNL     1       3.364   5.328  17.704  0.00  0.00    +0.000 A 
ATOM     12  C   UNL     1       2.210   4.545  17.826  0.00  0.00    +0.000 A 
ATOM     13  C   UNL     1       2.246   3.372  18.580  0.00  0.00    +0.000 A 
ATOM     14 CL   UNL     1       0.824   2.418  18.744  0.00  0.00    +0.000 Cl
ATOM     15  C   UNL     1       3.424   2.971  19.203  0.00  0.00    +0.000 A 
ATOM     16  C   UNL     1       4.575   3.750  19.075  0.00  0.00    +0.000 A 
ENDBRANCH   9  10
ENDBRANCH   1   9
TORSDOF 5
ENDMDL
MODEL 8
REMARK VINA RESULT:      -5.9      1.615      2.297
REMARK  Name = 
REMARK  5 active torsions:
REMARK  status: ('A' for Active; 'I' for Inactive)
REMARK    1  A    between atoms: N_1  and  CA_2
REMARK    2  A    between atoms: CA_2  and  C_3
REMARK    3  A    between atoms: CA_2  and  C_11
REMARK    4  A    between atoms: C_3  and  C_4
REMARK    5  A    between atoms: C_11  and  OXT_13
REMARK                            x       y       z     vdW  Elec       q    Type
REMARK                         _______ _______ _______ _____ _____    ______ ____
ROOT
ATOM      1  CA  UNL     1       6.675   5.430  17.067  0.00  0.00    +0.000 C 
ENDROOT
BRANCH   1   2
ATOM      2  N   UNL     1       7.431   4.926  15.896  0.00  0.00    +0.000 NA
ATOM      3  H1  UNL     1       8.042   4.148  16.118  0.00  0.00    +0.000 HD
ATOM      4  H2  UNL     1       8.033   5.671  15.541  0.00  0.00    +0.000 HD
ENDBRANCH   1   2
BRANCH   1   5
ATOM      5  C   UNL     1       7.474   6.552  17.756  0.00  0.00    +0.000 C 
ATOM      6  O   UNL     1       7.992   6.478  18.861  0.00  0.00    +0.000 OA
BRANCH   5   7
ATOM      7  OXT UNL     1       7.545   7.680  17.003  0.00  0.00    +0.000 OA
ATOM      8  HXT UNL     1       7.392   7.512  16.055  0.00  0.00    +0.000 HD
ENDBRANCH   5   7
ENDBRANCH   1   5
BRANCH   1   9
ATOM      9  C   UNL     1       5.276   5.958  16.680  0.00  0.00    +0.000 C 
BRANCH   9  10
ATOM     10  C   UNL     1       4.129   5.115  17.193  0.00  0.00    +0.000 A 
ATOM     11  C   UNL     1       3.075   5.692  17.910  0.00  0.00    +0.000 A 
ATOM     12  C   UNL     1       2.032   4.898  18.398  0.00  0.00    +0.000 A 
ATOM     13  C   UNL     1       2.045   3.522  18.171  0.00  0.00    +0.000 A 
ATOM     14 CL   UNL     1       0.770   2.542  18.785  0.00  0.00    +0.000 Cl
ATOM     15  C   UNL     1       3.083   2.936  17.455  0.00  0.00    +0.000 A 
ATOM     16  C   UNL     1       4.121   3.730  16.964  0.00  0.00    +0.000 A 
ENDBRANCH   9  10
ENDBRANCH   1   9
TORSDOF 5
ENDMDL
MODEL 9
REMARK VINA RESULT:      -5.8      2.098      2.410
REMARK  Name = 
REMARK  5 active torsions:
REMARK  status: ('A' for Active; 'I' for Inactive)
REMARK    1  A    between atoms: N_1  and  CA_2
REMARK    2  A    between atoms: CA_2  and  C_3
REMARK    3  A    between atoms: CA_2  and  C_11
REMARK    4  A    between atoms: C_3  and  C_4
REMARK    5  A    between atoms: C_11  and  OXT_13
REMARK                            x       y       z     vdW  Elec       q    Type
REMARK                         _______ _______ _______ _____ _____    ______ ____
ROOT
ATOM      1  CA  UNL     1       5.486   5.007  15.366  0.00  0.00    +0.000 C 
ENDROOT
BRANCH   1   2
ATOM      2  N   UNL     1       5.409   6.472  15.572  0.00  0.00    +0.000 NA
ATOM      3  H1  UNL     1       6.315   6.909  15.700  0.00  0.00    +0.000 HD
ATOM      4  H2  UNL     1       4.876   6.663  16.423  0.00  0.00    +0.000 HD
ENDBRANCH   1   2
BRANCH   1   5
ATOM      5  C   UNL     1       6.637   4.681  14.395  0.00  0.00    +0.000 C 
ATOM      6  O   UNL     1       7.613   5.387  14.189  0.00  0.00    +0.000 OA
BRANCH   5   7
ATOM      7  OXT UNL     1       6.459   3.496  13.755  0.00  0.00    +0.000 OA
ATOM      8  HXT UNL     1       6.457   3.587  12.784  0.00  0.00    +0.000 HD
ENDBRANCH   5   7
ENDBRANCH   1   5
BRANCH   1   9
ATOM      9  C   UNL     1       5.695   4.237  16.688  0.00  0.00    +0.000 C 
BRANCH   9  10
ATOM     10  C   UNL     1       4.483   4.218  17.595  0.00  0.00    +0.000 A 
ATOM     11  C   UNL     1       3.308   3.562  17.211  0.00  0.00    +0.000 A 
ATOM     12  C   UNL     1       2.187   3.571  18.049  0.00  0.00    +0.000 A 
ATOM     13  C   UNL     1       2.241   4.241  19.271  0.00  0.00    +0.000 A 
ATOM     14 CL   UNL     1       0.857   4.266  20.293  0.00  0.00    +0.000 Cl
ATOM     15  C   UNL     1       3.405   4.892  19.666  0.00  0.00    +0.000 A 
ATOM     16  C   UNL     1       4.524   4.878  18.832  0.00  0.00    +0.000 A 
ENDBRANCH   9  10
ENDBRANCH   1   9
TORSDOF 5
ENDMDL
