MODEL 1
REMARK VINA RESULT:      -8.6      0.000      0.000
REMARK  Name = 
REMARK  4 active torsions:
REMARK  status: ('A' for Active; 'I' for Inactive)
REMARK    1  A    between atoms: C_1  and  C_2
REMARK    2  A    between atoms: N_8  and  C_9
REMARK    3  A    between atoms: C_9  and  C_10
REMARK    4  A    between atoms: C_13  and  C_14
REMARK                            x       y       z     vdW  Elec       q    Type
REMARK                         _______ _______ _______ _____ _____    ______ ____
ROOT
ATOM      1  C   UNL     1       0.946  11.365  18.671  0.00  0.00    +0.000 C 
ATOM      2  C   UNL     1       1.108  10.170  19.520  0.00  0.00    +0.000 A 
ATOM      3  C   UNL     1       1.589   8.915  19.230  0.00  0.00    +0.000 A 
ATOM      4  C   UNL     1       1.507   8.178  20.434  0.00  0.00    +0.000 A 
ATOM      5  N   UNL     1       1.826   6.879  20.624  0.00  0.00    +0.000 N 
ATOM      6  C   UNL     1       2.375   6.062  19.654  0.00  0.00    +0.000 A 
ATOM      7  N   UNL     1       3.128   6.551  18.704  0.00  0.00    +0.000 NA
ATOM      8  N   UNL     1       3.646   5.763  17.717  0.00  0.00    +0.000 N 
ATOM      9  C   UNL     1       3.409   4.404  17.613  0.00  0.00    +0.000 A 
ATOM     10  O   UNL     1       3.826   3.699  16.696  0.00  0.00    +0.000 OA
ATOM     11  C   UNL     1       2.620   3.797  18.697  0.00  0.00    +0.000 A 
ATOM     12  C   UNL     1       2.405   2.410  18.704  0.00  0.00    +0.000 A 
ATOM     13  C   UNL     1       1.681   1.821  19.738  0.00  0.00    +0.000 A 
ATOM     14  C   UNL     1       1.157   2.613  20.755  0.00  0.00    +0.000 A 
ATOM     15  C   UNL     1       1.361   3.996  20.744  0.00  0.00    +0.000 A 
ATOM     16  C   UNL     1       2.110   4.595  19.718  0.00  0.00    +0.000 A 
ATOM     17  N   UNL     1       0.981   8.925  21.412  0.00  0.00    +0.000 NA
ATOM     18  N   UNL     1       0.773  10.125  20.841  0.00  0.00    +0.000 N 
ATOM     19  H   UNL     1       1.562   6.503  21.521  0.00  0.00    +0.000 HD
ATOM     20  H   UNL     1       0.387  10.868  21.415  0.00  0.00    +0.000 HD
ENDROOT
BRANCH   8  21
ATOM     21  C   UNL     1       4.538   6.426  16.763  0.00  0.00    +0.000 C 
BRANCH  21  22
ATOM     22  C   UNL     1       5.884   6.717  17.355  0.00  0.00    +0.000 A 
ATOM     23  C   UNL     1       6.650   5.869  18.137  0.00  0.00    +0.000 A 
ATOM     24  S   UNL     1       8.086   6.652  18.641  0.00  0.00    +0.000 S 
ATOM     25  C   UNL     1       7.596   8.069  17.805  0.00  0.00    +0.000 A 
ATOM     26  C   UNL     1       8.456   9.284  17.797  0.00  0.00    +0.000 C 
ATOM     27  N   UNL     1       6.436   7.988  17.189  0.00  0.00    +0.000 NA
ENDBRANCH  21  22
ENDBRANCH   8  21
TORSDOF 2
ENDMDL
MODEL 2
REMARK VINA RESULT:      -8.1      0.797      1.189
REMARK  Name = 
REMARK  4 active torsions:
REMARK  status: ('A' for Active; 'I' for Inactive)
REMARK    1  A    between atoms: C_1  and  C_2
REMARK    2  A    between atoms: N_8  and  C_9
REMARK    3  A    between atoms: C_9  and  C_10
REMARK    4  A    between atoms: C_13  and  C_14
REMARK                            x       y       z     vdW  Elec       q    Type
REMARK                         _______ _______ _______ _____ _____    ______ ____
ROOT
ATOM      1  C   UNL     1       0.878  11.463  18.927  0.00  0.00    +0.000 C 
ATOM      2  C   UNL     1       1.030  10.230  19.723  0.00  0.00    +0.000 A 
ATOM      3  C   UNL     1       1.516   8.990  19.384  0.00  0.00    +0.000 A 
ATOM      4  C   UNL     1       1.418   8.199  20.552  0.00  0.00    +0.000 A 
ATOM      5  N   UNL     1       1.735   6.893  20.687  0.00  0.00    +0.000 N 
ATOM      6  C   UNL     1       2.298   6.120  19.688  0.00  0.00    +0.000 A 
ATOM      7  N   UNL     1       3.063   6.652  18.771  0.00  0.00    +0.000 NA
ATOM      8  N   UNL     1       3.594   5.910  17.757  0.00  0.00    +0.000 N 
ATOM      9  C   UNL     1       3.359   4.557  17.589  0.00  0.00    +0.000 A 
ATOM     10  O   UNL     1       3.789   3.894  16.646  0.00  0.00    +0.000 OA
ATOM     11  C   UNL     1       2.556   3.901  18.633  0.00  0.00    +0.000 A 
ATOM     12  C   UNL     1       2.342   2.515  18.574  0.00  0.00    +0.000 A 
ATOM     13  C   UNL     1       1.605   1.880  19.571  0.00  0.00    +0.000 A 
ATOM     14  C   UNL     1       1.067   2.625  20.616  0.00  0.00    +0.000 A 
ATOM     15  C   UNL     1       1.270   4.008  20.670  0.00  0.00    +0.000 A 
ATOM     16  C   UNL     1       2.033   4.652  19.682  0.00  0.00    +0.000 A 
ATOM     17  N   UNL     1       0.879   8.902  21.555  0.00  0.00    +0.000 NA
ATOM     18  N   UNL     1       0.678  10.126  21.037  0.00  0.00    +0.000 N 
ATOM     19  H   UNL     1       1.460   6.476  21.562  0.00  0.00    +0.000 HD
ATOM     20  H   UNL     1       0.283  10.842  21.638  0.00  0.00    +0.000 HD
ENDROOT
BRANCH   8  21
ATOM     21  C   UNL     1       4.498   6.615  16.846  0.00  0.00    +0.000 C 
BRANCH  21  22
ATOM     22  C   UNL     1       5.850   6.842  17.453  0.00  0.00    +0.000 A 
ATOM     23  C   UNL     1       6.705   7.902  17.206  0.00  0.00    +0.000 A 
ATOM     24  S   UNL     1       8.166   7.709  18.077  0.00  0.00    +0.000 S 
ATOM     25  C   UNL     1       7.580   6.227  18.714  0.00  0.00    +0.000 A 
ATOM     26  C   UNL     1       8.403   5.426  19.662  0.00  0.00    +0.000 C 
ATOM     27  N   UNL     1       6.377   5.876  18.311  0.00  0.00    +0.000 NA
ENDBRANCH  21  22
ENDBRANCH   8  21
TORSDOF 2
ENDMDL
MODEL 3
REMARK VINA RESULT:      -7.7      1.449      1.800
REMARK  Name = 
REMARK  4 active torsions:
REMARK  status: ('A' for Active; 'I' for Inactive)
REMARK    1  A    between atoms: C_1  and  C_2
REMARK    2  A    between atoms: N_8  and  C_9
REMARK    3  A    between atoms: C_9  and  C_10
REMARK    4  A    between atoms: C_13  and  C_14
REMARK                            x       y       z     vdW  Elec       q    Type
REMARK                         _______ _______ _______ _____ _____    ______ ____
ROOT
ATOM      1  C   UNL     1       0.512  11.496  19.436  0.00  0.00    +0.000 C 
ATOM      2  C   UNL     1       0.791  10.266  20.201  0.00  0.00    +0.000 A 
ATOM      3  C   UNL     1       1.278   9.045  19.801  0.00  0.00    +0.000 A 
ATOM      4  C   UNL     1       1.335   8.246  20.966  0.00  0.00    +0.000 A 
ATOM      5  N   UNL     1       1.710   6.951  21.056  0.00  0.00    +0.000 N 
ATOM      6  C   UNL     1       2.186   6.202  19.996  0.00  0.00    +0.000 A 
ATOM      7  N   UNL     1       2.827   6.764  19.005  0.00  0.00    +0.000 NA
ATOM      8  N   UNL     1       3.269   6.044  17.933  0.00  0.00    +0.000 N 
ATOM      9  C   UNL     1       3.063   4.685  17.781  0.00  0.00    +0.000 A 
ATOM     10  O   UNL     1       3.409   4.041  16.792  0.00  0.00    +0.000 OA
ATOM     11  C   UNL     1       2.402   3.998  18.902  0.00  0.00    +0.000 A 
ATOM     12  C   UNL     1       2.230   2.606  18.855  0.00  0.00    +0.000 A 
ATOM     13  C   UNL     1       1.628   1.941  19.922  0.00  0.00    +0.000 A 
ATOM     14  C   UNL     1       1.183   2.663  21.025  0.00  0.00    +0.000 A 
ATOM     15  C   UNL     1       1.344   4.052  21.068  0.00  0.00    +0.000 A 
ATOM     16  C   UNL     1       1.972   4.726  20.007  0.00  0.00    +0.000 A 
ATOM     17  N   UNL     1       0.886   8.925  22.029  0.00  0.00    +0.000 NA
ATOM     18  N   UNL     1       0.588  10.144  21.544  0.00  0.00    +0.000 N 
ATOM     19  H   UNL     1       1.546   6.522  21.953  0.00  0.00    +0.000 HD
ATOM     20  H   UNL     1       0.238  10.844  22.191  0.00  0.00    +0.000 HD
ENDROOT
BRANCH   8  21
ATOM     21  C   UNL     1       4.044   6.784  16.934  0.00  0.00    +0.000 C 
BRANCH  21  22
ATOM     22  C   UNL     1       5.282   6.047  16.519  0.00  0.00    +0.000 A 
ATOM     23  C   UNL     1       6.285   5.574  17.347  0.00  0.00    +0.000 A 
ATOM     24  S   UNL     1       7.533   4.853  16.424  0.00  0.00    +0.000 S 
ATOM     25  C   UNL     1       6.674   5.227  14.986  0.00  0.00    +0.000 A 
ATOM     26  C   UNL     1       7.216   4.844  13.653  0.00  0.00    +0.000 C 
ATOM     27  N   UNL     1       5.531   5.855  15.159  0.00  0.00    +0.000 NA
ENDBRANCH  21  22
ENDBRANCH   8  21
TORSDOF 2
ENDMDL
MODEL 4
REMARK VINA RESULT:      -7.6      5.847      9.163
REMARK  Name = 
REMARK  4 active torsions:
REMARK  status: ('A' for Active; 'I' for Inactive)
REMARK    1  A    between atoms: C_1  and  C_2
REMARK    2  A    between atoms: N_8  and  C_9
REMARK    3  A    between atoms: C_9  and  C_10
REMARK    4  A    between atoms: C_13  and  C_14
REMARK                            x       y       z     vdW  Elec       q    Type
REMARK                         _______ _______ _______ _____ _____    ______ ____
ROOT
ATOM      1  C   UNL     1      -2.701   9.812  15.523  0.00  0.00    +0.000 C 
ATOM      2  C   UNL     1      -3.492  10.678  16.418  0.00  0.00    +0.000 A 
ATOM      3  C   UNL     1      -3.246  11.121  17.695  0.00  0.00    +0.000 A 
ATOM      4  C   UNL     1      -4.356  11.921  18.052  0.00  0.00    +0.000 A 
ATOM      5  N   UNL     1      -4.579  12.534  19.235  0.00  0.00    +0.000 N 
ATOM      6  C   UNL     1      -3.687  12.537  20.291  0.00  0.00    +0.000 A 
ATOM      7  N   UNL     1      -2.398  12.457  20.089  0.00  0.00    +0.000 NA
ATOM      8  N   UNL     1      -1.507  12.421  21.122  0.00  0.00    +0.000 N 
ATOM      9  C   UNL     1      -1.875  12.437  22.456  0.00  0.00    +0.000 A 
ATOM     10  O   UNL     1      -1.082  12.347  23.392  0.00  0.00    +0.000 OA
ATOM     11  C   UNL     1      -3.312  12.591  22.733  0.00  0.00    +0.000 A 
ATOM     12  C   UNL     1      -3.754  12.696  24.061  0.00  0.00    +0.000 A 
ATOM     13  C   UNL     1      -5.109  12.868  24.334  0.00  0.00    +0.000 A 
ATOM     14  C   UNL     1      -6.025  12.918  23.288  0.00  0.00    +0.000 A 
ATOM     15  C   UNL     1      -5.588  12.802  21.964  0.00  0.00    +0.000 A 
ATOM     16  C   UNL     1      -4.220  12.653  21.680  0.00  0.00    +0.000 A 
ATOM     17  N   UNL     1      -5.253  11.954  17.060  0.00  0.00    +0.000 NA
ATOM     18  N   UNL     1      -4.698  11.219  16.081  0.00  0.00    +0.000 N 
ATOM     19  H   UNL     1      -5.496  12.940  19.338  0.00  0.00    +0.000 HD
ATOM     20  H   UNL     1      -5.207  11.119  15.209  0.00  0.00    +0.000 HD
ENDROOT
BRANCH   8  21
ATOM     21  C   UNL     1      -0.090  12.413  20.753  0.00  0.00    +0.000 C 
BRANCH  21  22
ATOM     22  C   UNL     1       0.411  11.030  20.461  0.00  0.00    +0.000 A 
ATOM     23  C   UNL     1       0.600  10.005  21.372  0.00  0.00    +0.000 A 
ATOM     24  S   UNL     1       1.249   8.625  20.593  0.00  0.00    +0.000 S 
ATOM     25  C   UNL     1       1.252   9.478  19.104  0.00  0.00    +0.000 A 
ATOM     26  C   UNL     1       1.726   8.825  17.853  0.00  0.00    +0.000 C 
ATOM     27  N   UNL     1       0.809  10.716  19.161  0.00  0.00    +0.000 NA
ENDBRANCH  21  22
ENDBRANCH   8  21
TORSDOF 2
ENDMDL
MODEL 5
REMARK VINA RESULT:      -7.6      1.585      1.712
REMARK  Name = 
REMARK  4 active torsions:
REMARK  status: ('A' for Active; 'I' for Inactive)
REMARK    1  A    between atoms: C_1  and  C_2
REMARK    2  A    between atoms: N_8  and  C_9
REMARK    3  A    between atoms: C_9  and  C_10
REMARK    4  A    between atoms: C_13  and  C_14
REMARK                            x       y       z     vdW  Elec       q    Type
REMARK                         _______ _______ _______ _____ _____    ______ ____
ROOT
ATOM      1  C   UNL     1       0.408  11.543  19.555  0.00  0.00    +0.000 C 
ATOM      2  C   UNL     1       0.735  10.323  20.319  0.00  0.00    +0.000 A 
ATOM      3  C   UNL     1       1.205   9.099  19.908  0.00  0.00    +0.000 A 
ATOM      4  C   UNL     1       1.331   8.315  21.078  0.00  0.00    +0.000 A 
ATOM      5  N   UNL     1       1.716   7.023  21.163  0.00  0.00    +0.000 N 
ATOM      6  C   UNL     1       2.134   6.263  20.087  0.00  0.00    +0.000 A 
ATOM      7  N   UNL     1       2.716   6.813  19.055  0.00  0.00    +0.000 NA
ATOM      8  N   UNL     1       3.100   6.082  17.968  0.00  0.00    +0.000 N 
ATOM      9  C   UNL     1       2.891   4.720  17.846  0.00  0.00    +0.000 A 
ATOM     10  O   UNL     1       3.184   4.064  16.847  0.00  0.00    +0.000 OA
ATOM     11  C   UNL     1       2.297   4.045  19.011  0.00  0.00    +0.000 A 
ATOM     12  C   UNL     1       2.129   2.652  18.992  0.00  0.00    +0.000 A 
ATOM     13  C   UNL     1       1.591   1.999  20.099  0.00  0.00    +0.000 A 
ATOM     14  C   UNL     1       1.206   2.734  21.217  0.00  0.00    +0.000 A 
ATOM     15  C   UNL     1       1.363   4.123  21.233  0.00  0.00    +0.000 A 
ATOM     16  C   UNL     1       1.927   4.785  20.129  0.00  0.00    +0.000 A 
ATOM     17  N   UNL     1       0.940   9.007  22.155  0.00  0.00    +0.000 NA
ATOM     18  N   UNL     1       0.610  10.219  21.673  0.00  0.00    +0.000 N 
ATOM     19  H   UNL     1       1.605   6.605  22.073  0.00  0.00    +0.000 HD
ATOM     20  H   UNL     1       0.294  10.926  22.329  0.00  0.00    +0.000 HD
ENDROOT
BRANCH   8  21
ATOM     21  C   UNL     1       3.814   6.811  16.918  0.00  0.00    +0.000 C 
BRANCH  21  22
ATOM     22  C   UNL     1       5.101   6.143  16.540  0.00  0.00    +0.000 A 
ATOM     23  C   UNL     1       5.548   5.861  15.260  0.00  0.00    +0.000 A 
ATOM     24  S   UNL     1       7.044   5.032  15.317  0.00  0.00    +0.000 S 
ATOM     25  C   UNL     1       6.999   5.085  17.032  0.00  0.00    +0.000 A 
ATOM     26  C   UNL     1       8.104   4.502  17.842  0.00  0.00    +0.000 C 
ATOM     27  N   UNL     1       5.941   5.672  17.550  0.00  0.00    +0.000 NA
ENDBRANCH  21  22
ENDBRANCH   8  21
TORSDOF 2
ENDMDL
MODEL 6
REMARK VINA RESULT:      -7.5      5.874      9.305
REMARK  Name = 
REMARK  4 active torsions:
REMARK  status: ('A' for Active; 'I' for Inactive)
REMARK    1  A    between atoms: C_1  and  C_2
REMARK    2  A    between atoms: N_8  and  C_9
REMARK    3  A    between atoms: C_9  and  C_10
REMARK    4  A    between atoms: C_13  and  C_14
REMARK                            x       y       z     vdW  Elec       q    Type
REMARK                         _______ _______ _______ _____ _____    ______ ____
ROOT
ATOM      1  C   UNL     1      -2.715  10.020  15.472  0.00  0.00    +0.000 C 
ATOM      2  C   UNL     1      -3.539  10.820  16.399  0.00  0.00    +0.000 A 
ATOM      3  C   UNL     1      -3.285  11.270  17.673  0.00  0.00    +0.000 A 
ATOM      4  C   UNL     1      -4.439  11.985  18.071  0.00  0.00    +0.000 A 
ATOM      5  N   UNL     1      -4.669  12.572  19.266  0.00  0.00    +0.000 N 
ATOM      6  C   UNL     1      -3.747  12.631  20.295  0.00  0.00    +0.000 A 
ATOM      7  N   UNL     1      -2.463  12.647  20.053  0.00  0.00    +0.000 NA
ATOM      8  N   UNL     1      -1.540  12.667  21.058  0.00  0.00    +0.000 N 
ATOM      9  C   UNL     1      -1.867  12.646  22.402  0.00  0.00    +0.000 A 
ATOM     10  O   UNL     1      -1.041  12.607  23.313  0.00  0.00    +0.000 OA
ATOM     11  C   UNL     1      -3.302  12.694  22.724  0.00  0.00    +0.000 A 
ATOM     12  C   UNL     1      -3.709  12.757  24.066  0.00  0.00    +0.000 A 
ATOM     13  C   UNL     1      -5.064  12.829  24.382  0.00  0.00    +0.000 A 
ATOM     14  C   UNL     1      -6.013  12.820  23.364  0.00  0.00    +0.000 A 
ATOM     15  C   UNL     1      -5.610  12.746  22.027  0.00  0.00    +0.000 A 
ATOM     16  C   UNL     1      -4.245  12.698  21.700  0.00  0.00    +0.000 A 
ATOM     17  N   UNL     1      -5.367  11.961  17.106  0.00  0.00    +0.000 NA
ATOM     18  N   UNL     1      -4.790  11.275  16.104  0.00  0.00    +0.000 N 
ATOM     19  H   UNL     1      -5.609  12.909  19.400  0.00  0.00    +0.000 HD
ATOM     20  H   UNL     1      -5.317  11.145  15.247  0.00  0.00    +0.000 HD
ENDROOT
BRANCH   8  21
ATOM     21  C   UNL     1      -0.138  12.764  20.646  0.00  0.00    +0.000 C 
BRANCH  21  22
ATOM     22  C   UNL     1       0.386  11.465  20.112  0.00  0.00    +0.000 A 
ATOM     23  C   UNL     1       0.681  11.167  18.792  0.00  0.00    +0.000 A 
ATOM     24  S   UNL     1       1.191   9.540  18.646  0.00  0.00    +0.000 S 
ATOM     25  C   UNL     1       0.974   9.329  20.335  0.00  0.00    +0.000 A 
ATOM     26  C   UNL     1       1.271   8.022  20.984  0.00  0.00    +0.000 C 
ATOM     27  N   UNL     1       0.543  10.388  20.985  0.00  0.00    +0.000 NA
ENDBRANCH  21  22
ENDBRANCH   8  21
TORSDOF 2
ENDMDL
MODEL 7
REMARK VINA RESULT:      -7.3      2.433      5.757
REMARK  Name = 
REMARK  4 active torsions:
REMARK  status: ('A' for Active; 'I' for Inactive)
REMARK    1  A    between atoms: C_1  and  C_2
REMARK    2  A    between atoms: N_8  and  C_9
REMARK    3  A    between atoms: C_9  and  C_10
REMARK    4  A    between atoms: C_13  and  C_14
REMARK                            x       y       z     vdW  Elec       q    Type
REMARK                         _______ _______ _______ _____ _____    ______ ____
ROOT
ATOM      1  C   UNL     1       8.364   8.360  18.061  0.00  0.00    +0.000 C 
ATOM      2  C   UNL     1       7.393   7.422  17.466  0.00  0.00    +0.000 A 
ATOM      3  C   UNL     1       6.163   6.996  17.907  0.00  0.00    +0.000 A 
ATOM      4  C   UNL     1       5.687   6.095  16.926  0.00  0.00    +0.000 A 
ATOM      5  N   UNL     1       4.535   5.389  16.951  0.00  0.00    +0.000 N 
ATOM      6  C   UNL     1       3.574   5.500  17.938  0.00  0.00    +0.000 A 
ATOM      7  N   UNL     1       3.402   6.618  18.592  0.00  0.00    +0.000 NA
ATOM      8  N   UNL     1       2.483   6.733  19.595  0.00  0.00    +0.000 N 
ATOM      9  C   UNL     1       1.682   5.691  20.026  0.00  0.00    +0.000 A 
ATOM     10  O   UNL     1       0.892   5.771  20.966  0.00  0.00    +0.000 OA
ATOM     11  C   UNL     1       1.795   4.430  19.277  0.00  0.00    +0.000 A 
ATOM     12  C   UNL     1       0.957   3.352  19.604  0.00  0.00    +0.000 A 
ATOM     13  C   UNL     1       1.037   2.162  18.885  0.00  0.00    +0.000 A 
ATOM     14  C   UNL     1       1.963   2.038  17.853  0.00  0.00    +0.000 A 
ATOM     15  C   UNL     1       2.806   3.106  17.533  0.00  0.00    +0.000 A 
ATOM     16  C   UNL     1       2.714   4.318  18.238  0.00  0.00    +0.000 A 
ATOM     17  N   UNL     1       6.582   5.952  15.941  0.00  0.00    +0.000 NA
ATOM     18  N   UNL     1       7.587   6.779  16.279  0.00  0.00    +0.000 N 
ATOM     19  H   UNL     1       4.446   4.695  16.225  0.00  0.00    +0.000 HD
ATOM     20  H   UNL     1       8.383   6.845  15.654  0.00  0.00    +0.000 HD
ENDROOT
BRANCH   8  21
ATOM     21  C   UNL     1       2.337   8.064  20.188  0.00  0.00    +0.000 C 
BRANCH  21  22
ATOM     22  C   UNL     1       1.290   8.881  19.492  0.00  0.00    +0.000 A 
ATOM     23  C   UNL     1       1.085   8.982  18.127  0.00  0.00    +0.000 A 
ATOM     24  S   UNL     1      -0.183  10.081  17.791  0.00  0.00    +0.000 S 
ATOM     25  C   UNL     1      -0.370  10.365  19.473  0.00  0.00    +0.000 A 
ATOM     26  C   UNL     1      -1.411  11.304  19.976  0.00  0.00    +0.000 C 
ATOM     27  N   UNL     1       0.454   9.699  20.253  0.00  0.00    +0.000 NA
ENDBRANCH  21  22
ENDBRANCH   8  21
TORSDOF 2
ENDMDL
MODEL 8
REMARK VINA RESULT:      -7.0      6.700     10.122
REMARK  Name = 
REMARK  4 active torsions:
REMARK  status: ('A' for Active; 'I' for Inactive)
REMARK    1  A    between atoms: C_1  and  C_2
REMARK    2  A    between atoms: N_8  and  C_9
REMARK    3  A    between atoms: C_9  and  C_10
REMARK    4  A    between atoms: C_13  and  C_14
REMARK                            x       y       z     vdW  Elec       q    Type
REMARK                         _______ _______ _______ _____ _____    ______ ____
ROOT
ATOM      1  C   UNL     1      -2.025   9.880  16.446  0.00  0.00    +0.000 C 
ATOM      2  C   UNL     1      -3.130  10.695  16.987  0.00  0.00    +0.000 A 
ATOM      3  C   UNL     1      -3.343  11.204  18.246  0.00  0.00    +0.000 A 
ATOM      4  C   UNL     1      -4.572  11.903  18.181  0.00  0.00    +0.000 A 
ATOM      5  N   UNL     1      -5.212  12.532  19.191  0.00  0.00    +0.000 N 
ATOM      6  C   UNL     1      -4.708  12.660  20.472  0.00  0.00    +0.000 A 
ATOM      7  N   UNL     1      -3.421  12.702  20.692  0.00  0.00    +0.000 NA
ATOM      8  N   UNL     1      -2.908  12.790  21.954  0.00  0.00    +0.000 N 
ATOM      9  C   UNL     1      -3.683  12.816  23.099  0.00  0.00    +0.000 A 
ATOM     10  O   UNL     1      -3.227  12.839  24.241  0.00  0.00    +0.000 OA
ATOM     11  C   UNL     1      -5.141  12.837  22.898  0.00  0.00    +0.000 A 
ATOM     12  C   UNL     1      -5.992  12.944  24.009  0.00  0.00    +0.000 A 
ATOM     13  C   UNL     1      -7.372  12.991  23.829  0.00  0.00    +0.000 A 
ATOM     14  C   UNL     1      -7.906  12.913  22.546  0.00  0.00    +0.000 A 
ATOM     15  C   UNL     1      -7.060  12.794  21.439  0.00  0.00    +0.000 A 
ATOM     16  C   UNL     1      -5.666  12.772  21.611  0.00  0.00    +0.000 A 
ATOM     17  N   UNL     1      -5.104  11.812  16.956  0.00  0.00    +0.000 NA
ATOM     18  N   UNL     1      -4.205  11.101  16.252  0.00  0.00    +0.000 N 
ATOM     19  H   UNL     1      -6.143  12.848  18.973  0.00  0.00    +0.000 HD
ATOM     20  H   UNL     1      -4.398  10.921  15.273  0.00  0.00    +0.000 HD
ENDROOT
BRANCH   8  21
ATOM     21  C   UNL     1      -1.452  12.909  22.052  0.00  0.00    +0.000 C 
BRANCH  21  22
ATOM     22  C   UNL     1      -0.749  11.671  21.582  0.00  0.00    +0.000 A 
ATOM     23  C   UNL     1      -0.478  10.535  22.326  0.00  0.00    +0.000 A 
ATOM     24  S   UNL     1       0.400   9.402  21.390  0.00  0.00    +0.000 S 
ATOM     25  C   UNL     1       0.379  10.493  20.065  0.00  0.00    +0.000 A 
ATOM     26  C   UNL     1       1.014  10.129  18.768  0.00  0.00    +0.000 C 
ATOM     27  N   UNL     1      -0.232  11.638  20.286  0.00  0.00    +0.000 NA
ENDBRANCH  21  22
ENDBRANCH   8  21
TORSDOF 2
ENDMDL
MODEL 9
REMARK VINA RESULT:      -6.9      7.654      9.369
REMARK  Name = 
REMARK  4 active torsions:
REMARK  status: ('A' for Active; 'I' for Inactive)
REMARK    1  A    between atoms: C_1  and  C_2
REMARK    2  A    between atoms: N_8  and  C_9
REMARK    3  A    between atoms: C_9  and  C_10
REMARK    4  A    between atoms: C_13  and  C_14
REMARK                            x       y       z     vdW  Elec       q    Type
REMARK                         _______ _______ _______ _____ _____    ______ ____
ROOT
ATOM      1  C   UNL     1      -3.011   9.631  15.369  0.00  0.00    +0.000 C 
ATOM      2  C   UNL     1      -3.630  10.584  16.309  0.00  0.00    +0.000 A 
ATOM      3  C   UNL     1      -3.263  10.968  17.577  0.00  0.00    +0.000 A 
ATOM      4  C   UNL     1      -4.232  11.910  17.996  0.00  0.00    +0.000 A 
ATOM      5  N   UNL     1      -4.310  12.529  19.194  0.00  0.00    +0.000 N 
ATOM      6  C   UNL     1      -3.377  12.392  20.204  0.00  0.00    +0.000 A 
ATOM      7  N   UNL     1      -2.123  12.137  19.937  0.00  0.00    +0.000 NA
ATOM      8  N   UNL     1      -1.198  11.961  20.924  0.00  0.00    +0.000 N 
ATOM      9  C   UNL     1      -1.495  12.007  22.274  0.00  0.00    +0.000 A 
ATOM     10  O   UNL     1      -0.678  11.794  23.169  0.00  0.00    +0.000 OA
ATOM     11  C   UNL     1      -2.881  12.355  22.624  0.00  0.00    +0.000 A 
ATOM     12  C   UNL     1      -3.239  12.500  23.973  0.00  0.00    +0.000 A 
ATOM     13  C   UNL     1      -4.543  12.854  24.315  0.00  0.00    +0.000 A 
ATOM     14  C   UNL     1      -5.492  13.047  23.316  0.00  0.00    +0.000 A 
ATOM     15  C   UNL     1      -5.140  12.892  21.972  0.00  0.00    +0.000 A 
ATOM     16  C   UNL     1      -3.822  12.559  21.619  0.00  0.00    +0.000 A 
ATOM     17  N   UNL     1      -5.163  12.083  17.050  0.00  0.00    +0.000 NA
ATOM     18  N   UNL     1      -4.763  11.292  16.038  0.00  0.00    +0.000 N 
ATOM     19  H   UNL     1      -5.156  13.057  19.346  0.00  0.00    +0.000 HD
ATOM     20  H   UNL     1      -5.323  11.278  15.191  0.00  0.00    +0.000 HD
ENDROOT
BRANCH   8  21
ATOM     21  C   UNL     1       0.185  11.762  20.485  0.00  0.00    +0.000 C 
BRANCH  21  22
ATOM     22  C   UNL     1       0.947  13.051  20.414  0.00  0.00    +0.000 A 
ATOM     23  C   UNL     1       0.896  13.993  19.401  0.00  0.00    +0.000 A 
ATOM     24  S   UNL     1       1.986  15.274  19.718  0.00  0.00    +0.000 S 
ATOM     25  C   UNL     1       2.468  14.493  21.168  0.00  0.00    +0.000 A 
ATOM     26  C   UNL     1       3.488  15.108  22.062  0.00  0.00    +0.000 C 
ATOM     27  N   UNL     1       1.872  13.346  21.416  0.00  0.00    +0.000 NA
ENDBRANCH  21  22
ENDBRANCH   8  21
TORSDOF 2
ENDMDL
