MODEL 1
REMARK VINA RESULT:      -6.7      0.000      0.000
REMARK  Name = 
REMARK  8 active torsions:
REMARK  status: ('A' for Active; 'I' for Inactive)
REMARK    1  A    between atoms: C_1  and  C_2
REMARK    2  A    between atoms: C_2  and  N_3
REMARK    3  A    between atoms: C_2  and  C_16
REMARK    4  A    between atoms: N_3  and  C_4
REMARK    5  A    between atoms: C_4  and  C_5
REMARK    6  A    between atoms: C_8  and  O_9
REMARK    7  A    between atoms: O_9  and  C_10
REMARK    8  A    between atoms: C_10  and  C_11
REMARK                            x       y       z     vdW  Elec       q    Type
REMARK                         _______ _______ _______ _____ _____    ______ ____
ROOT
ATOM      1  C   UNL     1       6.298   4.924  17.458  0.00  0.00    +0.000 A 
ATOM      2  C   UNL     1       7.002   4.900  18.670  0.00  0.00    +0.000 A 
ATOM      3  C   UNL     1       7.770   5.996  19.054  0.00  0.00    +0.000 A 
ATOM      4  C   UNL     1       7.845   7.140  18.233  0.00  0.00    +0.000 A 
ATOM      5  C   UNL     1       7.160   7.146  17.009  0.00  0.00    +0.000 A 
ATOM      6  C   UNL     1       6.405   6.039  16.612  0.00  0.00    +0.000 A 
ENDROOT
BRANCH   1   7
ATOM      7  C   UNL     1       5.374   3.790  17.127  0.00  0.00    +0.000 C 
BRANCH   7   8
ATOM      8  N   UNL     1       4.694   3.301  18.342  0.00  0.00    +0.000 NA
ATOM      9  H   UNL     1       4.883   2.271  18.392  0.00  0.00    +0.000 HD
BRANCH   8  11
ATOM     10  C   UNL     1       2.543   3.457  16.978  0.00  0.00    +0.000 C 
ATOM     11  C   UNL     1       3.218   3.483  18.369  0.00  0.00    +0.000 C 
BRANCH  11  12
ATOM     12  C   UNL     1       2.861   4.837  18.942  0.00  0.00    +0.000 A 
ATOM     13  C   UNL     1       2.362   4.935  20.250  0.00  0.00    +0.000 A 
ATOM     14  C   UNL     1       1.908   6.162  20.739  0.00  0.00    +0.000 A 
ATOM     15  C   UNL     1       1.954   7.301  19.931  0.00  0.00    +0.000 A 
ATOM     16 CL   UNL     1       1.333   8.828  20.526  0.00  0.00    +0.000 Cl
ATOM     17  C   UNL     1       2.477   7.218  18.638  0.00  0.00    +0.000 A 
ATOM     18  C   UNL     1       2.934   5.995  18.144  0.00  0.00    +0.000 A 
ENDBRANCH  11  12
ENDBRANCH   8  11
ENDBRANCH   7   8
ENDBRANCH   1   7
BRANCH   4  19
ATOM     19  O   UNL     1       8.560   8.239  18.587  0.00  0.00    +0.000 OA
BRANCH  19  20
ATOM     20  C   UNL     1       8.366   9.503  18.066  0.00  0.00    +0.000 C 
BRANCH  20  21
ATOM     21  C   UNL     1       9.186  10.510  18.807  0.00  0.00    +0.000 C 
ATOM     22  N   UNL     1       9.579  11.656  18.207  0.00  0.00    +0.000 N 
ATOM     23  O   UNL     1       9.482  10.305  19.976  0.00  0.00    +0.000 OA
ATOM     24  H   UNL     1       9.317  11.859  17.232  0.00  0.00    +0.000 HD
ATOM     25  H   UNL     1      10.126  12.359  18.732  0.00  0.00    +0.000 HD
ENDBRANCH  20  21
ENDBRANCH  19  20
ENDBRANCH   4  19
TORSDOF 7
ENDMDL
MODEL 2
REMARK VINA RESULT:      -6.7      3.923      5.258
REMARK  Name = 
REMARK  8 active torsions:
REMARK  status: ('A' for Active; 'I' for Inactive)
REMARK    1  A    between atoms: C_1  and  C_2
REMARK    2  A    between atoms: C_2  and  N_3
REMARK    3  A    between atoms: C_2  and  C_16
REMARK    4  A    between atoms: N_3  and  C_4
REMARK    5  A    between atoms: C_4  and  C_5
REMARK    6  A    between atoms: C_8  and  O_9
REMARK    7  A    between atoms: O_9  and  C_10
REMARK    8  A    between atoms: C_10  and  C_11
REMARK                            x       y       z     vdW  Elec       q    Type
REMARK                         _______ _______ _______ _____ _____    ______ ____
ROOT
ATOM      1  C   UNL     1       3.333   4.791  19.200  0.00  0.00    +0.000 A 
ATOM      2  C   UNL     1       4.701   5.025  19.394  0.00  0.00    +0.000 A 
ATOM      3  C   UNL     1       5.613   4.714  18.389  0.00  0.00    +0.000 A 
ATOM      4  C   UNL     1       5.171   4.166  17.167  0.00  0.00    +0.000 A 
ATOM      5  C   UNL     1       3.804   3.910  16.990  0.00  0.00    +0.000 A 
ATOM      6  C   UNL     1       2.889   4.201  18.005  0.00  0.00    +0.000 A 
ENDROOT
BRANCH   1   7
ATOM      7  C   UNL     1       2.357   5.253  20.241  0.00  0.00    +0.000 C 
BRANCH   7   8
ATOM      8  N   UNL     1       2.490   6.705  20.470  0.00  0.00    +0.000 NA
ATOM      9  H   UNL     1       2.240   6.870  21.474  0.00  0.00    +0.000 HD
BRANCH   8  11
ATOM     10  C   UNL     1       2.314   8.290  18.477  0.00  0.00    +0.000 C 
ATOM     11  C   UNL     1       1.603   7.569  19.645  0.00  0.00    +0.000 C 
BRANCH  11  12
ATOM     12  C   UNL     1       1.019   8.684  20.484  0.00  0.00    +0.000 A 
ATOM     13  C   UNL     1       0.994   8.569  21.883  0.00  0.00    +0.000 A 
ATOM     14  C   UNL     1       0.340   9.532  22.656  0.00  0.00    +0.000 A 
ATOM     15  C   UNL     1      -0.288  10.618  22.041  0.00  0.00    +0.000 A 
ATOM     16 CL   UNL     1      -1.155  11.796  23.007  0.00  0.00    +0.000 Cl
ATOM     17  C   UNL     1      -0.242  10.755  20.652  0.00  0.00    +0.000 A 
ATOM     18  C   UNL     1       0.412   9.798  19.873  0.00  0.00    +0.000 A 
ENDBRANCH  11  12
ENDBRANCH   8  11
ENDBRANCH   7   8
ENDBRANCH   1   7
BRANCH   4  19
ATOM     19  O   UNL     1       6.027   3.878  16.152  0.00  0.00    +0.000 OA
BRANCH  19  20
ATOM     20  C   UNL     1       6.890   4.787  15.572  0.00  0.00    +0.000 C 
BRANCH  20  21
ATOM     21  C   UNL     1       6.927   4.605  14.088  0.00  0.00    +0.000 C 
ATOM     22  N   UNL     1       6.268   3.581  13.501  0.00  0.00    +0.000 N 
ATOM     23  O   UNL     1       7.541   5.406  13.396  0.00  0.00    +0.000 OA
ATOM     24  H   UNL     1       5.722   2.913  14.064  0.00  0.00    +0.000 HD
ATOM     25  H   UNL     1       6.279   3.474  12.473  0.00  0.00    +0.000 HD
ENDBRANCH  20  21
ENDBRANCH  19  20
ENDBRANCH   4  19
TORSDOF 7
ENDMDL
MODEL 3
REMARK VINA RESULT:      -6.6      3.707      5.726
REMARK  Name = 
REMARK  8 active torsions:
REMARK  status: ('A' for Active; 'I' for Inactive)
REMARK    1  A    between atoms: C_1  and  C_2
REMARK    2  A    between atoms: C_2  and  N_3
REMARK    3  A    between atoms: C_2  and  C_16
REMARK    4  A    between atoms: N_3  and  C_4
REMARK    5  A    between atoms: C_4  and  C_5
REMARK    6  A    between atoms: C_8  and  O_9
REMARK    7  A    between atoms: O_9  and  C_10
REMARK    8  A    between atoms: C_10  and  C_11
REMARK                            x       y       z     vdW  Elec       q    Type
REMARK                         _______ _______ _______ _____ _____    ______ ____
ROOT
ATOM      1  C   UNL     1       1.685   4.291  18.954  0.00  0.00    +0.000 A 
ATOM      2  C   UNL     1       1.896   5.253  17.957  0.00  0.00    +0.000 A 
ATOM      3  C   UNL     1       2.016   6.598  18.297  0.00  0.00    +0.000 A 
ATOM      4  C   UNL     1       1.932   7.005  19.644  0.00  0.00    +0.000 A 
ATOM      5  C   UNL     1       1.695   6.040  20.634  0.00  0.00    +0.000 A 
ATOM      6  C   UNL     1       1.553   4.693  20.293  0.00  0.00    +0.000 A 
ENDROOT
BRANCH   1   7
ATOM      7  C   UNL     1       1.690   2.839  18.580  0.00  0.00    +0.000 C 
BRANCH   7   8
ATOM      8  N   UNL     1       2.721   2.567  17.559  0.00  0.00    +0.000 NA
ATOM      9  H   UNL     1       2.456   1.660  17.106  0.00  0.00    +0.000 HD
BRANCH   8  11
ATOM     10  C   UNL     1       4.203   2.082  19.580  0.00  0.00    +0.000 C 
ATOM     11  C   UNL     1       4.109   2.417  18.074  0.00  0.00    +0.000 C 
BRANCH  11  12
ATOM     12  C   UNL     1       4.875   3.713  17.921  0.00  0.00    +0.000 A 
ATOM     13  C   UNL     1       5.209   4.182  16.640  0.00  0.00    +0.000 A 
ATOM     14  C   UNL     1       6.027   5.305  16.495  0.00  0.00    +0.000 A 
ATOM     15  C   UNL     1       6.512   5.972  17.624  0.00  0.00    +0.000 A 
ATOM     16 CL   UNL     1       7.583   7.347  17.441  0.00  0.00    +0.000 Cl
ATOM     17  C   UNL     1       6.160   5.528  18.901  0.00  0.00    +0.000 A 
ATOM     18  C   UNL     1       5.341   4.408  19.053  0.00  0.00    +0.000 A 
ENDBRANCH  11  12
ENDBRANCH   8  11
ENDBRANCH   7   8
ENDBRANCH   1   7
BRANCH   4  19
ATOM     19  O   UNL     1       2.075   8.303  20.018  0.00  0.00    +0.000 OA
BRANCH  19  20
ATOM     20  C   UNL     1       1.031   9.196  20.166  0.00  0.00    +0.000 C 
BRANCH  20  21
ATOM     21  C   UNL     1       1.111  10.276  19.135  0.00  0.00    +0.000 C 
ATOM     22  N   UNL     1       1.028   9.981  17.818  0.00  0.00    +0.000 N 
ATOM     23  O   UNL     1       1.227  11.441  19.489  0.00  0.00    +0.000 OA
ATOM     24  H   UNL     1       0.901   9.009  17.501  0.00  0.00    +0.000 HD
ATOM     25  H   UNL     1       1.060  10.735  17.112  0.00  0.00    +0.000 HD
ENDBRANCH  20  21
ENDBRANCH  19  20
ENDBRANCH   4  19
TORSDOF 7
ENDMDL
MODEL 4
REMARK VINA RESULT:      -6.6      4.589      6.429
REMARK  Name = 
REMARK  8 active torsions:
REMARK  status: ('A' for Active; 'I' for Inactive)
REMARK    1  A    between atoms: C_1  and  C_2
REMARK    2  A    between atoms: C_2  and  N_3
REMARK    3  A    between atoms: C_2  and  C_16
REMARK    4  A    between atoms: N_3  and  C_4
REMARK    5  A    between atoms: C_4  and  C_5
REMARK    6  A    between atoms: C_8  and  O_9
REMARK    7  A    between atoms: O_9  and  C_10
REMARK    8  A    between atoms: C_10  and  C_11
REMARK                            x       y       z     vdW  Elec       q    Type
REMARK                         _______ _______ _______ _____ _____    ______ ____
ROOT
ATOM      1  C   UNL     1       2.101   7.111  19.616  0.00  0.00    +0.000 A 
ATOM      2  C   UNL     1       1.531   7.913  20.613  0.00  0.00    +0.000 A 
ATOM      3  C   UNL     1       1.032   9.173  20.297  0.00  0.00    +0.000 A 
ATOM      4  C   UNL     1       1.092   9.654  18.972  0.00  0.00    +0.000 A 
ATOM      5  C   UNL     1       1.688   8.856  17.985  0.00  0.00    +0.000 A 
ATOM      6  C   UNL     1       2.208   7.600  18.304  0.00  0.00    +0.000 A 
ENDROOT
BRANCH   1   7
ATOM      7  C   UNL     1       2.511   5.707  19.952  0.00  0.00    +0.000 C 
BRANCH   7   8
ATOM      8  N   UNL     1       2.364   4.827  18.777  0.00  0.00    +0.000 NA
ATOM      9  H   UNL     1       1.588   4.159  19.004  0.00  0.00    +0.000 HD
BRANCH   8  11
ATOM     10  C   UNL     1       4.066   3.098  19.568  0.00  0.00    +0.000 C 
ATOM     11  C   UNL     1       3.560   4.014  18.430  0.00  0.00    +0.000 C 
BRANCH  11  12
ATOM     12  C   UNL     1       4.736   4.912  18.111  0.00  0.00    +0.000 A 
ATOM     13  C   UNL     1       5.825   4.982  18.995  0.00  0.00    +0.000 A 
ATOM     14  C   UNL     1       6.851   5.903  18.774  0.00  0.00    +0.000 A 
ATOM     15  C   UNL     1       6.803   6.757  17.668  0.00  0.00    +0.000 A 
ATOM     16 CL   UNL     1       8.063   7.950  17.422  0.00  0.00    +0.000 Cl
ATOM     17  C   UNL     1       5.738   6.673  16.768  0.00  0.00    +0.000 A 
ATOM     18  C   UNL     1       4.710   5.753  16.981  0.00  0.00    +0.000 A 
ENDBRANCH  11  12
ENDBRANCH   8  11
ENDBRANCH   7   8
ENDBRANCH   1   7
BRANCH   4  19
ATOM     19  O   UNL     1       0.590  10.866  18.620  0.00  0.00    +0.000 OA
BRANCH  19  20
ATOM     20  C   UNL     1       0.009  11.760  19.498  0.00  0.00    +0.000 C 
BRANCH  20  21
ATOM     21  C   UNL     1      -0.660  12.871  18.753  0.00  0.00    +0.000 C 
ATOM     22  N   UNL     1      -1.161  12.668  17.514  0.00  0.00    +0.000 N 
ATOM     23  O   UNL     1      -0.778  13.968  19.281  0.00  0.00    +0.000 OA
ATOM     24  H   UNL     1      -1.097  11.743  17.063  0.00  0.00    +0.000 HD
ATOM     25  H   UNL     1      -1.644  13.433  17.014  0.00  0.00    +0.000 HD
ENDBRANCH  20  21
ENDBRANCH  19  20
ENDBRANCH   4  19
TORSDOF 7
ENDMDL
MODEL 5
REMARK VINA RESULT:      -6.6      4.710      7.070
REMARK  Name = 
REMARK  8 active torsions:
REMARK  status: ('A' for Active; 'I' for Inactive)
REMARK    1  A    between atoms: C_1  and  C_2
REMARK    2  A    between atoms: C_2  and  N_3
REMARK    3  A    between atoms: C_2  and  C_16
REMARK    4  A    between atoms: N_3  and  C_4
REMARK    5  A    between atoms: C_4  and  C_5
REMARK    6  A    between atoms: C_8  and  O_9
REMARK    7  A    between atoms: O_9  and  C_10
REMARK    8  A    between atoms: C_10  and  C_11
REMARK                            x       y       z     vdW  Elec       q    Type
REMARK                         _______ _______ _______ _____ _____    ______ ____
ROOT
ATOM      1  C   UNL     1       2.845   7.417  18.373  0.00  0.00    +0.000 A 
ATOM      2  C   UNL     1       2.584   6.991  19.682  0.00  0.00    +0.000 A 
ATOM      3  C   UNL     1       1.729   7.725  20.500  0.00  0.00    +0.000 A 
ATOM      4  C   UNL     1       1.115   8.900  20.020  0.00  0.00    +0.000 A 
ATOM      5  C   UNL     1       1.402   9.335  18.717  0.00  0.00    +0.000 A 
ATOM      6  C   UNL     1       2.276   8.611  17.903  0.00  0.00    +0.000 A 
ENDROOT
BRANCH   1   7
ATOM      7  C   UNL     1       3.663   6.543  17.469  0.00  0.00    +0.000 C 
BRANCH   7   8
ATOM      8  N   UNL     1       3.460   5.119  17.800  0.00  0.00    +0.000 NA
ATOM      9  H   UNL     1       2.979   5.098  18.731  0.00  0.00    +0.000 HD
BRANCH   8  11
ATOM     10  C   UNL     1       5.659   4.764  19.045  0.00  0.00    +0.000 C 
ATOM     11  C   UNL     1       4.700   4.306  17.923  0.00  0.00    +0.000 C 
BRANCH  11  12
ATOM     12  C   UNL     1       5.521   4.396  16.655  0.00  0.00    +0.000 A 
ATOM     13  C   UNL     1       6.801   4.972  16.690  0.00  0.00    +0.000 A 
ATOM     14  C   UNL     1       7.511   5.179  15.504  0.00  0.00    +0.000 A 
ATOM     15  C   UNL     1       6.953   4.807  14.278  0.00  0.00    +0.000 A 
ATOM     16 CL   UNL     1       7.821   5.117  12.787  0.00  0.00    +0.000 Cl
ATOM     17  C   UNL     1       5.692   4.207  14.238  0.00  0.00    +0.000 A 
ATOM     18  C   UNL     1       4.979   3.996  15.419  0.00  0.00    +0.000 A 
ENDBRANCH  11  12
ENDBRANCH   8  11
ENDBRANCH   7   8
ENDBRANCH   1   7
BRANCH   4  19
ATOM     19  O   UNL     1       0.253   9.626  20.777  0.00  0.00    +0.000 OA
BRANCH  19  20
ATOM     20  C   UNL     1      -0.556   9.102  21.765  0.00  0.00    +0.000 C 
BRANCH  20  21
ATOM     21  C   UNL     1      -0.475   9.930  23.008  0.00  0.00    +0.000 C 
ATOM     22  N   UNL     1      -1.355  10.931  23.230  0.00  0.00    +0.000 N 
ATOM     23  O   UNL     1       0.384   9.682  23.844  0.00  0.00    +0.000 OA
ATOM     24  H   UNL     1      -2.102  11.138  22.551  0.00  0.00    +0.000 HD
ATOM     25  H   UNL     1      -1.307  11.485  24.101  0.00  0.00    +0.000 HD
ENDBRANCH  20  21
ENDBRANCH  19  20
ENDBRANCH   4  19
TORSDOF 7
ENDMDL
MODEL 6
REMARK VINA RESULT:      -6.6      3.674      4.463
REMARK  Name = 
REMARK  8 active torsions:
REMARK  status: ('A' for Active; 'I' for Inactive)
REMARK    1  A    between atoms: C_1  and  C_2
REMARK    2  A    between atoms: C_2  and  N_3
REMARK    3  A    between atoms: C_2  and  C_16
REMARK    4  A    between atoms: N_3  and  C_4
REMARK    5  A    between atoms: C_4  and  C_5
REMARK    6  A    between atoms: C_8  and  O_9
REMARK    7  A    between atoms: O_9  and  C_10
REMARK    8  A    between atoms: C_10  and  C_11
REMARK                            x       y       z     vdW  Elec       q    Type
REMARK                         _______ _______ _______ _____ _____    ______ ____
ROOT
ATOM      1  C   UNL     1       4.176   3.068  19.082  0.00  0.00    +0.000 A 
ATOM      2  C   UNL     1       3.980   2.788  17.724  0.00  0.00    +0.000 A 
ATOM      3  C   UNL     1       4.653   3.525  16.753  0.00  0.00    +0.000 A 
ATOM      4  C   UNL     1       5.541   4.555  17.125  0.00  0.00    +0.000 A 
ATOM      5  C   UNL     1       5.712   4.847  18.487  0.00  0.00    +0.000 A 
ATOM      6  C   UNL     1       5.022   4.123  19.461  0.00  0.00    +0.000 A 
ENDROOT
BRANCH   1   7
ATOM      7  C   UNL     1       3.544   2.177  20.111  0.00  0.00    +0.000 C 
BRANCH   7   8
ATOM      8  N   UNL     1       2.746   2.971  21.066  0.00  0.00    +0.000 NA
ATOM      9  H   UNL     1       2.542   2.338  21.876  0.00  0.00    +0.000 HD
BRANCH   8  11
ATOM     10  C   UNL     1       0.790   2.571  19.477  0.00  0.00    +0.000 C 
ATOM     11  C   UNL     1       1.442   3.469  20.553  0.00  0.00    +0.000 C 
BRANCH  11  12
ATOM     12  C   UNL     1       1.616   4.812  19.877  0.00  0.00    +0.000 A 
ATOM     13  C   UNL     1       1.587   4.900  18.476  0.00  0.00    +0.000 A 
ATOM     14  C   UNL     1       1.877   6.110  17.842  0.00  0.00    +0.000 A 
ATOM     15  C   UNL     1       2.191   7.242  18.599  0.00  0.00    +0.000 A 
ATOM     16 CL   UNL     1       2.609   8.746  17.801  0.00  0.00    +0.000 Cl
ATOM     17  C   UNL     1       2.193   7.170  19.994  0.00  0.00    +0.000 A 
ATOM     18  C   UNL     1       1.902   5.964  20.634  0.00  0.00    +0.000 A 
ENDBRANCH  11  12
ENDBRANCH   8  11
ENDBRANCH   7   8
ENDBRANCH   1   7
BRANCH   4  19
ATOM     19  O   UNL     1       6.237   5.276  16.209  0.00  0.00    +0.000 OA
BRANCH  19  20
ATOM     20  C   UNL     1       7.364   4.825  15.549  0.00  0.00    +0.000 C 
BRANCH  20  21
ATOM     21  C   UNL     1       7.092   4.672  14.086  0.00  0.00    +0.000 C 
ATOM     22  N   UNL     1       6.295   3.680  13.632  0.00  0.00    +0.000 N 
ATOM     23  O   UNL     1       7.577   5.470  13.296  0.00  0.00    +0.000 OA
ATOM     24  H   UNL     1       5.855   3.016  14.285  0.00  0.00    +0.000 HD
ATOM     25  H   UNL     1       6.092   3.594  12.622  0.00  0.00    +0.000 HD
ENDBRANCH  20  21
ENDBRANCH  19  20
ENDBRANCH   4  19
TORSDOF 7
ENDMDL
MODEL 7
REMARK VINA RESULT:      -6.5      4.087      6.118
REMARK  Name = 
REMARK  8 active torsions:
REMARK  status: ('A' for Active; 'I' for Inactive)
REMARK    1  A    between atoms: C_1  and  C_2
REMARK    2  A    between atoms: C_2  and  N_3
REMARK    3  A    between atoms: C_2  and  C_16
REMARK    4  A    between atoms: N_3  and  C_4
REMARK    5  A    between atoms: C_4  and  C_5
REMARK    6  A    between atoms: C_8  and  O_9
REMARK    7  A    between atoms: O_9  and  C_10
REMARK    8  A    between atoms: C_10  and  C_11
REMARK                            x       y       z     vdW  Elec       q    Type
REMARK                         _______ _______ _______ _____ _____    ______ ____
ROOT
ATOM      1  C   UNL     1       2.753   6.944  18.766  0.00  0.00    +0.000 A 
ATOM      2  C   UNL     1       3.584   7.603  17.850  0.00  0.00    +0.000 A 
ATOM      3  C   UNL     1       4.315   6.873  16.917  0.00  0.00    +0.000 A 
ATOM      4  C   UNL     1       4.226   5.466  16.881  0.00  0.00    +0.000 A 
ATOM      5  C   UNL     1       3.413   4.811  17.818  0.00  0.00    +0.000 A 
ATOM      6  C   UNL     1       2.695   5.541  18.768  0.00  0.00    +0.000 A 
ENDROOT
BRANCH   1   7
ATOM      7  C   UNL     1       1.876   7.755  19.673  0.00  0.00    +0.000 C 
BRANCH   7   8
ATOM      8  N   UNL     1       1.490   9.024  19.025  0.00  0.00    +0.000 NA
ATOM      9  H   UNL     1       2.383   9.533  18.819  0.00  0.00    +0.000 HD
BRANCH   8  11
ATOM     10  C   UNL     1       0.009   9.266  21.089  0.00  0.00    +0.000 C 
ATOM     11  C   UNL     1       0.641   9.930  19.844  0.00  0.00    +0.000 C 
BRANCH  11  12
ATOM     12  C   UNL     1      -0.537  10.428  19.036  0.00  0.00    +0.000 A 
ATOM     13  C   UNL     1      -1.386  11.412  19.568  0.00  0.00    +0.000 A 
ATOM     14  C   UNL     1      -2.547  11.781  18.885  0.00  0.00    +0.000 A 
ATOM     15  C   UNL     1      -2.867  11.178  17.666  0.00  0.00    +0.000 A 
ATOM     16 CL   UNL     1      -4.353  11.603  16.838  0.00  0.00    +0.000 Cl
ATOM     17  C   UNL     1      -2.013  10.220  17.116  0.00  0.00    +0.000 A 
ATOM     18  C   UNL     1      -0.849   9.847  17.792  0.00  0.00    +0.000 A 
ENDBRANCH  11  12
ENDBRANCH   8  11
ENDBRANCH   7   8
ENDBRANCH   1   7
BRANCH   4  19
ATOM     19  O   UNL     1       4.901   4.722  15.967  0.00  0.00    +0.000 OA
BRANCH  19  20
ATOM     20  C   UNL     1       5.953   3.879  16.265  0.00  0.00    +0.000 C 
BRANCH  20  21
ATOM     21  C   UNL     1       7.144   4.663  16.717  0.00  0.00    +0.000 C 
ATOM     22  N   UNL     1       7.782   4.349  17.867  0.00  0.00    +0.000 N 
ATOM     23  O   UNL     1       7.560   5.582  16.025  0.00  0.00    +0.000 OA
ATOM     24  H   UNL     1       7.464   3.561  18.449  0.00  0.00    +0.000 HD
ATOM     25  H   UNL     1       8.618   4.880  18.162  0.00  0.00    +0.000 HD
ENDBRANCH  20  21
ENDBRANCH  19  20
ENDBRANCH   4  19
TORSDOF 7
ENDMDL
MODEL 8
REMARK VINA RESULT:      -6.5      4.783      7.266
REMARK  Name = 
REMARK  8 active torsions:
REMARK  status: ('A' for Active; 'I' for Inactive)
REMARK    1  A    between atoms: C_1  and  C_2
REMARK    2  A    between atoms: C_2  and  N_3
REMARK    3  A    between atoms: C_2  and  C_16
REMARK    4  A    between atoms: N_3  and  C_4
REMARK    5  A    between atoms: C_4  and  C_5
REMARK    6  A    between atoms: C_8  and  O_9
REMARK    7  A    between atoms: O_9  and  C_10
REMARK    8  A    between atoms: C_10  and  C_11
REMARK                            x       y       z     vdW  Elec       q    Type
REMARK                         _______ _______ _______ _____ _____    ______ ____
ROOT
ATOM      1  C   UNL     1       2.887   7.378  18.382  0.00  0.00    +0.000 A 
ATOM      2  C   UNL     1       2.312   8.559  17.892  0.00  0.00    +0.000 A 
ATOM      3  C   UNL     1       1.424   9.283  18.682  0.00  0.00    +0.000 A 
ATOM      4  C   UNL     1       1.097   8.842  19.981  0.00  0.00    +0.000 A 
ATOM      5  C   UNL     1       1.657   7.646  20.454  0.00  0.00    +0.000 A 
ATOM      6  C   UNL     1       2.532   6.906  19.655  0.00  0.00    +0.000 A 
ENDROOT
BRANCH   1   7
ATOM      7  C   UNL     1       3.939   6.686  17.567  0.00  0.00    +0.000 C 
BRANCH   7   8
ATOM      8  N   UNL     1       4.093   5.283  18.000  0.00  0.00    +0.000 NA
ATOM      9  H   UNL     1       3.875   5.266  19.026  0.00  0.00    +0.000 HD
BRANCH   8  11
ATOM     10  C   UNL     1       6.586   5.509  18.498  0.00  0.00    +0.000 C 
ATOM     11  C   UNL     1       5.451   4.703  17.825  0.00  0.00    +0.000 C 
BRANCH  11  12
ATOM     12  C   UNL     1       5.826   4.663  16.360  0.00  0.00    +0.000 A 
ATOM     13  C   UNL     1       5.030   3.948  15.452  0.00  0.00    +0.000 A 
ATOM     14  C   UNL     1       5.440   3.798  14.125  0.00  0.00    +0.000 A 
ATOM     15  C   UNL     1       6.642   4.364  13.692  0.00  0.00    +0.000 A 
ATOM     16 CL   UNL     1       7.182   4.129  12.041  0.00  0.00    +0.000 Cl
ATOM     17  C   UNL     1       7.425   5.102  14.583  0.00  0.00    +0.000 A 
ATOM     18  C   UNL     1       7.020   5.258  15.909  0.00  0.00    +0.000 A 
ENDBRANCH  11  12
ENDBRANCH   8  11
ENDBRANCH   7   8
ENDBRANCH   1   7
BRANCH   4  19
ATOM     19  O   UNL     1       0.258   9.538  20.791  0.00  0.00    +0.000 OA
BRANCH  19  20
ATOM     20  C   UNL     1      -0.449   8.990  21.844  0.00  0.00    +0.000 C 
BRANCH  20  21
ATOM     21  C   UNL     1      -0.393   9.886  23.040  0.00  0.00    +0.000 C 
ATOM     22  N   UNL     1      -1.273  10.903  23.183  0.00  0.00    +0.000 N 
ATOM     23  O   UNL     1       0.442   9.681  23.909  0.00  0.00    +0.000 OA
ATOM     24  H   UNL     1      -2.001  11.074  22.475  0.00  0.00    +0.000 HD
ATOM     25  H   UNL     1      -1.243  11.504  24.023  0.00  0.00    +0.000 HD
ENDBRANCH  20  21
ENDBRANCH  19  20
ENDBRANCH   4  19
TORSDOF 7
ENDMDL
MODEL 9
REMARK VINA RESULT:      -6.4      4.097      6.098
REMARK  Name = 
REMARK  8 active torsions:
REMARK  status: ('A' for Active; 'I' for Inactive)
REMARK    1  A    between atoms: C_1  and  C_2
REMARK    2  A    between atoms: C_2  and  N_3
REMARK    3  A    between atoms: C_2  and  C_16
REMARK    4  A    between atoms: N_3  and  C_4
REMARK    5  A    between atoms: C_4  and  C_5
REMARK    6  A    between atoms: C_8  and  O_9
REMARK    7  A    between atoms: O_9  and  C_10
REMARK    8  A    between atoms: C_10  and  C_11
REMARK                            x       y       z     vdW  Elec       q    Type
REMARK                         _______ _______ _______ _____ _____    ______ ____
ROOT
ATOM      1  C   UNL     1       5.265   5.695  16.814  0.00  0.00    +0.000 A 
ATOM      2  C   UNL     1       5.397   6.258  15.538  0.00  0.00    +0.000 A 
ATOM      3  C   UNL     1       5.775   5.463  14.459  0.00  0.00    +0.000 A 
ATOM      4  C   UNL     1       6.024   4.087  14.637  0.00  0.00    +0.000 A 
ATOM      5  C   UNL     1       5.916   3.536  15.922  0.00  0.00    +0.000 A 
ATOM      6  C   UNL     1       5.557   4.335  17.010  0.00  0.00    +0.000 A 
ENDROOT
BRANCH   1   7
ATOM      7  C   UNL     1       4.730   6.538  17.933  0.00  0.00    +0.000 C 
BRANCH   7   8
ATOM      8  N   UNL     1       3.823   7.580  17.412  0.00  0.00    +0.000 NA
ATOM      9  H   UNL     1       4.157   8.489  17.814  0.00  0.00    +0.000 HD
BRANCH   8  11
ATOM     10  C   UNL     1       1.819   8.595  18.623  0.00  0.00    +0.000 C 
ATOM     11  C   UNL     1       2.391   7.429  17.785  0.00  0.00    +0.000 C 
BRANCH  11  12
ATOM     12  C   UNL     1       2.195   6.203  18.652  0.00  0.00    +0.000 A 
ATOM     13  C   UNL     1       1.910   4.964  18.057  0.00  0.00    +0.000 A 
ATOM     14  C   UNL     1       1.599   3.859  18.853  0.00  0.00    +0.000 A 
ATOM     15  C   UNL     1       1.575   3.979  20.245  0.00  0.00    +0.000 A 
ATOM     16 CL   UNL     1       1.130   2.606  21.240  0.00  0.00    +0.000 Cl
ATOM     17  C   UNL     1       1.886   5.202  20.844  0.00  0.00    +0.000 A 
ATOM     18  C   UNL     1       2.200   6.310  20.056  0.00  0.00    +0.000 A 
ENDBRANCH  11  12
ENDBRANCH   8  11
ENDBRANCH   7   8
ENDBRANCH   1   7
BRANCH   4  19
ATOM     19  O   UNL     1       6.366   3.274  13.604  0.00  0.00    +0.000 OA
BRANCH  19  20
ATOM     20  C   UNL     1       6.219   3.598  12.269  0.00  0.00    +0.000 C 
BRANCH  20  21
ATOM     21  C   UNL     1       5.271   2.654  11.599  0.00  0.00    +0.000 C 
ATOM     22  N   UNL     1       4.035   3.061  11.233  0.00  0.00    +0.000 N 
ATOM     23  O   UNL     1       5.629   1.509  11.359  0.00  0.00    +0.000 OA
ATOM     24  H   UNL     1       3.726   4.029  11.402  0.00  0.00    +0.000 HD
ATOM     25  H   UNL     1       3.394   2.410  10.750  0.00  0.00    +0.000 HD
ENDBRANCH  20  21
ENDBRANCH  19  20
ENDBRANCH   4  19
TORSDOF 7
ENDMDL
