MODEL 1
REMARK VINA RESULT:      -7.7      0.000      0.000
REMARK  Name = 
REMARK  11 active torsions:
REMARK  status: ('A' for Active; 'I' for Inactive)
REMARK    1  A    between atoms: C_1  and  C_2
REMARK    2  A    between atoms: C_2  and  C_3
REMARK    3  A    between atoms: C_3  and  C_4
REMARK    4  A    between atoms: C_3  and  N_5
REMARK    5  A    between atoms: N_5  and  C_6
REMARK    6  A    between atoms: C_6  and  C_7
REMARK    7  A    between atoms: C_13  and  C_15
REMARK    8  A    between atoms: C_16  and  C_17
REMARK    9  A    between atoms: N_19  and  C_20
REMARK   10  A    between atoms: C_21  and  O_22
REMARK   11  A    between atoms: O_22  and  C_23
REMARK                            x       y       z     vdW  Elec       q    Type
REMARK                         _______ _______ _______ _____ _____    ______ ____
ROOT
ATOM      1  C   UNL     1       4.020   4.592  19.130  0.00  0.00    +0.000 A 
ATOM      2  C   UNL     1       3.533   3.328  18.632  0.00  0.00    +0.000 A 
ATOM      3  C   UNL     1       4.232   2.269  17.851  0.00  0.00    +0.000 C 
ATOM      4  N   UNL     1       2.256   3.114  18.954  0.00  0.00    +0.000 NA
ATOM      5  N   UNL     1       1.916   4.208  19.641  0.00  0.00    +0.000 N 
ATOM      6  C   UNL     1       0.617   4.262  20.275  0.00  0.00    +0.000 C 
ATOM      7  C   UNL     1       2.869   5.205  19.642  0.00  0.00    +0.000 A 
ENDROOT
BRANCH   1   9
ATOM      8  N   UNL     1       5.969   5.334  17.706  0.00  0.00    +0.000 N 
ATOM      9  C   UNL     1       5.411   5.028  18.960  0.00  0.00    +0.000 C 
ATOM     10  O   UNL     1       6.092   5.172  19.978  0.00  0.00    +0.000 OA
BRANCH   8  11
ATOM     11  C   UNL     1       7.442   5.575  17.584  0.00  0.00    +0.000 C 
ATOM     12  C   UNL     1       8.358   4.418  18.043  0.00  0.00    +0.000 C 
BRANCH  11  14
ATOM     13  C   UNL     1       7.603   8.155  17.539  0.00  0.00    +0.000 C 
ATOM     14  C   UNL     1       7.931   6.866  18.271  0.00  0.00    +0.000 C 
ENDBRANCH  11  14
ENDBRANCH   8  11
BRANCH   8  15
ATOM     15  C   UNL     1       5.198   5.469  16.459  0.00  0.00    +0.000 C 
BRANCH  15  16
ATOM     16  C   UNL     1       5.782   4.922  15.185  0.00  0.00    +0.000 A 
ATOM     17  C   UNL     1       5.162   3.937  14.424  0.00  0.00    +0.000 A 
ATOM     18  C   UNL     1       5.655   3.616  13.167  0.00  0.00    +0.000 A 
ATOM     19  C   UNL     1       6.793   4.261  12.717  0.00  0.00    +0.000 A 
ATOM     20  N   UNL     1       7.467   5.179  13.447  0.00  0.00    +0.000 NA
ATOM     21  C   UNL     1       6.943   5.491  14.654  0.00  0.00    +0.000 A 
ENDBRANCH  15  16
ENDBRANCH   8  15
ENDBRANCH   1   9
BRANCH   7  22
ATOM     22  O   UNL     1       2.485   6.382  20.148  0.00  0.00    +0.000 OA
BRANCH  22  23
ATOM     23  C   UNL     1       2.100   7.501  19.456  0.00  0.00    +0.000 A 
ATOM     24  C   UNL     1       2.429   7.724  18.122  0.00  0.00    +0.000 A 
ATOM     25  C   UNL     1       2.167   8.964  17.542  0.00  0.00    +0.000 A 
ATOM     26  C   UNL     1       1.544   9.970  18.275  0.00  0.00    +0.000 A 
ATOM     27  C   UNL     1       1.108   9.718  19.574  0.00  0.00    +0.000 A 
ATOM     28 CL   UNL     1       0.288  10.995  20.401  0.00  0.00    +0.000 Cl
ATOM     29  C   UNL     1       1.368   8.474  20.168  0.00  0.00    +0.000 A 
ATOM     30 CL   UNL     1       0.846   8.139  21.790  0.00  0.00    +0.000 Cl
ENDBRANCH  22  23
ENDBRANCH   7  22
TORSDOF 7
ENDMDL
MODEL 2
REMARK VINA RESULT:      -7.0      6.877     10.030
REMARK  Name = 
REMARK  11 active torsions:
REMARK  status: ('A' for Active; 'I' for Inactive)
REMARK    1  A    between atoms: C_1  and  C_2
REMARK    2  A    between atoms: C_2  and  C_3
REMARK    3  A    between atoms: C_3  and  C_4
REMARK    4  A    between atoms: C_3  and  N_5
REMARK    5  A    between atoms: N_5  and  C_6
REMARK    6  A    between atoms: C_6  and  C_7
REMARK    7  A    between atoms: C_13  and  C_15
REMARK    8  A    between atoms: C_16  and  C_17
REMARK    9  A    between atoms: N_19  and  C_20
REMARK   10  A    between atoms: C_21  and  O_22
REMARK   11  A    between atoms: O_22  and  C_23
REMARK                            x       y       z     vdW  Elec       q    Type
REMARK                         _______ _______ _______ _____ _____    ______ ____
ROOT
ATOM      1  C   UNL     1       0.662  14.073  19.939  0.00  0.00    +0.000 A 
ATOM      2  C   UNL     1       1.400  14.696  18.867  0.00  0.00    +0.000 A 
ATOM      3  C   UNL     1       2.601  14.222  18.124  0.00  0.00    +0.000 C 
ATOM      4  N   UNL     1       0.881  15.872  18.511  0.00  0.00    +0.000 NA
ATOM      5  N   UNL     1      -0.165  16.017  19.330  0.00  0.00    +0.000 N 
ATOM      6  C   UNL     1      -1.058  17.137  19.134  0.00  0.00    +0.000 C 
ATOM      7  C   UNL     1      -0.256  15.060  20.319  0.00  0.00    +0.000 A 
ENDROOT
BRANCH   1   9
ATOM      8  N   UNL     1       0.665  11.551  19.798  0.00  0.00    +0.000 N 
ATOM      9  C   UNL     1       0.998  12.744  20.465  0.00  0.00    +0.000 C 
ATOM     10  O   UNL     1       1.640  12.693  21.515  0.00  0.00    +0.000 OA
BRANCH   8  11
ATOM     11  C   UNL     1       0.856  10.234  20.486  0.00  0.00    +0.000 C 
ATOM     12  C   UNL     1       1.220   9.041  19.575  0.00  0.00    +0.000 C 
BRANCH  11  14
ATOM     13  C   UNL     1       0.028   9.441  22.803  0.00  0.00    +0.000 C 
ATOM     14  C   UNL     1      -0.331   9.807  21.374  0.00  0.00    +0.000 C 
ENDBRANCH  11  14
ENDBRANCH   8  11
BRANCH   8  15
ATOM     15  C   UNL     1       0.150  11.479  18.421  0.00  0.00    +0.000 C 
BRANCH  15  16
ATOM     16  C   UNL     1      -1.318  11.233  18.209  0.00  0.00    +0.000 A 
ATOM     17  C   UNL     1      -1.815  10.150  17.494  0.00  0.00    +0.000 A 
ATOM     18  C   UNL     1      -3.176   9.877  17.499  0.00  0.00    +0.000 A 
ATOM     19  C   UNL     1      -4.020  10.728  18.190  0.00  0.00    +0.000 A 
ATOM     20  N   UNL     1      -3.590  11.830  18.847  0.00  0.00    +0.000 NA
ATOM     21  C   UNL     1      -2.256  12.050  18.847  0.00  0.00    +0.000 A 
ENDBRANCH  15  16
ENDBRANCH   8  15
ENDBRANCH   1   9
BRANCH   7  22
ATOM     22  O   UNL     1      -1.170  15.287  21.270  0.00  0.00    +0.000 OA
BRANCH  22  23
ATOM     23  C   UNL     1      -1.875  14.354  21.986  0.00  0.00    +0.000 A 
ATOM     24  C   UNL     1      -1.294  13.530  22.946  0.00  0.00    +0.000 A 
ATOM     25  C   UNL     1      -2.030  12.481  23.495  0.00  0.00    +0.000 A 
ATOM     26  C   UNL     1      -3.354  12.274  23.119  0.00  0.00    +0.000 A 
ATOM     27  C   UNL     1      -3.979  13.162  22.247  0.00  0.00    +0.000 A 
ATOM     28 CL   UNL     1      -5.642  12.877  21.874  0.00  0.00    +0.000 Cl
ATOM     29  C   UNL     1      -3.247  14.220  21.687  0.00  0.00    +0.000 A 
ATOM     30 CL   UNL     1      -3.998  15.334  20.587  0.00  0.00    +0.000 Cl
ENDBRANCH  22  23
ENDBRANCH   7  22
TORSDOF 7
ENDMDL
MODEL 3
REMARK VINA RESULT:      -6.8      7.614     11.343
REMARK  Name = 
REMARK  11 active torsions:
REMARK  status: ('A' for Active; 'I' for Inactive)
REMARK    1  A    between atoms: C_1  and  C_2
REMARK    2  A    between atoms: C_2  and  C_3
REMARK    3  A    between atoms: C_3  and  C_4
REMARK    4  A    between atoms: C_3  and  N_5
REMARK    5  A    between atoms: N_5  and  C_6
REMARK    6  A    between atoms: C_6  and  C_7
REMARK    7  A    between atoms: C_13  and  C_15
REMARK    8  A    between atoms: C_16  and  C_17
REMARK    9  A    between atoms: N_19  and  C_20
REMARK   10  A    between atoms: C_21  and  O_22
REMARK   11  A    between atoms: O_22  and  C_23
REMARK                            x       y       z     vdW  Elec       q    Type
REMARK                         _______ _______ _______ _____ _____    ______ ____
ROOT
ATOM      1  C   UNL     1      -0.581  12.012  21.314  0.00  0.00    +0.000 A 
ATOM      2  C   UNL     1      -0.434  10.631  21.705  0.00  0.00    +0.000 A 
ATOM      3  C   UNL     1      -0.407  10.013  23.061  0.00  0.00    +0.000 C 
ATOM      4  N   UNL     1      -0.320   9.815  20.655  0.00  0.00    +0.000 NA
ATOM      5  N   UNL     1      -0.387  10.639  19.606  0.00  0.00    +0.000 N 
ATOM      6  C   UNL     1      -0.434  10.077  18.275  0.00  0.00    +0.000 C 
ATOM      7  C   UNL     1      -0.375  11.981  19.928  0.00  0.00    +0.000 A 
ENDROOT
BRANCH   1   9
ATOM      8  N   UNL     1      -2.032  13.356  22.884  0.00  0.00    +0.000 N 
ATOM      9  C   UNL     1      -0.787  13.093  22.284  0.00  0.00    +0.000 C 
ATOM     10  O   UNL     1       0.196  13.761  22.610  0.00  0.00    +0.000 OA
BRANCH   8  11
ATOM     11  C   UNL     1      -2.217  14.594  23.706  0.00  0.00    +0.000 C 
ATOM     12  C   UNL     1      -3.117  14.451  24.954  0.00  0.00    +0.000 C 
BRANCH  11  14
ATOM     13  C   UNL     1      -1.619  16.726  22.371  0.00  0.00    +0.000 C 
ATOM     14  C   UNL     1      -2.711  15.816  22.905  0.00  0.00    +0.000 C 
ENDBRANCH  11  14
ENDBRANCH   8  11
BRANCH   8  15
ATOM     15  C   UNL     1      -3.207  12.473  22.794  0.00  0.00    +0.000 C 
BRANCH  15  16
ATOM     16  C   UNL     1      -4.279  12.797  21.791  0.00  0.00    +0.000 A 
ATOM     17  C   UNL     1      -4.091  12.707  20.416  0.00  0.00    +0.000 A 
ATOM     18  C   UNL     1      -5.173  12.834  19.555  0.00  0.00    +0.000 A 
ATOM     19  C   UNL     1      -6.420  13.094  20.093  0.00  0.00    +0.000 A 
ATOM     20  N   UNL     1      -6.642  13.253  21.418  0.00  0.00    +0.000 NA
ATOM     21  C   UNL     1      -5.572  13.094  22.231  0.00  0.00    +0.000 A 
ENDBRANCH  15  16
ENDBRANCH   8  15
ENDBRANCH   1   9
BRANCH   7  22
ATOM     22  O   UNL     1      -0.240  12.828  18.902  0.00  0.00    +0.000 OA
BRANCH  22  23
ATOM     23  C   UNL     1       0.426  14.027  18.893  0.00  0.00    +0.000 A 
ATOM     24  C   UNL     1      -0.172  15.234  19.244  0.00  0.00    +0.000 A 
ATOM     25  C   UNL     1       0.509  16.432  19.029  0.00  0.00    +0.000 A 
ATOM     26  C   UNL     1       1.797  16.427  18.501  0.00  0.00    +0.000 A 
ATOM     27  C   UNL     1       2.446  15.220  18.254  0.00  0.00    +0.000 A 
ATOM     28 CL   UNL     1       4.066  15.293  17.657  0.00  0.00    +0.000 Cl
ATOM     29  C   UNL     1       1.770  14.009  18.465  0.00  0.00    +0.000 A 
ATOM     30 CL   UNL     1       2.551  12.490  18.153  0.00  0.00    +0.000 Cl
ENDBRANCH  22  23
ENDBRANCH   7  22
TORSDOF 7
ENDMDL
MODEL 4
REMARK VINA RESULT:      -6.7      7.630     11.450
REMARK  Name = 
REMARK  11 active torsions:
REMARK  status: ('A' for Active; 'I' for Inactive)
REMARK    1  A    between atoms: C_1  and  C_2
REMARK    2  A    between atoms: C_2  and  C_3
REMARK    3  A    between atoms: C_3  and  C_4
REMARK    4  A    between atoms: C_3  and  N_5
REMARK    5  A    between atoms: N_5  and  C_6
REMARK    6  A    between atoms: C_6  and  C_7
REMARK    7  A    between atoms: C_13  and  C_15
REMARK    8  A    between atoms: C_16  and  C_17
REMARK    9  A    between atoms: N_19  and  C_20
REMARK   10  A    between atoms: C_21  and  O_22
REMARK   11  A    between atoms: O_22  and  C_23
REMARK                            x       y       z     vdW  Elec       q    Type
REMARK                         _______ _______ _______ _____ _____    ______ ____
ROOT
ATOM      1  C   UNL     1      -0.565  12.003  21.342  0.00  0.00    +0.000 A 
ATOM      2  C   UNL     1      -0.425  10.621  21.731  0.00  0.00    +0.000 A 
ATOM      3  C   UNL     1      -0.386  10.004  23.087  0.00  0.00    +0.000 C 
ATOM      4  N   UNL     1      -0.331   9.804  20.680  0.00  0.00    +0.000 NA
ATOM      5  N   UNL     1      -0.403  10.630  19.632  0.00  0.00    +0.000 N 
ATOM      6  C   UNL     1      -0.473  10.068  18.301  0.00  0.00    +0.000 C 
ATOM      7  C   UNL     1      -0.377  11.971  19.954  0.00  0.00    +0.000 A 
ENDROOT
BRANCH   1   9
ATOM      8  N   UNL     1      -1.970  13.324  22.973  0.00  0.00    +0.000 N 
ATOM      9  C   UNL     1      -0.749  13.087  22.315  0.00  0.00    +0.000 C 
ATOM     10  O   UNL     1       0.232  13.779  22.589  0.00  0.00    +0.000 OA
BRANCH   8  11
ATOM     11  C   UNL     1      -2.144  14.564  23.795  0.00  0.00    +0.000 C 
ATOM     12  C   UNL     1      -3.093  14.444  25.008  0.00  0.00    +0.000 C 
BRANCH  11  14
ATOM     13  C   UNL     1      -3.910  16.403  23.366  0.00  0.00    +0.000 C 
ATOM     14  C   UNL     1      -2.568  15.806  22.984  0.00  0.00    +0.000 C 
ENDBRANCH  11  14
ENDBRANCH   8  11
BRANCH   8  15
ATOM     15  C   UNL     1      -3.126  12.414  22.944  0.00  0.00    +0.000 C 
BRANCH  15  16
ATOM     16  C   UNL     1      -4.287  12.748  22.049  0.00  0.00    +0.000 A 
ATOM     17  C   UNL     1      -5.533  13.138  22.529  0.00  0.00    +0.000 A 
ATOM     18  C   UNL     1      -6.498  13.616  21.653  0.00  0.00    +0.000 A 
ATOM     19  C   UNL     1      -6.208  13.648  20.301  0.00  0.00    +0.000 A 
ATOM     20  N   UNL     1      -5.035  13.219  19.781  0.00  0.00    +0.000 NA
ATOM     21  C   UNL     1      -4.106  12.789  20.664  0.00  0.00    +0.000 A 
ENDBRANCH  15  16
ENDBRANCH   8  15
ENDBRANCH   1   9
BRANCH   7  22
ATOM     22  O   UNL     1      -0.248  12.817  18.926  0.00  0.00    +0.000 OA
BRANCH  22  23
ATOM     23  C   UNL     1       0.413  14.018  18.913  0.00  0.00    +0.000 A 
ATOM     24  C   UNL     1      -0.188  15.224  19.266  0.00  0.00    +0.000 A 
ATOM     25  C   UNL     1       0.488  16.424  19.047  0.00  0.00    +0.000 A 
ATOM     26  C   UNL     1       1.773  16.425  18.514  0.00  0.00    +0.000 A 
ATOM     27  C   UNL     1       2.426  15.220  18.266  0.00  0.00    +0.000 A 
ATOM     28 CL   UNL     1       4.043  15.300  17.662  0.00  0.00    +0.000 Cl
ATOM     29  C   UNL     1       1.756  14.006  18.480  0.00  0.00    +0.000 A 
ATOM     30 CL   UNL     1       2.542  12.491  18.167  0.00  0.00    +0.000 Cl
ENDBRANCH  22  23
ENDBRANCH   7  22
TORSDOF 7
ENDMDL
MODEL 5
REMARK VINA RESULT:      -6.7      7.078     11.366
REMARK  Name = 
REMARK  11 active torsions:
REMARK  status: ('A' for Active; 'I' for Inactive)
REMARK    1  A    between atoms: C_1  and  C_2
REMARK    2  A    between atoms: C_2  and  C_3
REMARK    3  A    between atoms: C_3  and  C_4
REMARK    4  A    between atoms: C_3  and  N_5
REMARK    5  A    between atoms: N_5  and  C_6
REMARK    6  A    between atoms: C_6  and  C_7
REMARK    7  A    between atoms: C_13  and  C_15
REMARK    8  A    between atoms: C_16  and  C_17
REMARK    9  A    between atoms: N_19  and  C_20
REMARK   10  A    between atoms: C_21  and  O_22
REMARK   11  A    between atoms: O_22  and  C_23
REMARK                            x       y       z     vdW  Elec       q    Type
REMARK                         _______ _______ _______ _____ _____    ______ ____
ROOT
ATOM      1  C   UNL     1       0.179  13.043  19.614  0.00  0.00    +0.000 A 
ATOM      2  C   UNL     1       1.603  12.857  19.477  0.00  0.00    +0.000 A 
ATOM      3  C   UNL     1       2.694  13.862  19.335  0.00  0.00    +0.000 C 
ATOM      4  N   UNL     1       1.952  11.569  19.499  0.00  0.00    +0.000 NA
ATOM      5  N   UNL     1       0.787  10.930  19.641  0.00  0.00    +0.000 N 
ATOM      6  C   UNL     1       0.795   9.498  19.843  0.00  0.00    +0.000 C 
ATOM      7  C   UNL     1      -0.327  11.738  19.550  0.00  0.00    +0.000 A 
ENDROOT
BRANCH   1   9
ATOM      8  N   UNL     1      -0.857  14.960  20.891  0.00  0.00    +0.000 N 
ATOM      9  C   UNL     1      -0.445  14.370  19.682  0.00  0.00    +0.000 C 
ATOM     10  O   UNL     1      -0.562  14.999  18.629  0.00  0.00    +0.000 OA
BRANCH   8  11
ATOM     11  C   UNL     1      -1.667  16.220  20.867  0.00  0.00    +0.000 C 
ATOM     12  C   UNL     1      -1.357  17.244  21.981  0.00  0.00    +0.000 C 
BRANCH  11  14
ATOM     13  C   UNL     1      -4.036  17.225  21.109  0.00  0.00    +0.000 C 
ATOM     14  C   UNL     1      -3.192  15.991  20.845  0.00  0.00    +0.000 C 
ENDBRANCH  11  14
ENDBRANCH   8  11
BRANCH   8  15
ATOM     15  C   UNL     1      -0.529  14.441  22.229  0.00  0.00    +0.000 C 
BRANCH  15  16
ATOM     16  C   UNL     1      -1.619  13.805  23.046  0.00  0.00    +0.000 A 
ATOM     17  C   UNL     1      -2.313  14.476  24.047  0.00  0.00    +0.000 A 
ATOM     18  C   UNL     1      -3.432  13.896  24.628  0.00  0.00    +0.000 A 
ATOM     19  C   UNL     1      -3.806  12.627  24.223  0.00  0.00    +0.000 A 
ATOM     20  N   UNL     1      -3.126  11.910  23.299  0.00  0.00    +0.000 NA
ATOM     21  C   UNL     1      -2.059  12.517  22.731  0.00  0.00    +0.000 A 
ENDBRANCH  15  16
ENDBRANCH   8  15
ENDBRANCH   1   9
BRANCH   7  22
ATOM     22  O   UNL     1      -1.505  11.106  19.489  0.00  0.00    +0.000 OA
BRANCH  22  23
ATOM     23  C   UNL     1      -2.288  10.908  18.381  0.00  0.00    +0.000 A 
ATOM     24  C   UNL     1      -1.901  10.112  17.306  0.00  0.00    +0.000 A 
ATOM     25  C   UNL     1      -2.662  10.110  16.138  0.00  0.00    +0.000 A 
ATOM     26  C   UNL     1      -3.826  10.868  16.051  0.00  0.00    +0.000 A 
ATOM     27  C   UNL     1      -4.282  11.577  17.160  0.00  0.00    +0.000 A 
ATOM     28 CL   UNL     1      -5.766  12.445  16.996  0.00  0.00    +0.000 Cl
ATOM     29  C   UNL     1      -3.523  11.588  18.341  0.00  0.00    +0.000 A 
ATOM     30 CL   UNL     1      -4.062  12.473  19.733  0.00  0.00    +0.000 Cl
ENDBRANCH  22  23
ENDBRANCH   7  22
TORSDOF 7
ENDMDL
MODEL 6
REMARK VINA RESULT:      -6.7      7.664     11.414
REMARK  Name = 
REMARK  11 active torsions:
REMARK  status: ('A' for Active; 'I' for Inactive)
REMARK    1  A    between atoms: C_1  and  C_2
REMARK    2  A    between atoms: C_2  and  C_3
REMARK    3  A    between atoms: C_3  and  C_4
REMARK    4  A    between atoms: C_3  and  N_5
REMARK    5  A    between atoms: N_5  and  C_6
REMARK    6  A    between atoms: C_6  and  C_7
REMARK    7  A    between atoms: C_13  and  C_15
REMARK    8  A    between atoms: C_16  and  C_17
REMARK    9  A    between atoms: N_19  and  C_20
REMARK   10  A    between atoms: C_21  and  O_22
REMARK   11  A    between atoms: O_22  and  C_23
REMARK                            x       y       z     vdW  Elec       q    Type
REMARK                         _______ _______ _______ _____ _____    ______ ____
ROOT
ATOM      1  C   UNL     1      -0.554  12.020  21.368  0.00  0.00    +0.000 A 
ATOM      2  C   UNL     1      -0.421  10.637  21.755  0.00  0.00    +0.000 A 
ATOM      3  C   UNL     1      -0.403  10.015  23.109  0.00  0.00    +0.000 C 
ATOM      4  N   UNL     1      -0.311   9.823  20.703  0.00  0.00    +0.000 NA
ATOM      5  N   UNL     1      -0.367  10.652  19.656  0.00  0.00    +0.000 N 
ATOM      6  C   UNL     1      -0.416  10.094  18.323  0.00  0.00    +0.000 C 
ATOM      7  C   UNL     1      -0.344  11.992  19.983  0.00  0.00    +0.000 A 
ENDROOT
BRANCH   1   9
ATOM      8  N   UNL     1      -1.980  13.330  22.990  0.00  0.00    +0.000 N 
ATOM      9  C   UNL     1      -0.753  13.101  22.341  0.00  0.00    +0.000 C 
ATOM     10  O   UNL     1       0.222  13.798  22.625  0.00  0.00    +0.000 OA
BRANCH   8  11
ATOM     11  C   UNL     1      -2.169  14.567  23.812  0.00  0.00    +0.000 C 
ATOM     12  C   UNL     1      -3.108  14.433  25.032  0.00  0.00    +0.000 C 
BRANCH  11  14
ATOM     13  C   UNL     1      -3.953  16.394  23.412  0.00  0.00    +0.000 C 
ATOM     14  C   UNL     1      -2.617  15.802  23.004  0.00  0.00    +0.000 C 
ENDBRANCH  11  14
ENDBRANCH   8  11
BRANCH   8  15
ATOM     15  C   UNL     1      -3.131  12.413  22.949  0.00  0.00    +0.000 C 
BRANCH  15  16
ATOM     16  C   UNL     1      -4.288  12.743  22.048  0.00  0.00    +0.000 A 
ATOM     17  C   UNL     1      -5.545  13.106  22.521  0.00  0.00    +0.000 A 
ATOM     18  C   UNL     1      -6.508  13.583  21.643  0.00  0.00    +0.000 A 
ATOM     19  C   UNL     1      -6.205  13.644  20.295  0.00  0.00    +0.000 A 
ATOM     20  N   UNL     1      -5.020  13.242  19.780  0.00  0.00    +0.000 NA
ATOM     21  C   UNL     1      -4.093  12.812  20.666  0.00  0.00    +0.000 A 
ENDBRANCH  15  16
ENDBRANCH   8  15
ENDBRANCH   1   9
BRANCH   7  22
ATOM     22  O   UNL     1      -0.199  12.842  18.960  0.00  0.00    +0.000 OA
BRANCH  22  23
ATOM     23  C   UNL     1       0.849  13.695  18.727  0.00  0.00    +0.000 A 
ATOM     24  C   UNL     1       2.062  13.283  18.183  0.00  0.00    +0.000 A 
ATOM     25  C   UNL     1       3.142  14.164  18.153  0.00  0.00    +0.000 A 
ATOM     26  C   UNL     1       3.006  15.465  18.629  0.00  0.00    +0.000 A 
ATOM     27  C   UNL     1       1.766  15.921  19.069  0.00  0.00    +0.000 A 
ATOM     28 CL   UNL     1       1.660  17.566  19.587  0.00  0.00    +0.000 Cl
ATOM     29  C   UNL     1       0.673  15.043  19.105  0.00  0.00    +0.000 A 
ATOM     30 CL   UNL     1      -0.881  15.582  19.662  0.00  0.00    +0.000 Cl
ENDBRANCH  22  23
ENDBRANCH   7  22
TORSDOF 7
ENDMDL
MODEL 7
REMARK VINA RESULT:      -6.6      7.162     10.172
REMARK  Name = 
REMARK  11 active torsions:
REMARK  status: ('A' for Active; 'I' for Inactive)
REMARK    1  A    between atoms: C_1  and  C_2
REMARK    2  A    between atoms: C_2  and  C_3
REMARK    3  A    between atoms: C_3  and  C_4
REMARK    4  A    between atoms: C_3  and  N_5
REMARK    5  A    between atoms: N_5  and  C_6
REMARK    6  A    between atoms: C_6  and  C_7
REMARK    7  A    between atoms: C_13  and  C_15
REMARK    8  A    between atoms: C_16  and  C_17
REMARK    9  A    between atoms: N_19  and  C_20
REMARK   10  A    between atoms: C_21  and  O_22
REMARK   11  A    between atoms: O_22  and  C_23
REMARK                            x       y       z     vdW  Elec       q    Type
REMARK                         _______ _______ _______ _____ _____    ______ ____
ROOT
ATOM      1  C   UNL     1       0.710  14.244  19.834  0.00  0.00    +0.000 A 
ATOM      2  C   UNL     1       1.607  14.840  18.874  0.00  0.00    +0.000 A 
ATOM      3  C   UNL     1       2.946  14.390  18.401  0.00  0.00    +0.000 C 
ATOM      4  N   UNL     1       1.112  15.961  18.345  0.00  0.00    +0.000 NA
ATOM      5  N   UNL     1      -0.074  16.098  18.946  0.00  0.00    +0.000 N 
ATOM      6  C   UNL     1      -0.963  17.150  18.509  0.00  0.00    +0.000 C 
ATOM      7  C   UNL     1      -0.306  15.200  19.967  0.00  0.00    +0.000 A 
ENDROOT
BRANCH   1   9
ATOM      8  N   UNL     1       0.652  11.723  19.962  0.00  0.00    +0.000 N 
ATOM      9  C   UNL     1       0.999  12.973  20.507  0.00  0.00    +0.000 C 
ATOM     10  O   UNL     1       1.616  13.019  21.573  0.00  0.00    +0.000 OA
BRANCH   8  11
ATOM     11  C   UNL     1       0.794  10.483  20.791  0.00  0.00    +0.000 C 
ATOM     12  C   UNL     1       1.078   9.178  20.014  0.00  0.00    +0.000 C 
BRANCH  11  14
ATOM     13  C   UNL     1      -0.434   8.832  22.356  0.00  0.00    +0.000 C 
ATOM     14  C   UNL     1      -0.392  10.219  21.741  0.00  0.00    +0.000 C 
ENDBRANCH  11  14
ENDBRANCH   8  11
BRANCH   8  15
ATOM     15  C   UNL     1       0.167  11.516  18.588  0.00  0.00    +0.000 C 
BRANCH  15  16
ATOM     16  C   UNL     1      -1.279  11.161  18.376  0.00  0.00    +0.000 A 
ATOM     17  C   UNL     1      -2.331  11.936  18.851  0.00  0.00    +0.000 A 
ATOM     18  C   UNL     1      -3.633  11.658  18.458  0.00  0.00    +0.000 A 
ATOM     19  C   UNL     1      -3.858  10.573  17.629  0.00  0.00    +0.000 A 
ATOM     20  N   UNL     1      -2.874   9.753  17.194  0.00  0.00    +0.000 NA
ATOM     21  C   UNL     1      -1.614  10.070  17.570  0.00  0.00    +0.000 A 
ENDBRANCH  15  16
ENDBRANCH   8  15
ENDBRANCH   1   9
BRANCH   7  22
ATOM     22  O   UNL     1      -1.391  15.433  20.716  0.00  0.00    +0.000 OA
BRANCH  22  23
ATOM     23  C   UNL     1      -1.820  14.719  21.805  0.00  0.00    +0.000 A 
ATOM     24  C   UNL     1      -2.482  13.499  21.704  0.00  0.00    +0.000 A 
ATOM     25  C   UNL     1      -3.055  12.927  22.839  0.00  0.00    +0.000 A 
ATOM     26  C   UNL     1      -2.939  13.548  24.079  0.00  0.00    +0.000 A 
ATOM     27  C   UNL     1      -2.182  14.709  24.210  0.00  0.00    +0.000 A 
ATOM     28 CL   UNL     1      -2.031  15.389  25.791  0.00  0.00    +0.000 Cl
ATOM     29  C   UNL     1      -1.602  15.295  23.074  0.00  0.00    +0.000 A 
ATOM     30 CL   UNL     1      -0.664  16.750  23.207  0.00  0.00    +0.000 Cl
ENDBRANCH  22  23
ENDBRANCH   7  22
TORSDOF 7
ENDMDL
MODEL 8
REMARK VINA RESULT:      -6.5      8.501     12.502
REMARK  Name = 
REMARK  11 active torsions:
REMARK  status: ('A' for Active; 'I' for Inactive)
REMARK    1  A    between atoms: C_1  and  C_2
REMARK    2  A    between atoms: C_2  and  C_3
REMARK    3  A    between atoms: C_3  and  C_4
REMARK    4  A    between atoms: C_3  and  N_5
REMARK    5  A    between atoms: N_5  and  C_6
REMARK    6  A    between atoms: C_6  and  C_7
REMARK    7  A    between atoms: C_13  and  C_15
REMARK    8  A    between atoms: C_16  and  C_17
REMARK    9  A    between atoms: N_19  and  C_20
REMARK   10  A    between atoms: C_21  and  O_22
REMARK   11  A    between atoms: O_22  and  C_23
REMARK                            x       y       z     vdW  Elec       q    Type
REMARK                         _______ _______ _______ _____ _____    ______ ____
ROOT
ATOM      1  C   UNL     1      -4.931  12.623  21.176  0.00  0.00    +0.000 A 
ATOM      2  C   UNL     1      -6.247  12.161  20.807  0.00  0.00    +0.000 A 
ATOM      3  C   UNL     1      -7.481  12.016  21.630  0.00  0.00    +0.000 C 
ATOM      4  N   UNL     1      -6.327  11.834  19.516  0.00  0.00    +0.000 NA
ATOM      5  N   UNL     1      -5.096  12.072  19.053  0.00  0.00    +0.000 N 
ATOM      6  C   UNL     1      -4.846  11.956  17.634  0.00  0.00    +0.000 C 
ATOM      7  C   UNL     1      -4.169  12.386  20.025  0.00  0.00    +0.000 A 
ENDROOT
BRANCH   1   9
ATOM      8  N   UNL     1      -4.403  14.460  22.827  0.00  0.00    +0.000 N 
ATOM      9  C   UNL     1      -4.608  13.101  22.525  0.00  0.00    +0.000 C 
ATOM     10  O   UNL     1      -4.564  12.266  23.430  0.00  0.00    +0.000 OA
BRANCH   8  11
ATOM     11  C   UNL     1      -3.879  14.853  24.174  0.00  0.00    +0.000 C 
ATOM     12  C   UNL     1      -4.245  16.276  24.654  0.00  0.00    +0.000 C 
BRANCH  11  14
ATOM     13  C   UNL     1      -1.751  15.352  25.553  0.00  0.00    +0.000 C 
ATOM     14  C   UNL     1      -2.356  14.676  24.337  0.00  0.00    +0.000 C 
ENDBRANCH  11  14
ENDBRANCH   8  11
BRANCH   8  15
ATOM     15  C   UNL     1      -4.695  15.573  21.909  0.00  0.00    +0.000 C 
BRANCH  15  16
ATOM     16  C   UNL     1      -3.565  16.173  21.119  0.00  0.00    +0.000 A 
ATOM     17  C   UNL     1      -2.321  15.566  20.984  0.00  0.00    +0.000 A 
ATOM     18  C   UNL     1      -1.391  16.074  20.088  0.00  0.00    +0.000 A 
ATOM     19  C   UNL     1      -1.714  17.215  19.375  0.00  0.00    +0.000 A 
ATOM     20  N   UNL     1      -2.885  17.877  19.519  0.00  0.00    +0.000 NA
ATOM     21  C   UNL     1      -3.780  17.338  20.377  0.00  0.00    +0.000 A 
ENDBRANCH  15  16
ENDBRANCH   8  15
ENDBRANCH   1   9
BRANCH   7  22
ATOM     22  O   UNL     1      -2.893  12.435  19.623  0.00  0.00    +0.000 OA
BRANCH  22  23
ATOM     23  C   UNL     1      -1.817  11.800  20.187  0.00  0.00    +0.000 A 
ATOM     24  C   UNL     1      -1.416  12.003  21.505  0.00  0.00    +0.000 A 
ATOM     25  C   UNL     1      -0.206  11.472  21.950  0.00  0.00    +0.000 A 
ATOM     26  C   UNL     1       0.586  10.708  21.098  0.00  0.00    +0.000 A 
ATOM     27  C   UNL     1       0.139  10.403  19.815  0.00  0.00    +0.000 A 
ATOM     28 CL   UNL     1       1.148   9.399  18.837  0.00  0.00    +0.000 Cl
ATOM     29  C   UNL     1      -1.076  10.934  19.356  0.00  0.00    +0.000 A 
ATOM     30 CL   UNL     1      -1.650  10.581  17.756  0.00  0.00    +0.000 Cl
ENDBRANCH  22  23
ENDBRANCH   7  22
TORSDOF 7
ENDMDL
MODEL 9
REMARK VINA RESULT:      -6.5      7.698     11.766
REMARK  Name = 
REMARK  11 active torsions:
REMARK  status: ('A' for Active; 'I' for Inactive)
REMARK    1  A    between atoms: C_1  and  C_2
REMARK    2  A    between atoms: C_2  and  C_3
REMARK    3  A    between atoms: C_3  and  C_4
REMARK    4  A    between atoms: C_3  and  N_5
REMARK    5  A    between atoms: N_5  and  C_6
REMARK    6  A    between atoms: C_6  and  C_7
REMARK    7  A    between atoms: C_13  and  C_15
REMARK    8  A    between atoms: C_16  and  C_17
REMARK    9  A    between atoms: N_19  and  C_20
REMARK   10  A    between atoms: C_21  and  O_22
REMARK   11  A    between atoms: O_22  and  C_23
REMARK                            x       y       z     vdW  Elec       q    Type
REMARK                         _______ _______ _______ _____ _____    ______ ____
ROOT
ATOM      1  C   UNL     1      -0.391  12.403  21.073  0.00  0.00    +0.000 A 
ATOM      2  C   UNL     1      -0.558  11.069  21.595  0.00  0.00    +0.000 A 
ATOM      3  C   UNL     1      -0.755  10.602  22.997  0.00  0.00    +0.000 C 
ATOM      4  N   UNL     1      -0.537  10.142  20.636  0.00  0.00    +0.000 NA
ATOM      5  N   UNL     1      -0.358  10.850  19.517  0.00  0.00    +0.000 N 
ATOM      6  C   UNL     1      -0.423  10.173  18.241  0.00  0.00    +0.000 C 
ATOM      7  C   UNL     1      -0.096  12.189  19.721  0.00  0.00    +0.000 A 
ENDROOT
BRANCH   1   9
ATOM      8  N   UNL     1      -1.607  14.367  22.094  0.00  0.00    +0.000 N 
ATOM      9  C   UNL     1      -0.441  13.599  21.923  0.00  0.00    +0.000 C 
ATOM     10  O   UNL     1       0.581  13.901  22.542  0.00  0.00    +0.000 OA
BRANCH   8  11
ATOM     11  C   UNL     1      -1.535  15.682  22.808  0.00  0.00    +0.000 C 
ATOM     12  C   UNL     1      -1.787  15.640  24.332  0.00  0.00    +0.000 C 
BRANCH  11  14
ATOM     13  C   UNL     1      -3.442  17.389  23.172  0.00  0.00    +0.000 C 
ATOM     14  C   UNL     1      -2.440  16.778  22.209  0.00  0.00    +0.000 C 
ENDBRANCH  11  14
ENDBRANCH   8  11
BRANCH   8  15
ATOM     15  C   UNL     1      -2.948  13.966  21.638  0.00  0.00    +0.000 C 
BRANCH  15  16
ATOM     16  C   UNL     1      -3.976  13.582  22.665  0.00  0.00    +0.000 A 
ATOM     17  C   UNL     1      -5.261  14.113  22.693  0.00  0.00    +0.000 A 
ATOM     18  C   UNL     1      -6.218  13.577  23.544  0.00  0.00    +0.000 A 
ATOM     19  C   UNL     1      -5.850  12.543  24.387  0.00  0.00    +0.000 A 
ATOM     20  N   UNL     1      -4.597  12.037  24.441  0.00  0.00    +0.000 NA
ATOM     21  C   UNL     1      -3.697  12.561  23.577  0.00  0.00    +0.000 A 
ENDBRANCH  15  16
ENDBRANCH   8  15
ENDBRANCH   1   9
BRANCH   7  22
ATOM     22  O   UNL     1       0.283  12.882  18.641  0.00  0.00    +0.000 OA
BRANCH  22  23
ATOM     23  C   UNL     1       1.351  13.735  18.530  0.00  0.00    +0.000 A 
ATOM     24  C   UNL     1       2.644  13.305  18.244  0.00  0.00    +0.000 A 
ATOM     25  C   UNL     1       3.707  14.202  18.335  0.00  0.00    +0.000 A 
ATOM     26  C   UNL     1       3.482  15.533  18.674  0.00  0.00    +0.000 A 
ATOM     27  C   UNL     1       2.182  15.998  18.851  0.00  0.00    +0.000 A 
ATOM     28 CL   UNL     1       1.977  17.675  19.210  0.00  0.00    +0.000 Cl
ATOM     29  C   UNL     1       1.104  15.104  18.763  0.00  0.00    +0.000 A 
ATOM     30 CL   UNL     1      -0.527  15.655  18.991  0.00  0.00    +0.000 Cl
ENDBRANCH  22  23
ENDBRANCH   7  22
TORSDOF 7
ENDMDL
