MODEL 1
REMARK VINA RESULT:      -8.4      0.000      0.000
REMARK  Name = 
REMARK  6 active torsions:
REMARK  status: ('A' for Active; 'I' for Inactive)
REMARK    1  A    between atoms: C_1  and  C_2
REMARK    2  A    between atoms: C_2  and  O_3
REMARK    3  A    between atoms: O_3  and  C_4
REMARK    4  A    between atoms: C_9  and  N_10
REMARK    5  A    between atoms: N_10  and  C_11
REMARK    6  A    between atoms: C_24  and  C_25
REMARK                            x       y       z     vdW  Elec       q    Type
REMARK                         _______ _______ _______ _____ _____    ______ ____
ROOT
ATOM      1  C   UNL     1       3.021   5.318  18.882  0.00  0.00    +0.000 C 
ATOM      2  C   UNL     1       2.323   4.369  19.798  0.00  0.00    +0.000 A 
ATOM      3  C   UNL     1       1.006   4.388  20.236  0.00  0.00    +0.000 A 
ATOM      4  C   UNL     1       0.601   3.415  21.144  0.00  0.00    +0.000 A 
ATOM      5  C   UNL     1       1.513   2.449  21.609  0.00  0.00    +0.000 A 
ATOM      6  C   UNL     1       2.838   2.438  21.159  0.00  0.00    +0.000 A 
ATOM      7  C   UNL     1       3.215   3.408  20.246  0.00  0.00    +0.000 A 
ATOM      8  C   UNL     1       4.501   3.618  19.554  0.00  0.00    +0.000 C 
ATOM      9  O   UNL     1       5.452   2.876  19.737  0.00  0.00    +0.000 OA
ATOM     10  N   UNL     1       4.337   4.726  18.715  0.00  0.00    +0.000 N 
ATOM     11  C   UNL     1       5.120   4.958  17.549  0.00  0.00    +0.000 A 
ATOM     12  C   UNL     1       4.821   6.009  16.683  0.00  0.00    +0.000 A 
ATOM     13  C   UNL     1       5.448   6.122  15.443  0.00  0.00    +0.000 A 
ATOM     14  C   UNL     1       6.381   5.171  15.064  0.00  0.00    +0.000 A 
ATOM     15  C   UNL     1       7.011   5.201  13.709  0.00  0.00    +0.000 C 
ATOM     16  C   UNL     1       6.703   4.210  16.011  0.00  0.00    +0.000 A 
ATOM     17  N   UNL     1       6.097   4.089  17.222  0.00  0.00    +0.000 NA
ENDROOT
BRANCH   1  18
ATOM     18  N   UNL     1       3.119   6.570  19.602  0.00  0.00    +0.000 N 
ATOM     19  H   UNL     1       4.064   6.767  19.914  0.00  0.00    +0.000 HD
BRANCH  18  25
ATOM     20  C   UNL     1       1.492   8.378  20.096  0.00  0.00    +0.000 A 
ATOM     21  C   UNL     1       0.710   9.431  19.597  0.00  0.00    +0.000 A 
ATOM     22  C   UNL     1       0.763   9.773  18.245  0.00  0.00    +0.000 A 
ATOM     23  C   UNL     1       1.627   9.104  17.388  0.00  0.00    +0.000 A 
ATOM     24  C   UNL     1       2.436   8.083  17.882  0.00  0.00    +0.000 A 
ATOM     25  C   UNL     1       2.367   7.682  19.228  0.00  0.00    +0.000 A 
BRANCH  20  26
ATOM     26  O   UNL     1       1.461   8.023  21.427  0.00  0.00    +0.000 OA
BRANCH  26  28
ATOM     27  C   UNL     1       0.006   9.192  22.957  0.00  0.00    +0.000 C 
ATOM     28  C   UNL     1       1.393   9.130  22.336  0.00  0.00    +0.000 C 
ENDBRANCH  26  28
ENDBRANCH  20  26
ENDBRANCH  18  25
ENDBRANCH   1  18
TORSDOF 4
ENDMDL
MODEL 2
REMARK VINA RESULT:      -7.3      2.088      5.510
REMARK  Name = 
REMARK  6 active torsions:
REMARK  status: ('A' for Active; 'I' for Inactive)
REMARK    1  A    between atoms: C_1  and  C_2
REMARK    2  A    between atoms: C_2  and  O_3
REMARK    3  A    between atoms: O_3  and  C_4
REMARK    4  A    between atoms: C_9  and  N_10
REMARK    5  A    between atoms: N_10  and  C_11
REMARK    6  A    between atoms: C_24  and  C_25
REMARK                            x       y       z     vdW  Elec       q    Type
REMARK                         _______ _______ _______ _____ _____    ______ ____
ROOT
ATOM      1  C   UNL     1       2.218   6.885  20.123  0.00  0.00    +0.000 C 
ATOM      2  C   UNL     1       1.500   8.175  20.347  0.00  0.00    +0.000 A 
ATOM      3  C   UNL     1       0.831   8.615  21.480  0.00  0.00    +0.000 A 
ATOM      4  C   UNL     1       0.185   9.847  21.424  0.00  0.00    +0.000 A 
ATOM      5  C   UNL     1       0.205  10.610  20.242  0.00  0.00    +0.000 A 
ATOM      6  C   UNL     1       0.886  10.157  19.106  0.00  0.00    +0.000 A 
ATOM      7  C   UNL     1       1.532   8.936  19.190  0.00  0.00    +0.000 A 
ATOM      8  C   UNL     1       2.368   8.230  18.199  0.00  0.00    +0.000 C 
ATOM      9  O   UNL     1       2.595   8.708  17.101  0.00  0.00    +0.000 OA
ATOM     10  N   UNL     1       2.800   7.043  18.802  0.00  0.00    +0.000 N 
ATOM     11  C   UNL     1       3.976   6.342  18.414  0.00  0.00    +0.000 A 
ATOM     12  C   UNL     1       4.424   5.238  19.139  0.00  0.00    +0.000 A 
ATOM     13  C   UNL     1       5.675   4.673  18.892  0.00  0.00    +0.000 A 
ATOM     14  C   UNL     1       6.487   5.219  17.912  0.00  0.00    +0.000 A 
ATOM     15  C   UNL     1       7.869   4.704  17.675  0.00  0.00    +0.000 C 
ATOM     16  C   UNL     1       5.941   6.252  17.163  0.00  0.00    +0.000 A 
ATOM     17  N   UNL     1       4.724   6.812  17.396  0.00  0.00    +0.000 NA
ENDROOT
BRANCH   1  18
ATOM     18  N   UNL     1       1.198   5.858  20.105  0.00  0.00    +0.000 N 
ATOM     19  H   UNL     1       0.496   6.019  19.391  0.00  0.00    +0.000 HD
BRANCH  18  25
ATOM     20  C   UNL     1       1.208   3.460  19.465  0.00  0.00    +0.000 A 
ATOM     21  C   UNL     1       1.483   2.138  19.846  0.00  0.00    +0.000 A 
ATOM     22  C   UNL     1       2.019   1.860  21.104  0.00  0.00    +0.000 A 
ATOM     23  C   UNL     1       2.331   2.896  21.975  0.00  0.00    +0.000 A 
ATOM     24  C   UNL     1       2.098   4.215  21.590  0.00  0.00    +0.000 A 
ATOM     25  C   UNL     1       1.510   4.522  20.350  0.00  0.00    +0.000 A 
BRANCH  20  26
ATOM     26  O   UNL     1       0.682   3.760  18.227  0.00  0.00    +0.000 OA
BRANCH  26  28
ATOM     27  C   UNL     1       2.661   2.969  17.096  0.00  0.00    +0.000 C 
ATOM     28  C   UNL     1       1.657   4.102  17.233  0.00  0.00    +0.000 C 
ENDBRANCH  26  28
ENDBRANCH  20  26
ENDBRANCH  18  25
ENDBRANCH   1  18
TORSDOF 4
ENDMDL
MODEL 3
REMARK VINA RESULT:      -7.3      4.372      8.653
REMARK  Name = 
REMARK  6 active torsions:
REMARK  status: ('A' for Active; 'I' for Inactive)
REMARK    1  A    between atoms: C_1  and  C_2
REMARK    2  A    between atoms: C_2  and  O_3
REMARK    3  A    between atoms: O_3  and  C_4
REMARK    4  A    between atoms: C_9  and  N_10
REMARK    5  A    between atoms: N_10  and  C_11
REMARK    6  A    between atoms: C_24  and  C_25
REMARK                            x       y       z     vdW  Elec       q    Type
REMARK                         _______ _______ _______ _____ _____    ______ ____
ROOT
ATOM      1  C   UNL     1      -0.553  11.446  19.242  0.00  0.00    +0.000 C 
ATOM      2  C   UNL     1      -0.274  12.584  20.168  0.00  0.00    +0.000 A 
ATOM      3  C   UNL     1       0.945  13.035  20.652  0.00  0.00    +0.000 A 
ATOM      4  C   UNL     1       0.943  14.092  21.558  0.00  0.00    +0.000 A 
ATOM      5  C   UNL     1      -0.270  14.671  21.975  0.00  0.00    +0.000 A 
ATOM      6  C   UNL     1      -1.495  14.210  21.477  0.00  0.00    +0.000 A 
ATOM      7  C   UNL     1      -1.466  13.167  20.567  0.00  0.00    +0.000 A 
ATOM      8  C   UNL     1      -2.566  12.511  19.833  0.00  0.00    +0.000 C 
ATOM      9  O   UNL     1      -3.724  12.867  19.970  0.00  0.00    +0.000 OA
ATOM     10  N   UNL     1      -1.986  11.531  19.019  0.00  0.00    +0.000 N 
ATOM     11  C   UNL     1      -2.589  11.034  17.830  0.00  0.00    +0.000 A 
ATOM     12  C   UNL     1      -1.902  10.155  16.993  0.00  0.00    +0.000 A 
ATOM     13  C   UNL     1      -2.399   9.823  15.733  0.00  0.00    +0.000 A 
ATOM     14  C   UNL     1      -3.593  10.379  15.304  0.00  0.00    +0.000 A 
ATOM     15  C   UNL     1      -4.117  10.123  13.929  0.00  0.00    +0.000 C 
ATOM     16  C   UNL     1      -4.273  11.166  16.223  0.00  0.00    +0.000 A 
ATOM     17  N   UNL     1      -3.797  11.498  17.453  0.00  0.00    +0.000 NA
ENDROOT
BRANCH   1  18
ATOM     18  N   UNL     1      -0.229  10.243  19.979  0.00  0.00    +0.000 N 
ATOM     19  H   UNL     1      -1.037   9.839  20.440  0.00  0.00    +0.000 HD
BRANCH  18  25
ATOM     20  C   UNL     1       1.288   8.302  20.280  0.00  0.00    +0.000 A 
ATOM     21  C   UNL     1       2.291   7.491  19.728  0.00  0.00    +0.000 A 
ATOM     22  C   UNL     1       2.744   7.713  18.427  0.00  0.00    +0.000 A 
ATOM     23  C   UNL     1       2.173   8.711  17.648  0.00  0.00    +0.000 A 
ATOM     24  C   UNL     1       1.149   9.496  18.175  0.00  0.00    +0.000 A 
ATOM     25  C   UNL     1       0.708   9.330  19.500  0.00  0.00    +0.000 A 
BRANCH  20  26
ATOM     26  O   UNL     1       0.822   8.102  21.562  0.00  0.00    +0.000 OA
BRANCH  26  28
ATOM     27  C   UNL     1       0.061   9.548  23.338  0.00  0.00    +0.000 C 
ATOM     28  C   UNL     1       1.251   9.086  22.512  0.00  0.00    +0.000 C 
ENDBRANCH  26  28
ENDBRANCH  20  26
ENDBRANCH  18  25
ENDBRANCH   1  18
TORSDOF 4
ENDMDL
MODEL 4
REMARK VINA RESULT:      -7.0      4.943      8.759
REMARK  Name = 
REMARK  6 active torsions:
REMARK  status: ('A' for Active; 'I' for Inactive)
REMARK    1  A    between atoms: C_1  and  C_2
REMARK    2  A    between atoms: C_2  and  O_3
REMARK    3  A    between atoms: O_3  and  C_4
REMARK    4  A    between atoms: C_9  and  N_10
REMARK    5  A    between atoms: N_10  and  C_11
REMARK    6  A    between atoms: C_24  and  C_25
REMARK                            x       y       z     vdW  Elec       q    Type
REMARK                         _______ _______ _______ _____ _____    ______ ____
ROOT
ATOM      1  C   UNL     1      -0.670  10.726  19.423  0.00  0.00    +0.000 C 
ATOM      2  C   UNL     1       0.413   9.730  19.167  0.00  0.00    +0.000 A 
ATOM      3  C   UNL     1       0.894   9.258  17.954  0.00  0.00    +0.000 A 
ATOM      4  C   UNL     1       1.882   8.279  17.976  0.00  0.00    +0.000 A 
ATOM      5  C   UNL     1       2.364   7.778  19.199  0.00  0.00    +0.000 A 
ATOM      6  C   UNL     1       1.873   8.264  20.417  0.00  0.00    +0.000 A 
ATOM      7  C   UNL     1       0.900   9.247  20.370  0.00  0.00    +0.000 A 
ATOM      8  C   UNL     1       0.239   9.987  21.463  0.00  0.00    +0.000 C 
ATOM      9  O   UNL     1       0.521   9.784  22.632  0.00  0.00    +0.000 OA
ATOM     10  N   UNL     1      -0.647  10.891  20.866  0.00  0.00    +0.000 N 
ATOM     11  C   UNL     1      -1.092  12.091  21.489  0.00  0.00    +0.000 A 
ATOM     12  C   UNL     1      -1.871  13.014  20.791  0.00  0.00    +0.000 A 
ATOM     13  C   UNL     1      -2.139  14.276  21.320  0.00  0.00    +0.000 A 
ATOM     14  C   UNL     1      -1.620  14.620  22.557  0.00  0.00    +0.000 A 
ATOM     15  C   UNL     1      -1.805  15.991  23.121  0.00  0.00    +0.000 C 
ATOM     16  C   UNL     1      -0.938  13.622  23.240  0.00  0.00    +0.000 A 
ATOM     17  N   UNL     1      -0.669  12.389  22.734  0.00  0.00    +0.000 NA
ENDROOT
BRANCH   1  18
ATOM     18  N   UNL     1      -1.903  10.090  19.008  0.00  0.00    +0.000 N 
ATOM     19  H   UNL     1      -2.498   9.844  19.793  0.00  0.00    +0.000 HD
BRANCH  18  25
ATOM     20  C   UNL     1      -3.713  11.323  17.839  0.00  0.00    +0.000 A 
ATOM     21  C   UNL     1      -4.365  11.591  16.627  0.00  0.00    +0.000 A 
ATOM     22  C   UNL     1      -3.917  11.013  15.438  0.00  0.00    +0.000 A 
ATOM     23  C   UNL     1      -2.789  10.203  15.437  0.00  0.00    +0.000 A 
ATOM     24  C   UNL     1      -2.111   9.962  16.631  0.00  0.00    +0.000 A 
ATOM     25  C   UNL     1      -2.570  10.488  17.852  0.00  0.00    +0.000 A 
BRANCH  20  26
ATOM     26  O   UNL     1      -4.134  11.884  19.026  0.00  0.00    +0.000 OA
BRANCH  26  28
ATOM     27  C   UNL     1      -5.870  12.295  20.651  0.00  0.00    +0.000 C 
ATOM     28  C   UNL     1      -5.551  11.830  19.239  0.00  0.00    +0.000 C 
ENDBRANCH  26  28
ENDBRANCH  20  26
ENDBRANCH  18  25
ENDBRANCH   1  18
TORSDOF 4
ENDMDL
MODEL 5
REMARK VINA RESULT:      -6.8      6.057      9.827
REMARK  Name = 
REMARK  6 active torsions:
REMARK  status: ('A' for Active; 'I' for Inactive)
REMARK    1  A    between atoms: C_1  and  C_2
REMARK    2  A    between atoms: C_2  and  O_3
REMARK    3  A    between atoms: O_3  and  C_4
REMARK    4  A    between atoms: C_9  and  N_10
REMARK    5  A    between atoms: N_10  and  C_11
REMARK    6  A    between atoms: C_24  and  C_25
REMARK                            x       y       z     vdW  Elec       q    Type
REMARK                         _______ _______ _______ _____ _____    ______ ____
ROOT
ATOM      1  C   UNL     1      -2.597  12.640  20.922  0.00  0.00    +0.000 C 
ATOM      2  C   UNL     1      -2.706  13.464  22.163  0.00  0.00    +0.000 A 
ATOM      3  C   UNL     1      -3.721  13.487  23.108  0.00  0.00    +0.000 A 
ATOM      4  C   UNL     1      -3.620  14.392  24.160  0.00  0.00    +0.000 A 
ATOM      5  C   UNL     1      -2.519  15.266  24.245  0.00  0.00    +0.000 A 
ATOM      6  C   UNL     1      -1.500  15.231  23.287  0.00  0.00    +0.000 A 
ATOM      7  C   UNL     1      -1.616  14.314  22.258  0.00  0.00    +0.000 A 
ATOM      8  C   UNL     1      -0.693  14.002  21.149  0.00  0.00    +0.000 C 
ATOM      9  O   UNL     1       0.372  14.582  21.025  0.00  0.00    +0.000 OA
ATOM     10  N   UNL     1      -1.281  12.971  20.406  0.00  0.00    +0.000 N 
ATOM     11  C   UNL     1      -0.545  12.064  19.594  0.00  0.00    +0.000 A 
ATOM     12  C   UNL     1      -1.173  10.978  18.984  0.00  0.00    +0.000 A 
ATOM     13  C   UNL     1      -0.432   9.976  18.358  0.00  0.00    +0.000 A 
ATOM     14  C   UNL     1       0.950  10.058  18.347  0.00  0.00    +0.000 A 
ATOM     15  C   UNL     1       1.787   8.963  17.769  0.00  0.00    +0.000 C 
ATOM     16  C   UNL     1       1.505  11.211  18.884  0.00  0.00    +0.000 A 
ATOM     17  N   UNL     1       0.793  12.194  19.498  0.00  0.00    +0.000 NA
ENDROOT
BRANCH   1  18
ATOM     18  N   UNL     1      -3.626  13.127  20.027  0.00  0.00    +0.000 N 
ATOM     19  H   UNL     1      -3.254  13.710  19.286  0.00  0.00    +0.000 HD
BRANCH  18  25
ATOM     20  C   UNL     1      -4.883  11.725  18.410  0.00  0.00    +0.000 A 
ATOM     21  C   UNL     1      -6.062  11.020  18.126  0.00  0.00    +0.000 A 
ATOM     22  C   UNL     1      -7.086  10.942  19.072  0.00  0.00    +0.000 A 
ATOM     23  C   UNL     1      -6.928  11.525  20.323  0.00  0.00    +0.000 A 
ATOM     24  C   UNL     1      -5.744  12.194  20.627  0.00  0.00    +0.000 A 
ATOM     25  C   UNL     1      -4.717  12.333  19.677  0.00  0.00    +0.000 A 
BRANCH  20  26
ATOM     26  O   UNL     1      -3.856  11.813  17.495  0.00  0.00    +0.000 OA
BRANCH  26  28
ATOM     27  C   UNL     1      -2.788  10.798  15.584  0.00  0.00    +0.000 C 
ATOM     28  C   UNL     1      -4.109  11.146  16.251  0.00  0.00    +0.000 C 
ENDBRANCH  26  28
ENDBRANCH  20  26
ENDBRANCH  18  25
ENDBRANCH   1  18
TORSDOF 4
ENDMDL
MODEL 6
REMARK VINA RESULT:      -6.8      7.404     10.832
REMARK  Name = 
REMARK  6 active torsions:
REMARK  status: ('A' for Active; 'I' for Inactive)
REMARK    1  A    between atoms: C_1  and  C_2
REMARK    2  A    between atoms: C_2  and  O_3
REMARK    3  A    between atoms: O_3  and  C_4
REMARK    4  A    between atoms: C_9  and  N_10
REMARK    5  A    between atoms: N_10  and  C_11
REMARK    6  A    between atoms: C_24  and  C_25
REMARK                            x       y       z     vdW  Elec       q    Type
REMARK                         _______ _______ _______ _____ _____    ______ ____
ROOT
ATOM      1  C   UNL     1      -3.050  11.939  19.403  0.00  0.00    +0.000 C 
ATOM      2  C   UNL     1      -2.917  11.154  18.140  0.00  0.00    +0.000 A 
ATOM      3  C   UNL     1      -1.848  10.389  17.697  0.00  0.00    +0.000 A 
ATOM      4  C   UNL     1      -1.943   9.791  16.444  0.00  0.00    +0.000 A 
ATOM      5  C   UNL     1      -3.092   9.974  15.651  0.00  0.00    +0.000 A 
ATOM      6  C   UNL     1      -4.165  10.745  16.110  0.00  0.00    +0.000 A 
ATOM      7  C   UNL     1      -4.054  11.319  17.364  0.00  0.00    +0.000 A 
ATOM      8  C   UNL     1      -5.022  12.124  18.135  0.00  0.00    +0.000 C 
ATOM      9  O   UNL     1      -6.129  12.382  17.694  0.00  0.00    +0.000 OA
ATOM     10  N   UNL     1      -4.415  12.431  19.359  0.00  0.00    +0.000 N 
ATOM     11  C   UNL     1      -5.139  12.739  20.544  0.00  0.00    +0.000 A 
ATOM     12  C   UNL     1      -4.480  12.908  21.762  0.00  0.00    +0.000 A 
ATOM     13  C   UNL     1      -5.191  13.007  22.958  0.00  0.00    +0.000 A 
ATOM     14  C   UNL     1      -6.573  12.934  22.936  0.00  0.00    +0.000 A 
ATOM     15  C   UNL     1      -7.370  12.945  24.200  0.00  0.00    +0.000 C 
ATOM     16  C   UNL     1      -7.168  12.866  21.684  0.00  0.00    +0.000 A 
ATOM     17  N   UNL     1      -6.486  12.766  20.512  0.00  0.00    +0.000 NA
ENDROOT
BRANCH   1  18
ATOM     18  N   UNL     1      -2.114  13.039  19.290  0.00  0.00    +0.000 N 
ATOM     19  H   UNL     1      -2.444  13.880  19.751  0.00  0.00    +0.000 HD
BRANCH  18  25
ATOM     20  C   UNL     1      -0.084  12.084  20.352  0.00  0.00    +0.000 A 
ATOM     21  C   UNL     1       1.317  12.006  20.363  0.00  0.00    +0.000 A 
ATOM     22  C   UNL     1       2.071  12.685  19.405  0.00  0.00    +0.000 A 
ATOM     23  C   UNL     1       1.439  13.407  18.401  0.00  0.00    +0.000 A 
ATOM     24  C   UNL     1       0.047  13.458  18.359  0.00  0.00    +0.000 A 
ATOM     25  C   UNL     1      -0.738  12.827  19.341  0.00  0.00    +0.000 A 
BRANCH  20  26
ATOM     26  O   UNL     1      -0.851  11.420  21.285  0.00  0.00    +0.000 OA
BRANCH  26  28
ATOM     27  C   UNL     1      -0.416   9.861  23.075  0.00  0.00    +0.000 C 
ATOM     28  C   UNL     1      -0.417  10.084  21.571  0.00  0.00    +0.000 C 
ENDBRANCH  26  28
ENDBRANCH  20  26
ENDBRANCH  18  25
ENDBRANCH   1  18
TORSDOF 4
ENDMDL
MODEL 7
REMARK VINA RESULT:      -6.7      8.096     11.206
REMARK  Name = 
REMARK  6 active torsions:
REMARK  status: ('A' for Active; 'I' for Inactive)
REMARK    1  A    between atoms: C_1  and  C_2
REMARK    2  A    between atoms: C_2  and  O_3
REMARK    3  A    between atoms: O_3  and  C_4
REMARK    4  A    between atoms: C_9  and  N_10
REMARK    5  A    between atoms: N_10  and  C_11
REMARK    6  A    between atoms: C_24  and  C_25
REMARK                            x       y       z     vdW  Elec       q    Type
REMARK                         _______ _______ _______ _____ _____    ______ ____
ROOT
ATOM      1  C   UNL     1      -3.118  11.899  19.220  0.00  0.00    +0.000 C 
ATOM      2  C   UNL     1      -2.991  11.102  17.964  0.00  0.00    +0.000 A 
ATOM      3  C   UNL     1      -1.915  10.351  17.513  0.00  0.00    +0.000 A 
ATOM      4  C   UNL     1      -2.018   9.736  16.269  0.00  0.00    +0.000 A 
ATOM      5  C   UNL     1      -3.181   9.890  15.491  0.00  0.00    +0.000 A 
ATOM      6  C   UNL     1      -4.261  10.648  15.958  0.00  0.00    +0.000 A 
ATOM      7  C   UNL     1      -4.141  11.238  17.204  0.00  0.00    +0.000 A 
ATOM      8  C   UNL     1      -5.111  12.035  17.979  0.00  0.00    +0.000 C 
ATOM      9  O   UNL     1      -6.230  12.268  17.553  0.00  0.00    +0.000 OA
ATOM     10  N   UNL     1      -4.492  12.367  19.190  0.00  0.00    +0.000 N 
ATOM     11  C   UNL     1      -5.204  12.676  20.383  0.00  0.00    +0.000 A 
ATOM     12  C   UNL     1      -4.530  12.870  21.589  0.00  0.00    +0.000 A 
ATOM     13  C   UNL     1      -5.224  12.971  22.794  0.00  0.00    +0.000 A 
ATOM     14  C   UNL     1      -6.606  12.873  22.794  0.00  0.00    +0.000 A 
ATOM     15  C   UNL     1      -7.384  12.885  24.069  0.00  0.00    +0.000 C 
ATOM     16  C   UNL     1      -7.218  12.780  21.552  0.00  0.00    +0.000 A 
ATOM     17  N   UNL     1      -6.552  12.679  20.371  0.00  0.00    +0.000 NA
ENDROOT
BRANCH   1  18
ATOM     18  N   UNL     1      -2.203  13.014  19.080  0.00  0.00    +0.000 N 
ATOM     19  H   UNL     1      -2.678  13.910  19.091  0.00  0.00    +0.000 HD
BRANCH  18  25
ATOM     20  C   UNL     1       0.103  13.890  19.345  0.00  0.00    +0.000 A 
ATOM     21  C   UNL     1       1.367  13.729  19.932  0.00  0.00    +0.000 A 
ATOM     22  C   UNL     1       1.610  12.672  20.810  0.00  0.00    +0.000 A 
ATOM     23  C   UNL     1       0.588  11.794  21.147  0.00  0.00    +0.000 A 
ATOM     24  C   UNL     1      -0.681  11.969  20.598  0.00  0.00    +0.000 A 
ATOM     25  C   UNL     1      -0.942  12.994  19.671  0.00  0.00    +0.000 A 
BRANCH  20  26
ATOM     26  O   UNL     1      -0.163  14.928  18.477  0.00  0.00    +0.000 OA
BRANCH  26  28
ATOM     27  C   UNL     1      -0.598  17.265  18.060  0.00  0.00    +0.000 C 
ATOM     28  C   UNL     1      -0.421  16.186  19.116  0.00  0.00    +0.000 C 
ENDBRANCH  26  28
ENDBRANCH  20  26
ENDBRANCH  18  25
ENDBRANCH   1  18
TORSDOF 4
ENDMDL
MODEL 8
REMARK VINA RESULT:      -6.7      6.206     10.547
REMARK  Name = 
REMARK  6 active torsions:
REMARK  status: ('A' for Active; 'I' for Inactive)
REMARK    1  A    between atoms: C_1  and  C_2
REMARK    2  A    between atoms: C_2  and  O_3
REMARK    3  A    between atoms: O_3  and  C_4
REMARK    4  A    between atoms: C_9  and  N_10
REMARK    5  A    between atoms: N_10  and  C_11
REMARK    6  A    between atoms: C_24  and  C_25
REMARK                            x       y       z     vdW  Elec       q    Type
REMARK                         _______ _______ _______ _____ _____    ______ ____
ROOT
ATOM      1  C   UNL     1      -2.288  11.920  19.055  0.00  0.00    +0.000 C 
ATOM      2  C   UNL     1      -2.675  11.237  17.784  0.00  0.00    +0.000 A 
ATOM      3  C   UNL     1      -1.887  10.488  16.922  0.00  0.00    +0.000 A 
ATOM      4  C   UNL     1      -2.471   9.996  15.758  0.00  0.00    +0.000 A 
ATOM      5  C   UNL     1      -3.822  10.267  15.468  0.00  0.00    +0.000 A 
ATOM      6  C   UNL     1      -4.607  11.022  16.348  0.00  0.00    +0.000 A 
ATOM      7  C   UNL     1      -4.008  11.489  17.504  0.00  0.00    +0.000 A 
ATOM      8  C   UNL     1      -4.579  12.248  18.634  0.00  0.00    +0.000 C 
ATOM      9  O   UNL     1      -5.756  12.564  18.659  0.00  0.00    +0.000 OA
ATOM     10  N   UNL     1      -3.546  12.443  19.559  0.00  0.00    +0.000 N 
ATOM     11  C   UNL     1      -3.760  12.668  20.947  0.00  0.00    +0.000 A 
ATOM     12  C   UNL     1      -2.688  12.723  21.837  0.00  0.00    +0.000 A 
ATOM     13  C   UNL     1      -2.897  12.740  23.216  0.00  0.00    +0.000 A 
ATOM     14  C   UNL     1      -4.190  12.697  23.709  0.00  0.00    +0.000 A 
ATOM     15  C   UNL     1      -4.458  12.622  25.177  0.00  0.00    +0.000 C 
ATOM     16  C   UNL     1      -5.211  12.744  22.770  0.00  0.00    +0.000 A 
ATOM     17  N   UNL     1      -5.020  12.726  21.424  0.00  0.00    +0.000 NA
ENDROOT
BRANCH   1  18
ATOM     18  N   UNL     1      -1.408  13.005  18.674  0.00  0.00    +0.000 N 
ATOM     19  H   UNL     1      -1.910  13.795  18.283  0.00  0.00    +0.000 HD
BRANCH  18  25
ATOM     20  C   UNL     1       0.924  12.582  19.410  0.00  0.00    +0.000 A 
ATOM     21  C   UNL     1       1.970  12.933  20.277  0.00  0.00    +0.000 A 
ATOM     22  C   UNL     1       1.817  13.985  21.182  0.00  0.00    +0.000 A 
ATOM     23  C   UNL     1       0.643  14.726  21.200  0.00  0.00    +0.000 A 
ATOM     24  C   UNL     1      -0.386  14.410  20.316  0.00  0.00    +0.000 A 
ATOM     25  C   UNL     1      -0.281  13.323  19.429  0.00  0.00    +0.000 A 
BRANCH  20  26
ATOM     26  O   UNL     1       1.051  11.550  18.506  0.00  0.00    +0.000 OA
BRANCH  26  28
ATOM     27  C   UNL     1       1.481   9.223  18.030  0.00  0.00    +0.000 C 
ATOM     28  C   UNL     1       1.127  10.246  19.098  0.00  0.00    +0.000 C 
ENDBRANCH  26  28
ENDBRANCH  20  26
ENDBRANCH  18  25
ENDBRANCH   1  18
TORSDOF 4
ENDMDL
MODEL 9
REMARK VINA RESULT:      -6.6      7.608     11.348
REMARK  Name = 
REMARK  6 active torsions:
REMARK  status: ('A' for Active; 'I' for Inactive)
REMARK    1  A    between atoms: C_1  and  C_2
REMARK    2  A    between atoms: C_2  and  O_3
REMARK    3  A    between atoms: O_3  and  C_4
REMARK    4  A    between atoms: C_9  and  N_10
REMARK    5  A    between atoms: N_10  and  C_11
REMARK    6  A    between atoms: C_24  and  C_25
REMARK                            x       y       z     vdW  Elec       q    Type
REMARK                         _______ _______ _______ _____ _____    ______ ____
ROOT
ATOM      1  C   UNL     1      -3.088  12.173  19.761  0.00  0.00    +0.000 C 
ATOM      2  C   UNL     1      -2.875  11.317  18.556  0.00  0.00    +0.000 A 
ATOM      3  C   UNL     1      -1.774  10.543  18.219  0.00  0.00    +0.000 A 
ATOM      4  C   UNL     1      -1.791   9.871  17.001  0.00  0.00    +0.000 A 
ATOM      5  C   UNL     1      -2.895   9.990  16.136  0.00  0.00    +0.000 A 
ATOM      6  C   UNL     1      -4.002  10.772  16.488  0.00  0.00    +0.000 A 
ATOM      7  C   UNL     1      -3.967  11.420  17.710  0.00  0.00    +0.000 A 
ATOM      8  C   UNL     1      -4.987  12.254  18.376  0.00  0.00    +0.000 C 
ATOM      9  O   UNL     1      -6.070  12.469  17.860  0.00  0.00    +0.000 OA
ATOM     10  N   UNL     1      -4.454  12.641  19.611  0.00  0.00    +0.000 N 
ATOM     11  C   UNL     1      -5.247  13.008  20.734  0.00  0.00    +0.000 A 
ATOM     12  C   UNL     1      -4.660  13.256  21.975  0.00  0.00    +0.000 A 
ATOM     13  C   UNL     1      -5.438  13.416  23.121  0.00  0.00    +0.000 A 
ATOM     14  C   UNL     1      -6.817  13.321  23.026  0.00  0.00    +0.000 A 
ATOM     15  C   UNL     1      -7.684  13.394  24.241  0.00  0.00    +0.000 C 
ATOM     16  C   UNL     1      -7.339  13.171  21.750  0.00  0.00    +0.000 A 
ATOM     17  N   UNL     1      -6.591  13.013  20.625  0.00  0.00    +0.000 NA
ENDROOT
BRANCH   1  18
ATOM     18  N   UNL     1      -2.159  13.277  19.636  0.00  0.00    +0.000 N 
ATOM     19  H   UNL     1      -2.338  13.844  18.814  0.00  0.00    +0.000 HD
BRANCH  18  25
ATOM     20  C   UNL     1      -1.087  13.356  21.873  0.00  0.00    +0.000 A 
ATOM     21  C   UNL     1      -0.743  14.131  22.990  0.00  0.00    +0.000 A 
ATOM     22  C   UNL     1      -1.033  15.497  23.021  0.00  0.00    +0.000 A 
ATOM     23  C   UNL     1      -1.624  16.110  21.924  0.00  0.00    +0.000 A 
ATOM     24  C   UNL     1      -1.933  15.355  20.794  0.00  0.00    +0.000 A 
ATOM     25  C   UNL     1      -1.701  13.969  20.755  0.00  0.00    +0.000 A 
BRANCH  20  26
ATOM     26  O   UNL     1      -0.809  12.007  21.817  0.00  0.00    +0.000 OA
BRANCH  26  28
ATOM     27  C   UNL     1      -0.500   9.957  23.052  0.00  0.00    +0.000 C 
ATOM     28  C   UNL     1      -1.285  11.254  22.941  0.00  0.00    +0.000 C 
ENDBRANCH  26  28
ENDBRANCH  20  26
ENDBRANCH  18  25
ENDBRANCH   1  18
TORSDOF 4
ENDMDL
