MODEL 1
REMARK VINA RESULT:      -9.2      0.000      0.000
REMARK  Name = 
REMARK  9 active torsions:
REMARK  status: ('A' for Active; 'I' for Inactive)
REMARK    1  A    between atoms: C_1  and  N_2
REMARK    2  A    between atoms: C_5  and  C_6
REMARK    3  A    between atoms: C_5  and  C_7
REMARK    4  A    between atoms: C_11  and  C_12
REMARK    5  A    between atoms: C_15  and  C_16
REMARK    6  A    between atoms: C_16  and  C_17
REMARK    7  A    between atoms: C_17  and  C_18
REMARK    8  A    between atoms: C_17  and  N_20
REMARK    9  A    between atoms: C_21  and  C_23
REMARK                            x       y       z     vdW  Elec       q    Type
REMARK                         _______ _______ _______ _____ _____    ______ ____
ROOT
ATOM      1  C   UNL     1       1.353   9.271  19.366  0.00  0.00    +0.000 A 
ATOM      2  C   UNL     1       0.491   9.239  20.480  0.00  0.00    +0.000 A 
ATOM      3  C   UNL     1      -0.362  10.305  20.785  0.00  0.00    +0.000 A 
ATOM      4  C   UNL     1      -0.359  11.454  19.992  0.00  0.00    +0.000 A 
ATOM      5  C   UNL     1       0.543  11.517  18.930  0.00  0.00    +0.000 A 
ATOM      6  F   UNL     1       0.599  12.618  18.167  0.00  0.00    +0.000 F 
ATOM      7  C   UNL     1       1.371  10.449  18.607  0.00  0.00    +0.000 A 
ENDROOT
BRANCH   1  18
ATOM      8  C   UNL     1       2.313   4.286  21.273  0.00  0.00    +0.000 C 
ATOM      9  N   UNL     1       3.028   4.620  20.070  0.00  0.00    +0.000 N 
ATOM     10  C   UNL     1       3.932   3.780  19.415  0.00  0.00    +0.000 C 
ATOM     11  O   UNL     1       4.260   2.654  19.753  0.00  0.00    +0.000 OA
ATOM     12  C   UNL     1       4.440   4.541  18.162  0.00  0.00    +0.000 C 
ATOM     13  C   UNL     1       5.956   4.720  18.236  0.00  0.00    +0.000 C 
ATOM     14  C   UNL     1       4.022   3.783  16.904  0.00  0.00    +0.000 C 
ATOM     15  C   UNL     1       3.718   5.862  18.283  0.00  0.00    +0.000 A 
ATOM     16  C   UNL     1       3.769   6.982  17.476  0.00  0.00    +0.000 A 
ATOM     17  C   UNL     1       3.001   8.096  17.840  0.00  0.00    +0.000 A 
ATOM     18  C   UNL     1       2.172   8.097  18.991  0.00  0.00    +0.000 A 
ATOM     19  C   UNL     1       2.129   6.927  19.771  0.00  0.00    +0.000 A 
ATOM     20  C   UNL     1       2.907   5.843  19.413  0.00  0.00    +0.000 A 
ENDBRANCH   1  18
BRANCH   4  21
ATOM     21  C   UNL     1      -1.321  12.589  20.252  0.00  0.00    +0.000 C 
BRANCH  21  22
ATOM     22  C   UNL     1      -1.762  12.701  21.729  0.00  0.00    +0.000 C 
BRANCH  22  23
ATOM     23  N   UNL     1      -3.185  13.021  21.819  0.00  0.00    +0.000 N 
ATOM     24  C   UNL     1      -3.954  12.594  22.875  0.00  0.00    +0.000 C 
ATOM     25  O   UNL     1      -3.508  11.873  23.765  0.00  0.00    +0.000 OA
ATOM     26  H   UNL     1      -3.632  13.648  21.152  0.00  0.00    +0.000 HD
BRANCH  24  27
ATOM     27  C   UNL     1      -5.437  13.025  22.806  0.00  0.00    +0.000 C 
ATOM     28  C   UNL     1      -5.568  14.499  22.369  0.00  0.00    +0.000 C 
ATOM     29  C   UNL     1      -7.044  14.909  22.331  0.00  0.00    +0.000 C 
ATOM     30  C   UNL     1      -7.916  13.708  22.727  0.00  0.00    +0.000 C 
ATOM     31  C   UNL     1      -7.550  13.281  24.156  0.00  0.00    +0.000 C 
ATOM     32  C   UNL     1      -6.081  12.844  24.195  0.00  0.00    +0.000 C 
ATOM     33  C   UNL     1      -7.597  12.541  21.775  0.00  0.00    +0.000 C 
ATOM     34  N   UNL     1      -6.172  12.159  21.831  0.00  0.00    +0.000 NA
ATOM     35  H   UNL     1      -5.767  12.312  20.904  0.00  0.00    +0.000 HD
ENDBRANCH  24  27
ENDBRANCH  22  23
BRANCH  22  36
ATOM     36  C   UNL     1      -0.946  13.713  22.439  0.00  0.00    +0.000 C 
ATOM     37  N   UNL     1      -0.308  14.504  22.999  0.00  0.00    +0.000 NA
ENDBRANCH  22  36
ENDBRANCH  21  22
ENDBRANCH   4  21
TORSDOF 6
ENDMDL
MODEL 2
REMARK VINA RESULT:      -9.1      0.591      1.125
REMARK  Name = 
REMARK  9 active torsions:
REMARK  status: ('A' for Active; 'I' for Inactive)
REMARK    1  A    between atoms: C_1  and  N_2
REMARK    2  A    between atoms: C_5  and  C_6
REMARK    3  A    between atoms: C_5  and  C_7
REMARK    4  A    between atoms: C_11  and  C_12
REMARK    5  A    between atoms: C_15  and  C_16
REMARK    6  A    between atoms: C_16  and  C_17
REMARK    7  A    between atoms: C_17  and  C_18
REMARK    8  A    between atoms: C_17  and  N_20
REMARK    9  A    between atoms: C_21  and  C_23
REMARK                            x       y       z     vdW  Elec       q    Type
REMARK                         _______ _______ _______ _____ _____    ______ ____
ROOT
ATOM      1  C   UNL     1       1.301   9.224  19.400  0.00  0.00    +0.000 A 
ATOM      2  C   UNL     1       0.450   9.192  20.523  0.00  0.00    +0.000 A 
ATOM      3  C   UNL     1      -0.418  10.247  20.822  0.00  0.00    +0.000 A 
ATOM      4  C   UNL     1      -0.441  11.386  20.015  0.00  0.00    +0.000 A 
ATOM      5  C   UNL     1       0.450  11.450  18.944  0.00  0.00    +0.000 A 
ATOM      6  F   UNL     1       0.479  12.542  18.167  0.00  0.00    +0.000 F 
ATOM      7  C   UNL     1       1.292  10.392  18.626  0.00  0.00    +0.000 A 
ENDROOT
BRANCH   1  18
ATOM      8  C   UNL     1       2.266   4.233  21.290  0.00  0.00    +0.000 C 
ATOM      9  N   UNL     1       3.000   4.581  20.102  0.00  0.00    +0.000 N 
ATOM     10  C   UNL     1       3.923   3.753  19.457  0.00  0.00    +0.000 C 
ATOM     11  O   UNL     1       4.253   2.628  19.794  0.00  0.00    +0.000 OA
ATOM     12  C   UNL     1       4.448   4.527  18.219  0.00  0.00    +0.000 C 
ATOM     13  C   UNL     1       5.960   4.718  18.322  0.00  0.00    +0.000 C 
ATOM     14  C   UNL     1       4.058   3.775  16.948  0.00  0.00    +0.000 C 
ATOM     15  C   UNL     1       3.712   5.841  18.336  0.00  0.00    +0.000 A 
ATOM     16  C   UNL     1       3.769   6.968  17.538  0.00  0.00    +0.000 A 
ATOM     17  C   UNL     1       2.985   8.073  17.895  0.00  0.00    +0.000 A 
ATOM     18  C   UNL     1       2.136   8.059  19.031  0.00  0.00    +0.000 A 
ATOM     19  C   UNL     1       2.088   6.884  19.803  0.00  0.00    +0.000 A 
ATOM     20  C   UNL     1       2.882   5.809  19.451  0.00  0.00    +0.000 A 
ENDBRANCH   1  18
BRANCH   4  21
ATOM     21  C   UNL     1      -1.420  12.507  20.270  0.00  0.00    +0.000 C 
BRANCH  21  22
ATOM     22  C   UNL     1      -1.787  12.682  21.761  0.00  0.00    +0.000 C 
BRANCH  22  23
ATOM     23  N   UNL     1      -3.179  13.105  21.903  0.00  0.00    +0.000 N 
ATOM     24  C   UNL     1      -3.949  12.700  22.967  0.00  0.00    +0.000 C 
ATOM     25  O   UNL     1      -3.535  11.917  23.820  0.00  0.00    +0.000 OA
ATOM     26  H   UNL     1      -3.595  13.786  21.270  0.00  0.00    +0.000 HD
BRANCH  24  27
ATOM     27  C   UNL     1      -5.397  13.242  22.955  0.00  0.00    +0.000 C 
ATOM     28  C   UNL     1      -6.187  12.744  24.183  0.00  0.00    +0.000 C 
ATOM     29  C   UNL     1      -7.624  13.275  24.137  0.00  0.00    +0.000 C 
ATOM     30  C   UNL     1      -7.804  14.148  22.885  0.00  0.00    +0.000 C 
ATOM     31  C   UNL     1      -7.548  13.284  21.640  0.00  0.00    +0.000 C 
ATOM     32  C   UNL     1      -6.103  12.772  21.667  0.00  0.00    +0.000 C 
ATOM     33  C   UNL     1      -6.754  15.272  22.921  0.00  0.00    +0.000 C 
ATOM     34  N   UNL     1      -5.377  14.739  22.960  0.00  0.00    +0.000 NA
ATOM     35  H   UNL     1      -4.943  15.047  23.834  0.00  0.00    +0.000 HD
ENDBRANCH  24  27
ENDBRANCH  22  23
BRANCH  22  36
ATOM     36  C   UNL     1      -0.872  13.649  22.411  0.00  0.00    +0.000 C 
ATOM     37  N   UNL     1      -0.157  14.410  22.918  0.00  0.00    +0.000 NA
ENDBRANCH  22  36
ENDBRANCH  21  22
ENDBRANCH   4  21
TORSDOF 6
ENDMDL
MODEL 3
REMARK VINA RESULT:      -8.8      3.109      5.194
REMARK  Name = 
REMARK  9 active torsions:
REMARK  status: ('A' for Active; 'I' for Inactive)
REMARK    1  A    between atoms: C_1  and  N_2
REMARK    2  A    between atoms: C_5  and  C_6
REMARK    3  A    between atoms: C_5  and  C_7
REMARK    4  A    between atoms: C_11  and  C_12
REMARK    5  A    between atoms: C_15  and  C_16
REMARK    6  A    between atoms: C_16  and  C_17
REMARK    7  A    between atoms: C_17  and  C_18
REMARK    8  A    between atoms: C_17  and  N_20
REMARK    9  A    between atoms: C_21  and  C_23
REMARK                            x       y       z     vdW  Elec       q    Type
REMARK                         _______ _______ _______ _____ _____    ______ ____
ROOT
ATOM      1  C   UNL     1       0.933   8.838  20.685  0.00  0.00    +0.000 A 
ATOM      2  C   UNL     1       1.085   9.098  22.062  0.00  0.00    +0.000 A 
ATOM      3  C   UNL     1       0.296  10.043  22.726  0.00  0.00    +0.000 A 
ATOM      4  C   UNL     1      -0.657  10.781  22.022  0.00  0.00    +0.000 A 
ATOM      5  C   UNL     1      -0.761  10.575  20.645  0.00  0.00    +0.000 A 
ATOM      6  F   UNL     1      -1.641  11.289  19.930  0.00  0.00    +0.000 F 
ATOM      7  C   UNL     1       0.000   9.617  19.988  0.00  0.00    +0.000 A 
ENDROOT
BRANCH   1  18
ATOM      8  C   UNL     1       2.244   3.665  21.649  0.00  0.00    +0.000 C 
ATOM      9  N   UNL     1       2.756   4.197  20.413  0.00  0.00    +0.000 N 
ATOM     10  C   UNL     1       3.555   3.495  19.507  0.00  0.00    +0.000 C 
ATOM     11  O   UNL     1       3.946   2.345  19.617  0.00  0.00    +0.000 OA
ATOM     12  C   UNL     1       3.849   4.449  18.319  0.00  0.00    +0.000 C 
ATOM     13  C   UNL     1       5.354   4.671  18.184  0.00  0.00    +0.000 C 
ATOM     14  C   UNL     1       3.245   3.870  17.042  0.00  0.00    +0.000 C 
ATOM     15  C   UNL     1       3.138   5.712  18.748  0.00  0.00    +0.000 A 
ATOM     16  C   UNL     1       3.047   6.940  18.121  0.00  0.00    +0.000 A 
ATOM     17  C   UNL     1       2.332   7.960  18.763  0.00  0.00    +0.000 A 
ATOM     18  C   UNL     1       1.697   7.762  20.015  0.00  0.00    +0.000 A 
ATOM     19  C   UNL     1       1.792   6.490  20.608  0.00  0.00    +0.000 A 
ATOM     20  C   UNL     1       2.517   5.499  19.974  0.00  0.00    +0.000 A 
ENDBRANCH   1  18
BRANCH   4  21
ATOM     21  C   UNL     1      -1.574  11.753  22.725  0.00  0.00    +0.000 C 
BRANCH  21  22
ATOM     22  C   UNL     1      -1.305  13.230  22.362  0.00  0.00    +0.000 C 
BRANCH  22  23
ATOM     23  N   UNL     1      -0.098  13.350  21.548  0.00  0.00    +0.000 N 
ATOM     24  C   UNL     1      -0.013  14.249  20.512  0.00  0.00    +0.000 C 
ATOM     25  O   UNL     1      -0.961  14.956  20.174  0.00  0.00    +0.000 OA
ATOM     26  H   UNL     1       0.752  12.837  21.779  0.00  0.00    +0.000 HD
BRANCH  24  27
ATOM     27  C   UNL     1       1.337  14.238  19.759  0.00  0.00    +0.000 C 
ATOM     28  C   UNL     1       1.448  15.439  18.798  0.00  0.00    +0.000 C 
ATOM     29  C   UNL     1       2.783  15.393  18.047  0.00  0.00    +0.000 C 
ATOM     30  C   UNL     1       3.586  14.168  18.512  0.00  0.00    +0.000 C 
ATOM     31  C   UNL     1       2.783  12.899  18.186  0.00  0.00    +0.000 C 
ATOM     32  C   UNL     1       1.457  12.926  18.956  0.00  0.00    +0.000 C 
ATOM     33  C   UNL     1       3.763  14.253  20.038  0.00  0.00    +0.000 C 
ATOM     34  N   UNL     1       2.465  14.291  20.741  0.00  0.00    +0.000 NA
ATOM     35  H   UNL     1       2.404  15.180  21.245  0.00  0.00    +0.000 HD
ENDBRANCH  24  27
ENDBRANCH  22  23
BRANCH  22  36
ATOM     36  C   UNL     1      -1.200  14.056  23.588  0.00  0.00    +0.000 C 
ATOM     37  N   UNL     1      -1.121  14.704  24.547  0.00  0.00    +0.000 NA
ENDBRANCH  22  36
ENDBRANCH  21  22
ENDBRANCH   4  21
TORSDOF 6
ENDMDL
MODEL 4
REMARK VINA RESULT:      -8.8      1.070      1.347
REMARK  Name = 
REMARK  9 active torsions:
REMARK  status: ('A' for Active; 'I' for Inactive)
REMARK    1  A    between atoms: C_1  and  N_2
REMARK    2  A    between atoms: C_5  and  C_6
REMARK    3  A    between atoms: C_5  and  C_7
REMARK    4  A    between atoms: C_11  and  C_12
REMARK    5  A    between atoms: C_15  and  C_16
REMARK    6  A    between atoms: C_16  and  C_17
REMARK    7  A    between atoms: C_17  and  C_18
REMARK    8  A    between atoms: C_17  and  N_20
REMARK    9  A    between atoms: C_21  and  C_23
REMARK                            x       y       z     vdW  Elec       q    Type
REMARK                         _______ _______ _______ _____ _____    ______ ____
ROOT
ATOM      1  C   UNL     1       1.320   8.930  19.494  0.00  0.00    +0.000 A 
ATOM      2  C   UNL     1       0.616   8.879  20.714  0.00  0.00    +0.000 A 
ATOM      3  C   UNL     1      -0.319   9.857  21.068  0.00  0.00    +0.000 A 
ATOM      4  C   UNL     1      -0.560  10.937  20.216  0.00  0.00    +0.000 A 
ATOM      5  C   UNL     1       0.186  11.027  19.041  0.00  0.00    +0.000 A 
ATOM      6  F   UNL     1       0.006  12.067  18.215  0.00  0.00    +0.000 F 
ATOM      7  C   UNL     1       1.094  10.042  18.673  0.00  0.00    +0.000 A 
ENDROOT
BRANCH   1  18
ATOM      8  C   UNL     1       2.625   3.953  21.208  0.00  0.00    +0.000 C 
ATOM      9  N   UNL     1       3.325   4.388  20.028  0.00  0.00    +0.000 N 
ATOM     10  C   UNL     1       4.295   3.644  19.350  0.00  0.00    +0.000 C 
ATOM     11  O   UNL     1       4.701   2.532  19.646  0.00  0.00    +0.000 OA
ATOM     12  C   UNL     1       4.758   4.491  18.136  0.00  0.00    +0.000 C 
ATOM     13  C   UNL     1       6.255   4.778  18.236  0.00  0.00    +0.000 C 
ATOM     14  C   UNL     1       4.407   3.759  16.843  0.00  0.00    +0.000 C 
ATOM     15  C   UNL     1       3.939   5.750  18.302  0.00  0.00    +0.000 A 
ATOM     16  C   UNL     1       3.915   6.904  17.542  0.00  0.00    +0.000 A 
ATOM     17  C   UNL     1       3.064   7.943  17.942  0.00  0.00    +0.000 A 
ATOM     18  C   UNL     1       2.227   7.835  19.081  0.00  0.00    +0.000 A 
ATOM     19  C   UNL     1       2.262   6.634  19.812  0.00  0.00    +0.000 A 
ATOM     20  C   UNL     1       3.121   5.626  19.420  0.00  0.00    +0.000 A 
ENDBRANCH   1  18
BRANCH   4  21
ATOM     21  C   UNL     1      -1.618  11.967  20.536  0.00  0.00    +0.000 C 
BRANCH  21  22
ATOM     22  C   UNL     1      -1.442  12.624  21.924  0.00  0.00    +0.000 C 
BRANCH  22  23
ATOM     23  N   UNL     1      -2.563  13.514  22.218  0.00  0.00    +0.000 N 
ATOM     24  C   UNL     1      -3.569  13.146  23.079  0.00  0.00    +0.000 C 
ATOM     25  O   UNL     1      -3.616  12.033  23.600  0.00  0.00    +0.000 OA
ATOM     26  H   UNL     1      -2.588  14.471  21.868  0.00  0.00    +0.000 HD
BRANCH  24  27
ATOM     27  C   UNL     1      -4.673  14.211  23.272  0.00  0.00    +0.000 C 
ATOM     28  C   UNL     1      -5.077  14.843  21.924  0.00  0.00    +0.000 C 
ATOM     29  C   UNL     1      -6.153  15.912  22.144  0.00  0.00    +0.000 C 
ATOM     30  C   UNL     1      -6.492  15.993  23.640  0.00  0.00    +0.000 C 
ATOM     31  C   UNL     1      -5.225  16.391  24.412  0.00  0.00    +0.000 C 
ATOM     32  C   UNL     1      -4.152  15.312  24.218  0.00  0.00    +0.000 C 
ATOM     33  C   UNL     1      -6.932  14.597  24.115  0.00  0.00    +0.000 C 
ATOM     34  N   UNL     1      -5.878  13.584  23.900  0.00  0.00    +0.000 NA
ATOM     35  H   UNL     1      -6.243  12.882  23.251  0.00  0.00    +0.000 HD
ENDBRANCH  24  27
ENDBRANCH  22  23
BRANCH  22  36
ATOM     36  C   UNL     1      -0.155  13.353  21.995  0.00  0.00    +0.000 C 
ATOM     37  N   UNL     1       0.855  13.922  22.048  0.00  0.00    +0.000 NA
ENDBRANCH  22  36
ENDBRANCH  21  22
ENDBRANCH   4  21
TORSDOF 6
ENDMDL
MODEL 5
REMARK VINA RESULT:      -8.7      1.906      2.815
REMARK  Name = 
REMARK  9 active torsions:
REMARK  status: ('A' for Active; 'I' for Inactive)
REMARK    1  A    between atoms: C_1  and  N_2
REMARK    2  A    between atoms: C_5  and  C_6
REMARK    3  A    between atoms: C_5  and  C_7
REMARK    4  A    between atoms: C_11  and  C_12
REMARK    5  A    between atoms: C_15  and  C_16
REMARK    6  A    between atoms: C_16  and  C_17
REMARK    7  A    between atoms: C_17  and  C_18
REMARK    8  A    between atoms: C_17  and  N_20
REMARK    9  A    between atoms: C_21  and  C_23
REMARK                            x       y       z     vdW  Elec       q    Type
REMARK                         _______ _______ _______ _____ _____    ______ ____
ROOT
ATOM      1  C   UNL     1       1.243   8.555  20.344  0.00  0.00    +0.000 A 
ATOM      2  C   UNL     1       1.152   9.608  19.410  0.00  0.00    +0.000 A 
ATOM      3  C   UNL     1       0.737  10.891  19.782  0.00  0.00    +0.000 A 
ATOM      4  C   UNL     1       0.373  11.154  21.104  0.00  0.00    +0.000 A 
ATOM      5  C   UNL     1       0.395  10.098  22.015  0.00  0.00    +0.000 A 
ATOM      6  F   UNL     1       0.020  10.306  23.284  0.00  0.00    +0.000 F 
ATOM      7  C   UNL     1       0.835   8.830  21.656  0.00  0.00    +0.000 A 
ENDROOT
BRANCH   1  18
ATOM      8  C   UNL     1       4.657   6.542  16.642  0.00  0.00    +0.000 C 
ATOM      9  N   UNL     1       4.083   5.564  17.529  0.00  0.00    +0.000 N 
ATOM     10  C   UNL     1       4.326   4.190  17.473  0.00  0.00    +0.000 C 
ATOM     11  O   UNL     1       5.042   3.607  16.676  0.00  0.00    +0.000 OA
ATOM     12  C   UNL     1       3.520   3.534  18.625  0.00  0.00    +0.000 C 
ATOM     13  C   UNL     1       2.518   2.529  18.059  0.00  0.00    +0.000 C 
ATOM     14  C   UNL     1       4.485   2.877  19.609  0.00  0.00    +0.000 C 
ATOM     15  C   UNL     1       2.824   4.726  19.239  0.00  0.00    +0.000 A 
ATOM     16  C   UNL     1       1.940   4.793  20.298  0.00  0.00    +0.000 A 
ATOM     17  C   UNL     1       1.420   6.045  20.649  0.00  0.00    +0.000 A 
ATOM     18  C   UNL     1       1.785   7.232  19.964  0.00  0.00    +0.000 A 
ATOM     19  C   UNL     1       2.708   7.124  18.908  0.00  0.00    +0.000 A 
ATOM     20  C   UNL     1       3.197   5.880  18.558  0.00  0.00    +0.000 A 
ENDBRANCH   1  18
BRANCH   4  21
ATOM     21  C   UNL     1      -0.006  12.547  21.549  0.00  0.00    +0.000 C 
BRANCH  21  22
ATOM     22  C   UNL     1      -1.280  12.591  22.424  0.00  0.00    +0.000 C 
BRANCH  22  23
ATOM     23  N   UNL     1      -2.470  12.753  21.592  0.00  0.00    +0.000 N 
ATOM     24  C   UNL     1      -3.733  12.550  22.094  0.00  0.00    +0.000 C 
ATOM     25  O   UNL     1      -3.930  12.164  23.245  0.00  0.00    +0.000 OA
ATOM     26  H   UNL     1      -2.409  13.112  20.640  0.00  0.00    +0.000 HD
BRANCH  24  27
ATOM     27  C   UNL     1      -4.874  12.766  21.074  0.00  0.00    +0.000 C 
ATOM     28  C   UNL     1      -4.446  12.321  19.660  0.00  0.00    +0.000 C 
ATOM     29  C   UNL     1      -5.584  12.567  18.663  0.00  0.00    +0.000 C 
ATOM     30  C   UNL     1      -6.790  13.164  19.404  0.00  0.00    +0.000 C 
ATOM     31  C   UNL     1      -6.371  14.504  20.028  0.00  0.00    +0.000 C 
ATOM     32  C   UNL     1      -5.252  14.262  21.047  0.00  0.00    +0.000 C 
ATOM     33  C   UNL     1      -7.189  12.203  20.537  0.00  0.00    +0.000 C 
ATOM     34  N   UNL     1      -6.081  11.985  21.489  0.00  0.00    +0.000 NA
ATOM     35  H   UNL     1      -5.837  10.991  21.468  0.00  0.00    +0.000 HD
ENDBRANCH  24  27
ENDBRANCH  22  23
BRANCH  22  36
ATOM     36  C   UNL     1      -1.184  13.676  23.427  0.00  0.00    +0.000 C 
ATOM     37  N   UNL     1      -1.105  14.525  24.214  0.00  0.00    +0.000 NA
ENDBRANCH  22  36
ENDBRANCH  21  22
ENDBRANCH   4  21
TORSDOF 6
ENDMDL
MODEL 6
REMARK VINA RESULT:      -8.7      1.302      2.207
REMARK  Name = 
REMARK  9 active torsions:
REMARK  status: ('A' for Active; 'I' for Inactive)
REMARK    1  A    between atoms: C_1  and  N_2
REMARK    2  A    between atoms: C_5  and  C_6
REMARK    3  A    between atoms: C_5  and  C_7
REMARK    4  A    between atoms: C_11  and  C_12
REMARK    5  A    between atoms: C_15  and  C_16
REMARK    6  A    between atoms: C_16  and  C_17
REMARK    7  A    between atoms: C_17  and  C_18
REMARK    8  A    between atoms: C_17  and  N_20
REMARK    9  A    between atoms: C_21  and  C_23
REMARK                            x       y       z     vdW  Elec       q    Type
REMARK                         _______ _______ _______ _____ _____    ______ ____
ROOT
ATOM      1  C   UNL     1       1.288   8.622  20.080  0.00  0.00    +0.000 A 
ATOM      2  C   UNL     1       0.614   8.862  21.295  0.00  0.00    +0.000 A 
ATOM      3  C   UNL     1       0.005  10.090  21.571  0.00  0.00    +0.000 A 
ATOM      4  C   UNL     1       0.074  11.131  20.643  0.00  0.00    +0.000 A 
ATOM      5  C   UNL     1       0.799  10.919  19.470  0.00  0.00    +0.000 A 
ATOM      6  F   UNL     1       0.916  11.907  18.572  0.00  0.00    +0.000 F 
ATOM      7  C   UNL     1       1.381   9.691  19.180  0.00  0.00    +0.000 A 
ENDROOT
BRANCH   1  18
ATOM      8  C   UNL     1       4.735   6.479  16.483  0.00  0.00    +0.000 C 
ATOM      9  N   UNL     1       4.156   5.534  17.401  0.00  0.00    +0.000 N 
ATOM     10  C   UNL     1       4.401   4.159  17.398  0.00  0.00    +0.000 C 
ATOM     11  O   UNL     1       5.125   3.548  16.628  0.00  0.00    +0.000 OA
ATOM     12  C   UNL     1       3.588   3.544  18.567  0.00  0.00    +0.000 C 
ATOM     13  C   UNL     1       2.592   2.517  18.031  0.00  0.00    +0.000 C 
ATOM     14  C   UNL     1       4.546   2.926  19.583  0.00  0.00    +0.000 C 
ATOM     15  C   UNL     1       2.885   4.757  19.131  0.00  0.00    +0.000 A 
ATOM     16  C   UNL     1       1.992   4.862  20.180  0.00  0.00    +0.000 A 
ATOM     17  C   UNL     1       1.467   6.125  20.480  0.00  0.00    +0.000 A 
ATOM     18  C   UNL     1       1.836   7.286  19.754  0.00  0.00    +0.000 A 
ATOM     19  C   UNL     1       2.768   7.141  18.710  0.00  0.00    +0.000 A 
ATOM     20  C   UNL     1       3.261   5.886  18.411  0.00  0.00    +0.000 A 
ENDBRANCH   1  18
BRANCH   4  21
ATOM     21  C   UNL     1      -0.638  12.442  20.881  0.00  0.00    +0.000 C 
BRANCH  21  22
ATOM     22  C   UNL     1      -1.589  12.418  22.098  0.00  0.00    +0.000 C 
BRANCH  22  23
ATOM     23  N   UNL     1      -2.966  12.674  21.682  0.00  0.00    +0.000 N 
ATOM     24  C   UNL     1      -4.021  12.528  22.550  0.00  0.00    +0.000 C 
ATOM     25  O   UNL     1      -3.875  12.118  23.700  0.00  0.00    +0.000 OA
ATOM     26  H   UNL     1      -3.180  13.059  20.763  0.00  0.00    +0.000 HD
BRANCH  24  27
ATOM     27  C   UNL     1      -5.406  12.841  21.939  0.00  0.00    +0.000 C 
ATOM     28  C   UNL     1      -5.489  12.359  20.475  0.00  0.00    +0.000 C 
ATOM     29  C   UNL     1      -6.861  12.703  19.884  0.00  0.00    +0.000 C 
ATOM     30  C   UNL     1      -7.715  13.402  20.953  0.00  0.00    +0.000 C 
ATOM     31  C   UNL     1      -7.011  14.701  21.374  0.00  0.00    +0.000 C 
ATOM     32  C   UNL     1      -5.649  14.364  21.992  0.00  0.00    +0.000 C 
ATOM     33  C   UNL     1      -7.809  12.480  22.181  0.00  0.00    +0.000 C 
ATOM     34  N   UNL     1      -6.477  12.167  22.738  0.00  0.00    +0.000 NA
ATOM     35  H   UNL     1      -6.335  11.156  22.668  0.00  0.00    +0.000 HD
ENDBRANCH  24  27
ENDBRANCH  22  23
BRANCH  22  36
ATOM     36  C   UNL     1      -1.153  13.400  23.117  0.00  0.00    +0.000 C 
ATOM     37  N   UNL     1      -0.816  14.171  23.917  0.00  0.00    +0.000 NA
ENDBRANCH  22  36
ENDBRANCH  21  22
ENDBRANCH   4  21
TORSDOF 6
ENDMDL
MODEL 7
REMARK VINA RESULT:      -8.7      2.739      4.410
REMARK  Name = 
REMARK  9 active torsions:
REMARK  status: ('A' for Active; 'I' for Inactive)
REMARK    1  A    between atoms: C_1  and  N_2
REMARK    2  A    between atoms: C_5  and  C_6
REMARK    3  A    between atoms: C_5  and  C_7
REMARK    4  A    between atoms: C_11  and  C_12
REMARK    5  A    between atoms: C_15  and  C_16
REMARK    6  A    between atoms: C_16  and  C_17
REMARK    7  A    between atoms: C_17  and  C_18
REMARK    8  A    between atoms: C_17  and  N_20
REMARK    9  A    between atoms: C_21  and  C_23
REMARK                            x       y       z     vdW  Elec       q    Type
REMARK                         _______ _______ _______ _____ _____    ______ ____
ROOT
ATOM      1  C   UNL     1       1.072   8.542  20.613  0.00  0.00    +0.000 A 
ATOM      2  C   UNL     1       0.529   9.606  19.863  0.00  0.00    +0.000 A 
ATOM      3  C   UNL     1      -0.130  10.678  20.472  0.00  0.00    +0.000 A 
ATOM      4  C   UNL     1      -0.288  10.707  21.859  0.00  0.00    +0.000 A 
ATOM      5  C   UNL     1       0.186   9.622  22.598  0.00  0.00    +0.000 A 
ATOM      6  F   UNL     1       0.022   9.599  23.927  0.00  0.00    +0.000 F 
ATOM      7  C   UNL     1       0.866   8.569  21.998  0.00  0.00    +0.000 A 
ENDROOT
BRANCH   1  18
ATOM      8  C   UNL     1       2.266   3.337  21.559  0.00  0.00    +0.000 C 
ATOM      9  N   UNL     1       2.853   3.884  20.363  0.00  0.00    +0.000 N 
ATOM     10  C   UNL     1       3.694   3.188  19.491  0.00  0.00    +0.000 C 
ATOM     11  O   UNL     1       4.065   2.030  19.603  0.00  0.00    +0.000 OA
ATOM     12  C   UNL     1       4.065   4.157  18.339  0.00  0.00    +0.000 C 
ATOM     13  C   UNL     1       5.579   4.362  18.292  0.00  0.00    +0.000 C 
ATOM     14  C   UNL     1       3.528   3.608  17.019  0.00  0.00    +0.000 C 
ATOM     15  C   UNL     1       3.346   5.421  18.749  0.00  0.00    +0.000 A 
ATOM     16  C   UNL     1       3.304   6.660  18.139  0.00  0.00    +0.000 A 
ATOM     17  C   UNL     1       2.567   7.679  18.757  0.00  0.00    +0.000 A 
ATOM     18  C   UNL     1       1.859   7.468  19.968  0.00  0.00    +0.000 A 
ATOM     19  C   UNL     1       1.906   6.185  20.543  0.00  0.00    +0.000 A 
ATOM     20  C   UNL     1       2.654   5.195  19.935  0.00  0.00    +0.000 A 
ENDBRANCH   1  18
BRANCH   4  21
ATOM     21  C   UNL     1      -0.928  11.887  22.551  0.00  0.00    +0.000 C 
BRANCH  21  22
ATOM     22  C   UNL     1      -1.992  12.607  21.692  0.00  0.00    +0.000 C 
BRANCH  22  23
ATOM     23  N   UNL     1      -1.594  13.989  21.431  0.00  0.00    +0.000 N 
ATOM     24  C   UNL     1      -1.179  14.396  20.186  0.00  0.00    +0.000 C 
ATOM     25  O   UNL     1      -1.060  13.616  19.243  0.00  0.00    +0.000 OA
ATOM     26  H   UNL     1      -1.701  14.715  22.138  0.00  0.00    +0.000 HD
BRANCH  24  27
ATOM     27  C   UNL     1      -0.798  15.891  20.093  0.00  0.00    +0.000 C 
ATOM     28  C   UNL     1       0.525  16.080  19.321  0.00  0.00    +0.000 C 
ATOM     29  C   UNL     1       0.893  17.567  19.263  0.00  0.00    +0.000 C 
ATOM     30  C   UNL     1      -0.188  18.388  19.981  0.00  0.00    +0.000 C 
ATOM     31  C   UNL     1      -0.251  17.944  21.450  0.00  0.00    +0.000 C 
ATOM     32  C   UNL     1      -0.646  16.464  21.517  0.00  0.00    +0.000 C 
ATOM     33  C   UNL     1      -1.546  18.085  19.323  0.00  0.00    +0.000 C 
ATOM     34  N   UNL     1      -1.884  16.649  19.396  0.00  0.00    +0.000 NA
ATOM     35  H   UNL     1      -1.955  16.292  18.439  0.00  0.00    +0.000 HD
ENDBRANCH  24  27
ENDBRANCH  22  23
BRANCH  22  36
ATOM     36  C   UNL     1      -3.316  12.553  22.353  0.00  0.00    +0.000 C 
ATOM     37  N   UNL     1      -4.356  12.513  22.867  0.00  0.00    +0.000 NA
ENDBRANCH  22  36
ENDBRANCH  21  22
ENDBRANCH   4  21
TORSDOF 6
ENDMDL
MODEL 8
REMARK VINA RESULT:      -8.7      8.114     11.500
REMARK  Name = 
REMARK  9 active torsions:
REMARK  status: ('A' for Active; 'I' for Inactive)
REMARK    1  A    between atoms: C_1  and  N_2
REMARK    2  A    between atoms: C_5  and  C_6
REMARK    3  A    between atoms: C_5  and  C_7
REMARK    4  A    between atoms: C_11  and  C_12
REMARK    5  A    between atoms: C_15  and  C_16
REMARK    6  A    between atoms: C_16  and  C_17
REMARK    7  A    between atoms: C_17  and  C_18
REMARK    8  A    between atoms: C_17  and  N_20
REMARK    9  A    between atoms: C_21  and  C_23
REMARK                            x       y       z     vdW  Elec       q    Type
REMARK                         _______ _______ _______ _____ _____    ______ ____
ROOT
ATOM      1  C   UNL     1       8.545   9.112  18.521  0.00  0.00    +0.000 A 
ATOM      2  C   UNL     1       7.740   9.000  17.369  0.00  0.00    +0.000 A 
ATOM      3  C   UNL     1       7.150   7.788  16.995  0.00  0.00    +0.000 A 
ATOM      4  C   UNL     1       7.371   6.637  17.754  0.00  0.00    +0.000 A 
ATOM      5  C   UNL     1       8.223   6.729  18.855  0.00  0.00    +0.000 A 
ATOM      6  F   UNL     1       8.485   5.638  19.588  0.00  0.00    +0.000 F 
ATOM      7  C   UNL     1       8.787   7.938  19.246  0.00  0.00    +0.000 A 
ENDROOT
BRANCH   1  18
ATOM      8  C   UNL     1       7.559  14.361  17.583  0.00  0.00    +0.000 C 
ATOM      9  N   UNL     1       8.625  14.104  18.516  0.00  0.00    +0.000 N 
ATOM     10  C   UNL     1       9.400  15.086  19.139  0.00  0.00    +0.000 C 
ATOM     11  O   UNL     1       9.304  16.294  18.993  0.00  0.00    +0.000 OA
ATOM     12  C   UNL     1      10.405  14.356  20.068  0.00  0.00    +0.000 C 
ATOM     13  C   UNL     1      11.838  14.684  19.650  0.00  0.00    +0.000 C 
ATOM     14  C   UNL     1      10.135  14.750  21.518  0.00  0.00    +0.000 C 
ATOM     15  C   UNL     1      10.071  12.905  19.813  0.00  0.00    +0.000 A 
ATOM     16  C   UNL     1      10.637  11.756  20.331  0.00  0.00    +0.000 A 
ATOM     17  C   UNL     1      10.140  10.519  19.899  0.00  0.00    +0.000 A 
ATOM     18  C   UNL     1       9.075  10.419  18.967  0.00  0.00    +0.000 A 
ATOM     19  C   UNL     1       8.509  11.613  18.484  0.00  0.00    +0.000 A 
ATOM     20  C   UNL     1       9.022  12.825  18.902  0.00  0.00    +0.000 A 
ENDBRANCH   1  18
BRANCH   4  21
ATOM     21  C   UNL     1       6.687   5.333  17.418  0.00  0.00    +0.000 C 
BRANCH  21  22
ATOM     22  C   UNL     1       5.364   5.510  16.639  0.00  0.00    +0.000 C 
BRANCH  22  23
ATOM     23  N   UNL     1       4.231   5.044  17.436  0.00  0.00    +0.000 N 
ATOM     24  C   UNL     1       4.404   4.216  18.519  0.00  0.00    +0.000 C 
ATOM     25  O   UNL     1       5.505   3.774  18.841  0.00  0.00    +0.000 OA
ATOM     26  H   UNL     1       3.287   5.391  17.271  0.00  0.00    +0.000 HD
BRANCH  24  27
ATOM     27  C   UNL     1       3.096   3.823  19.243  0.00  0.00    +0.000 C 
ATOM     28  C   UNL     1       2.349   5.071  19.757  0.00  0.00    +0.000 C 
ATOM     29  C   UNL     1       1.069   4.654  20.491  0.00  0.00    +0.000 C 
ATOM     30  C   UNL     1       0.940   3.124  20.461  0.00  0.00    +0.000 C 
ATOM     31  C   UNL     1       2.153   2.512  21.179  0.00  0.00    +0.000 C 
ATOM     32  C   UNL     1       3.435   2.902  20.433  0.00  0.00    +0.000 C 
ATOM     33  C   UNL     1       0.962   2.663  18.992  0.00  0.00    +0.000 C 
ATOM     34  N   UNL     1       2.205   3.069  18.306  0.00  0.00    +0.000 NA
ATOM     35  H   UNL     1       1.951   3.696  17.538  0.00  0.00    +0.000 HD
ENDBRANCH  24  27
ENDBRANCH  22  23
BRANCH  22  36
ATOM     36  C   UNL     1       5.426   4.800  15.341  0.00  0.00    +0.000 C 
ATOM     37  N   UNL     1       5.479   4.245  14.323  0.00  0.00    +0.000 NA
ENDBRANCH  22  36
ENDBRANCH  21  22
ENDBRANCH   4  21
TORSDOF 6
ENDMDL
MODEL 9
REMARK VINA RESULT:      -8.6      3.041      5.430
REMARK  Name = 
REMARK  9 active torsions:
REMARK  status: ('A' for Active; 'I' for Inactive)
REMARK    1  A    between atoms: C_1  and  N_2
REMARK    2  A    between atoms: C_5  and  C_6
REMARK    3  A    between atoms: C_5  and  C_7
REMARK    4  A    between atoms: C_11  and  C_12
REMARK    5  A    between atoms: C_15  and  C_16
REMARK    6  A    between atoms: C_16  and  C_17
REMARK    7  A    between atoms: C_17  and  C_18
REMARK    8  A    between atoms: C_17  and  N_20
REMARK    9  A    between atoms: C_21  and  C_23
REMARK                            x       y       z     vdW  Elec       q    Type
REMARK                         _______ _______ _______ _____ _____    ______ ____
ROOT
ATOM      1  C   UNL     1       1.245   9.014  19.250  0.00  0.00    +0.000 A 
ATOM      2  C   UNL     1       0.879   9.268  20.588  0.00  0.00    +0.000 A 
ATOM      3  C   UNL     1      -0.087  10.223  20.921  0.00  0.00    +0.000 A 
ATOM      4  C   UNL     1      -0.701  10.977  19.919  0.00  0.00    +0.000 A 
ATOM      5  C   UNL     1      -0.290  10.777  18.600  0.00  0.00    +0.000 A 
ATOM      6  F   UNL     1      -0.833  11.507  17.616  0.00  0.00    +0.000 F 
ATOM      7  C   UNL     1       0.647   9.809  18.264  0.00  0.00    +0.000 A 
ENDROOT
BRANCH   1  18
ATOM      8  C   UNL     1       2.591   4.118  21.157  0.00  0.00    +0.000 C 
ATOM      9  N   UNL     1       3.323   4.533  19.989  0.00  0.00    +0.000 N 
ATOM     10  C   UNL     1       4.330   3.791  19.368  0.00  0.00    +0.000 C 
ATOM     11  O   UNL     1       4.748   2.697  19.711  0.00  0.00    +0.000 OA
ATOM     12  C   UNL     1       4.818   4.612  18.145  0.00  0.00    +0.000 C 
ATOM     13  C   UNL     1       6.304   4.934  18.288  0.00  0.00    +0.000 C 
ATOM     14  C   UNL     1       4.528   3.835  16.863  0.00  0.00    +0.000 C 
ATOM     15  C   UNL     1       3.968   5.857  18.245  0.00  0.00    +0.000 A 
ATOM     16  C   UNL     1       3.947   6.988  17.451  0.00  0.00    +0.000 A 
ATOM     17  C   UNL     1       3.061   8.019  17.789  0.00  0.00    +0.000 A 
ATOM     18  C   UNL     1       2.187   7.927  18.902  0.00  0.00    +0.000 A 
ATOM     19  C   UNL     1       2.222   6.749  19.670  0.00  0.00    +0.000 A 
ATOM     20  C   UNL     1       3.114   5.748  19.338  0.00  0.00    +0.000 A 
ENDBRANCH   1  18
BRANCH   4  21
ATOM     21  C   UNL     1      -1.800  11.962  20.241  0.00  0.00    +0.000 C 
BRANCH  21  22
ATOM     22  C   UNL     1      -1.288  13.276  20.873  0.00  0.00    +0.000 C 
BRANCH  22  23
ATOM     23  N   UNL     1       0.016  13.639  20.322  0.00  0.00    +0.000 N 
ATOM     24  C   UNL     1       0.283  14.913  19.882  0.00  0.00    +0.000 C 
ATOM     25  O   UNL     1      -0.571  15.798  19.870  0.00  0.00    +0.000 OA
ATOM     26  H   UNL     1       0.798  12.986  20.332  0.00  0.00    +0.000 HD
BRANCH  24  27
ATOM     27  C   UNL     1       1.713  15.117  19.331  0.00  0.00    +0.000 C 
ATOM     28  C   UNL     1       1.755  16.274  18.311  0.00  0.00    +0.000 C 
ATOM     29  C   UNL     1       3.176  16.441  17.762  0.00  0.00    +0.000 C 
ATOM     30  C   UNL     1       4.102  15.407  18.421  0.00  0.00    +0.000 C 
ATOM     31  C   UNL     1       3.593  13.999  18.078  0.00  0.00    +0.000 C 
ATOM     32  C   UNL     1       2.182  13.816  18.648  0.00  0.00    +0.000 C 
ATOM     33  C   UNL     1       4.027  15.592  19.947  0.00  0.00    +0.000 C 
ATOM     34  N   UNL     1       2.651  15.421  20.456  0.00  0.00    +0.000 NA
ATOM     35  H   UNL     1       2.359  16.305  20.881  0.00  0.00    +0.000 HD
ENDBRANCH  24  27
ENDBRANCH  22  23
BRANCH  22  36
ATOM     36  C   UNL     1      -1.223  13.152  22.348  0.00  0.00    +0.000 C 
ATOM     37  N   UNL     1      -1.170  13.051  23.503  0.00  0.00    +0.000 NA
ENDBRANCH  22  36
ENDBRANCH  21  22
ENDBRANCH   4  21
TORSDOF 6
ENDMDL
