MODEL 1
REMARK VINA RESULT:      -8.5      0.000      0.000
REMARK  Name = 
REMARK  5 active torsions:
REMARK  status: ('A' for Active; 'I' for Inactive)
REMARK    1  A    between atoms: C_1  and  O_2
REMARK    2  A    between atoms: O_2  and  C_3
REMARK    3  A    between atoms: N_10  and  C_11
REMARK    4  A    between atoms: C_22  and  O_23
REMARK    5  A    between atoms: O_23  and  C_24
REMARK                            x       y       z     vdW  Elec       q    Type
REMARK                         _______ _______ _______ _____ _____    ______ ____
ROOT
ATOM      1  C   UNL     1       6.417   4.857  16.012  0.00  0.00    +0.000 A 
ATOM      2  C   UNL     1       5.321   4.010  16.253  0.00  0.00    +0.000 A 
ATOM      3  C   UNL     1       4.226   4.401  17.014  0.00  0.00    +0.000 A 
ATOM      4  N   UNL     1       3.174   3.581  17.098  0.00  0.00    +0.000 NA
ATOM      5  C   UNL     1       2.107   4.044  17.760  0.00  0.00    +0.000 A 
ATOM      6  N   UNL     1       1.994   5.240  18.345  0.00  0.00    +0.000 NA
ATOM      7  C   UNL     1       3.076   6.036  18.292  0.00  0.00    +0.000 A 
ATOM      8  N   UNL     1       3.017   7.308  18.900  0.00  0.00    +0.000 N 
ATOM      9  C   UNL     1       4.256   5.652  17.629  0.00  0.00    +0.000 A 
ATOM     10  C   UNL     1       5.416   6.453  17.506  0.00  0.00    +0.000 A 
ATOM     11  C   UNL     1       6.493   6.078  16.696  0.00  0.00    +0.000 A 
ATOM     12  H   UNL     1       3.766   7.441  19.561  0.00  0.00    +0.000 HD
ENDROOT
BRANCH   8  13
ATOM     13  C   UNL     1       1.954   8.216  18.973  0.00  0.00    +0.000 A 
ATOM     14  C   UNL     1       1.410   8.842  17.833  0.00  0.00    +0.000 A 
ATOM     15  C   UNL     1       0.429   9.835  17.920  0.00  0.00    +0.000 A 
ATOM     16  C   UNL     1      -0.061  10.248  19.160  0.00  0.00    +0.000 A 
ATOM     17  C   UNL     1       0.438   9.625  20.315  0.00  0.00    +0.000 A 
ATOM     18  C   UNL     1       0.209   9.741  21.704  0.00  0.00    +0.000 A 
ATOM     19  N   UNL     1       0.957   8.901  22.422  0.00  0.00    +0.000 NA
ATOM     20  N   UNL     1       1.664   8.245  21.488  0.00  0.00    +0.000 N 
ATOM     21  C   UNL     1       1.415   8.641  20.198  0.00  0.00    +0.000 A 
ATOM     22  H   UNL     1       2.296   7.519  21.796  0.00  0.00    +0.000 HD
ENDBRANCH   8  13
BRANCH   1  24
ATOM     23  C   UNL     1       7.141   4.812  13.763  0.00  0.00    +0.000 C 
ATOM     24  O   UNL     1       7.409   4.505  15.136  0.00  0.00    +0.000 OA
ENDBRANCH   1  24
BRANCH  11  25
ATOM     25  O   UNL     1       7.473   7.028  16.691  0.00  0.00    +0.000 OA
ATOM     26  C   UNL     1       7.808   7.702  17.892  0.00  0.00    +0.000 C 
ENDBRANCH  11  25
TORSDOF 3
ENDMDL
MODEL 2
REMARK VINA RESULT:      -8.2      4.358      7.489
REMARK  Name = 
REMARK  5 active torsions:
REMARK  status: ('A' for Active; 'I' for Inactive)
REMARK    1  A    between atoms: C_1  and  O_2
REMARK    2  A    between atoms: O_2  and  C_3
REMARK    3  A    between atoms: N_10  and  C_11
REMARK    4  A    between atoms: C_22  and  O_23
REMARK    5  A    between atoms: O_23  and  C_24
REMARK                            x       y       z     vdW  Elec       q    Type
REMARK                         _______ _______ _______ _____ _____    ______ ____
ROOT
ATOM      1  C   UNL     1      -0.272  11.025  20.015  0.00  0.00    +0.000 A 
ATOM      2  C   UNL     1       0.560  10.848  18.895  0.00  0.00    +0.000 A 
ATOM      3  C   UNL     1       1.354   9.720  18.725  0.00  0.00    +0.000 A 
ATOM      4  N   UNL     1       2.026   9.573  17.579  0.00  0.00    +0.000 NA
ATOM      5  C   UNL     1       2.698   8.426  17.423  0.00  0.00    +0.000 A 
ATOM      6  N   UNL     1       2.765   7.421  18.301  0.00  0.00    +0.000 NA
ATOM      7  C   UNL     1       2.123   7.602  19.467  0.00  0.00    +0.000 A 
ATOM      8  N   UNL     1       2.165   6.577  20.436  0.00  0.00    +0.000 N 
ATOM      9  C   UNL     1       1.390   8.771  19.745  0.00  0.00    +0.000 A 
ATOM     10  C   UNL     1       0.663   9.010  20.935  0.00  0.00    +0.000 A 
ATOM     11  C   UNL     1      -0.177  10.120  21.080  0.00  0.00    +0.000 A 
ATOM     12  H   UNL     1       2.502   6.915  21.324  0.00  0.00    +0.000 HD
ENDROOT
BRANCH   8  13
ATOM     13  C   UNL     1       2.140   5.187  20.269  0.00  0.00    +0.000 A 
ATOM     14  C   UNL     1       1.000   4.408  20.550  0.00  0.00    +0.000 A 
ATOM     15  C   UNL     1       1.014   3.011  20.495  0.00  0.00    +0.000 A 
ATOM     16  C   UNL     1       2.177   2.322  20.148  0.00  0.00    +0.000 A 
ATOM     17  C   UNL     1       3.325   3.068  19.834  0.00  0.00    +0.000 A 
ATOM     18  C   UNL     1       4.649   2.768  19.442  0.00  0.00    +0.000 A 
ATOM     19  N   UNL     1       5.392   3.860  19.257  0.00  0.00    +0.000 NA
ATOM     20  N   UNL     1       4.539   4.860  19.528  0.00  0.00    +0.000 N 
ATOM     21  C   UNL     1       3.281   4.457  19.899  0.00  0.00    +0.000 A 
ATOM     22  H   UNL     1       4.875   5.809  19.426  0.00  0.00    +0.000 HD
ENDBRANCH   8  13
BRANCH   1  24
ATOM     23  C   UNL     1      -2.294  11.955  19.221  0.00  0.00    +0.000 C 
ATOM     24  O   UNL     1      -1.157  12.067  20.085  0.00  0.00    +0.000 OA
ENDBRANCH   1  24
BRANCH  11  25
ATOM     25  O   UNL     1      -0.812  10.114  22.288  0.00  0.00    +0.000 OA
ATOM     26  C   UNL     1      -0.133   9.644  23.440  0.00  0.00    +0.000 C 
ENDBRANCH  11  25
TORSDOF 3
ENDMDL
MODEL 3
REMARK VINA RESULT:      -8.1      1.357      2.044
REMARK  Name = 
REMARK  5 active torsions:
REMARK  status: ('A' for Active; 'I' for Inactive)
REMARK    1  A    between atoms: C_1  and  O_2
REMARK    2  A    between atoms: O_2  and  C_3
REMARK    3  A    between atoms: N_10  and  C_11
REMARK    4  A    between atoms: C_22  and  O_23
REMARK    5  A    between atoms: O_23  and  C_24
REMARK                            x       y       z     vdW  Elec       q    Type
REMARK                         _______ _______ _______ _____ _____    ______ ____
ROOT
ATOM      1  C   UNL     1       5.982   4.318  16.652  0.00  0.00    +0.000 A 
ATOM      2  C   UNL     1       4.737   3.665  16.599  0.00  0.00    +0.000 A 
ATOM      3  C   UNL     1       3.658   4.048  17.386  0.00  0.00    +0.000 A 
ATOM      4  N   UNL     1       2.477   3.454  17.192  0.00  0.00    +0.000 NA
ATOM      5  C   UNL     1       1.447   3.924  17.905  0.00  0.00    +0.000 A 
ATOM      6  N   UNL     1       1.487   4.923  18.792  0.00  0.00    +0.000 NA
ATOM      7  C   UNL     1       2.690   5.481  19.011  0.00  0.00    +0.000 A 
ATOM      8  N   UNL     1       2.794   6.536  19.942  0.00  0.00    +0.000 N 
ATOM      9  C   UNL     1       3.845   5.063  18.323  0.00  0.00    +0.000 A 
ATOM     10  C   UNL     1       5.132   5.630  18.479  0.00  0.00    +0.000 A 
ATOM     11  C   UNL     1       6.201   5.279  17.649  0.00  0.00    +0.000 A 
ATOM     12  H   UNL     1       3.487   6.344  20.649  0.00  0.00    +0.000 HD
ENDROOT
BRANCH   8  13
ATOM     13  C   UNL     1       1.902   7.581  20.213  0.00  0.00    +0.000 A 
ATOM     14  C   UNL     1       1.060   7.587  21.342  0.00  0.00    +0.000 A 
ATOM     15  C   UNL     1       0.088   8.572  21.547  0.00  0.00    +0.000 A 
ATOM     16  C   UNL     1      -0.084   9.608  20.628  0.00  0.00    +0.000 A 
ATOM     17  C   UNL     1       0.758   9.648  19.504  0.00  0.00    +0.000 A 
ATOM     18  C   UNL     1       0.910  10.498  18.387  0.00  0.00    +0.000 A 
ATOM     19  N   UNL     1       1.884  10.101  17.565  0.00  0.00    +0.000 NA
ATOM     20  N   UNL     1       2.356   8.995  18.163  0.00  0.00    +0.000 N 
ATOM     21  C   UNL     1       1.715   8.654  19.326  0.00  0.00    +0.000 A 
ATOM     22  H   UNL     1       3.138   8.521  17.730  0.00  0.00    +0.000 HD
ENDBRANCH   8  13
BRANCH   1  24
ATOM     23  C   UNL     1       6.741   4.466  14.420  0.00  0.00    +0.000 C 
ATOM     24  O   UNL     1       6.978   4.023  15.760  0.00  0.00    +0.000 OA
ENDBRANCH   1  24
BRANCH  11  25
ATOM     25  O   UNL     1       7.327   5.989  17.952  0.00  0.00    +0.000 OA
ATOM     26  C   UNL     1       7.442   7.339  17.537  0.00  0.00    +0.000 C 
ENDBRANCH  11  25
TORSDOF 3
ENDMDL
MODEL 4
REMARK VINA RESULT:      -7.6      1.292      1.564
REMARK  Name = 
REMARK  5 active torsions:
REMARK  status: ('A' for Active; 'I' for Inactive)
REMARK    1  A    between atoms: C_1  and  O_2
REMARK    2  A    between atoms: O_2  and  C_3
REMARK    3  A    between atoms: N_10  and  C_11
REMARK    4  A    between atoms: C_22  and  O_23
REMARK    5  A    between atoms: O_23  and  C_24
REMARK                            x       y       z     vdW  Elec       q    Type
REMARK                         _______ _______ _______ _____ _____    ______ ____
ROOT
ATOM      1  C   UNL     1       5.185   4.578  17.087  0.00  0.00    +0.000 A 
ATOM      2  C   UNL     1       4.273   3.867  17.888  0.00  0.00    +0.000 A 
ATOM      3  C   UNL     1       3.382   4.499  18.747  0.00  0.00    +0.000 A 
ATOM      4  N   UNL     1       2.469   3.760  19.385  0.00  0.00    +0.000 NA
ATOM      5  C   UNL     1       1.572   4.425  20.123  0.00  0.00    +0.000 A 
ATOM      6  N   UNL     1       1.504   5.749  20.286  0.00  0.00    +0.000 NA
ATOM      7  C   UNL     1       2.456   6.476  19.676  0.00  0.00    +0.000 A 
ATOM      8  N   UNL     1       2.439   7.880  19.818  0.00  0.00    +0.000 N 
ATOM      9  C   UNL     1       3.454   5.885  18.879  0.00  0.00    +0.000 A 
ATOM     10  C   UNL     1       4.462   6.593  18.182  0.00  0.00    +0.000 A 
ATOM     11  C   UNL     1       5.322   5.959  17.279  0.00  0.00    +0.000 A 
ATOM     12  H   UNL     1       3.318   8.231  20.165  0.00  0.00    +0.000 HD
ENDROOT
BRANCH   8  13
ATOM     13  C   UNL     1       1.351   8.760  19.877  0.00  0.00    +0.000 A 
ATOM     14  C   UNL     1       0.742   9.292  18.723  0.00  0.00    +0.000 A 
ATOM     15  C   UNL     1      -0.265  10.260  18.786  0.00  0.00    +0.000 A 
ATOM     16  C   UNL     1      -0.718  10.740  20.016  0.00  0.00    +0.000 A 
ATOM     17  C   UNL     1      -0.153  10.211  21.187  0.00  0.00    +0.000 A 
ATOM     18  C   UNL     1      -0.329  10.412  22.574  0.00  0.00    +0.000 A 
ATOM     19  N   UNL     1       0.474   9.644  23.313  0.00  0.00    +0.000 NA
ATOM     20  N   UNL     1       1.163   8.948  22.394  0.00  0.00    +0.000 N 
ATOM     21  C   UNL     1       0.849   9.249  21.093  0.00  0.00    +0.000 A 
ATOM     22  H   UNL     1       1.830   8.263  22.723  0.00  0.00    +0.000 HD
ENDBRANCH   8  13
BRANCH   1  24
ATOM     23  C   UNL     1       5.587   4.234  14.784  0.00  0.00    +0.000 C 
ATOM     24  O   UNL     1       5.944   3.944  16.140  0.00  0.00    +0.000 OA
ENDBRANCH   1  24
BRANCH  11  25
ATOM     25  O   UNL     1       6.174   6.848  16.689  0.00  0.00    +0.000 OA
ATOM     26  C   UNL     1       7.374   7.216  17.346  0.00  0.00    +0.000 C 
ENDBRANCH  11  25
TORSDOF 3
ENDMDL
MODEL 5
REMARK VINA RESULT:      -7.4      1.622      2.399
REMARK  Name = 
REMARK  5 active torsions:
REMARK  status: ('A' for Active; 'I' for Inactive)
REMARK    1  A    between atoms: C_1  and  O_2
REMARK    2  A    between atoms: O_2  and  C_3
REMARK    3  A    between atoms: N_10  and  C_11
REMARK    4  A    between atoms: C_22  and  O_23
REMARK    5  A    between atoms: O_23  and  C_24
REMARK                            x       y       z     vdW  Elec       q    Type
REMARK                         _______ _______ _______ _____ _____    ______ ____
ROOT
ATOM      1  C   UNL     1       4.622   4.775  16.445  0.00  0.00    +0.000 A 
ATOM      2  C   UNL     1       3.723   3.952  17.147  0.00  0.00    +0.000 A 
ATOM      3  C   UNL     1       3.000   4.400  18.246  0.00  0.00    +0.000 A 
ATOM      4  N   UNL     1       2.080   3.594  18.784  0.00  0.00    +0.000 NA
ATOM      5  C   UNL     1       1.343   4.106  19.776  0.00  0.00    +0.000 A 
ATOM      6  N   UNL     1       1.442   5.340  20.282  0.00  0.00    +0.000 NA
ATOM      7  C   UNL     1       2.401   6.124  19.762  0.00  0.00    +0.000 A 
ATOM      8  N   UNL     1       2.557   7.434  20.261  0.00  0.00    +0.000 N 
ATOM      9  C   UNL     1       3.240   5.689  18.719  0.00  0.00    +0.000 A 
ATOM     10  C   UNL     1       4.245   6.474  18.104  0.00  0.00    +0.000 A 
ATOM     11  C   UNL     1       4.931   6.038  16.966  0.00  0.00    +0.000 A 
ATOM     12  H   UNL     1       3.500   7.607  20.571  0.00  0.00    +0.000 HD
ENDROOT
BRANCH   8  13
ATOM     13  C   UNL     1       1.586   8.352  20.682  0.00  0.00    +0.000 A 
ATOM     14  C   UNL     1       1.220   8.503  22.035  0.00  0.00    +0.000 A 
ATOM     15  C   UNL     1       0.169   9.333  22.439  0.00  0.00    +0.000 A 
ATOM     16  C   UNL     1      -0.566  10.061  21.501  0.00  0.00    +0.000 A 
ATOM     17  C   UNL     1      -0.210   9.955  20.147  0.00  0.00    +0.000 A 
ATOM     18  C   UNL     1      -0.676  10.509  18.934  0.00  0.00    +0.000 A 
ATOM     19  N   UNL     1       0.013  10.084  17.874  0.00  0.00    +0.000 NA
ATOM     20  N   UNL     1       0.925   9.259  18.413  0.00  0.00    +0.000 N 
ATOM     21  C   UNL     1       0.839   9.120  19.775  0.00  0.00    +0.000 A 
ATOM     22  H   UNL     1       1.597   8.827  17.793  0.00  0.00    +0.000 HD
ENDBRANCH   8  13
BRANCH   1  24
ATOM     23  C   UNL     1       6.567   3.937  15.397  0.00  0.00    +0.000 C 
ATOM     24  O   UNL     1       5.204   4.358  15.278  0.00  0.00    +0.000 OA
ENDBRANCH   1  24
BRANCH  11  25
ATOM     25  O   UNL     1       5.813   6.980  16.520  0.00  0.00    +0.000 OA
ATOM     26  C   UNL     1       6.992   7.249  17.259  0.00  0.00    +0.000 C 
ENDBRANCH  11  25
TORSDOF 3
ENDMDL
MODEL 6
REMARK VINA RESULT:      -7.3      3.281      5.255
REMARK  Name = 
REMARK  5 active torsions:
REMARK  status: ('A' for Active; 'I' for Inactive)
REMARK    1  A    between atoms: C_1  and  O_2
REMARK    2  A    between atoms: O_2  and  C_3
REMARK    3  A    between atoms: N_10  and  C_11
REMARK    4  A    between atoms: C_22  and  O_23
REMARK    5  A    between atoms: O_23  and  C_24
REMARK                            x       y       z     vdW  Elec       q    Type
REMARK                         _______ _______ _______ _____ _____    ______ ____
ROOT
ATOM      1  C   UNL     1       6.801   3.804  12.419  0.00  0.00    +0.000 A 
ATOM      2  C   UNL     1       7.444   4.588  13.393  0.00  0.00    +0.000 A 
ATOM      3  C   UNL     1       6.853   4.899  14.612  0.00  0.00    +0.000 A 
ATOM      4  N   UNL     1       7.575   5.549  15.530  0.00  0.00    +0.000 NA
ATOM      5  C   UNL     1       6.997   5.738  16.722  0.00  0.00    +0.000 A 
ATOM      6  N   UNL     1       5.770   5.345  17.079  0.00  0.00    +0.000 NA
ATOM      7  C   UNL     1       5.039   4.734  16.131  0.00  0.00    +0.000 A 
ATOM      8  N   UNL     1       3.733   4.303  16.449  0.00  0.00    +0.000 N 
ATOM      9  C   UNL     1       5.541   4.487  14.840  0.00  0.00    +0.000 A 
ATOM     10  C   UNL     1       4.839   3.818  13.809  0.00  0.00    +0.000 A 
ATOM     11  C   UNL     1       5.455   3.462  12.605  0.00  0.00    +0.000 A 
ATOM     12  H   UNL     1       3.050   4.674  15.807  0.00  0.00    +0.000 HD
ENDROOT
BRANCH   8  13
ATOM     13  C   UNL     1       3.236   3.758  17.639  0.00  0.00    +0.000 A 
ATOM     14  C   UNL     1       3.055   2.373  17.823  0.00  0.00    +0.000 A 
ATOM     15  C   UNL     1       2.449   1.841  18.967  0.00  0.00    +0.000 A 
ATOM     16  C   UNL     1       1.998   2.678  19.989  0.00  0.00    +0.000 A 
ATOM     17  C   UNL     1       2.187   4.062  19.851  0.00  0.00    +0.000 A 
ATOM     18  C   UNL     1       1.895   5.204  20.629  0.00  0.00    +0.000 A 
ATOM     19  N   UNL     1       2.284   6.339  20.046  0.00  0.00    +0.000 NA
ATOM     20  N   UNL     1       2.831   5.920  18.894  0.00  0.00    +0.000 N 
ATOM     21  C   UNL     1       2.792   4.562  18.702  0.00  0.00    +0.000 A 
ATOM     22  H   UNL     1       3.232   6.616  18.280  0.00  0.00    +0.000 HD
ENDBRANCH   8  13
BRANCH   1  24
ATOM     23  C   UNL     1       7.462   1.970  11.085  0.00  0.00    +0.000 C 
ATOM     24  O   UNL     1       7.461   3.386  11.294  0.00  0.00    +0.000 OA
ENDBRANCH   1  24
BRANCH  11  25
ATOM     25  O   UNL     1       4.600   2.782  11.786  0.00  0.00    +0.000 OA
ATOM     26  C   UNL     1       3.785   3.493  10.871  0.00  0.00    +0.000 C 
ENDBRANCH  11  25
TORSDOF 3
ENDMDL
MODEL 7
REMARK VINA RESULT:      -7.3      3.005      6.943
REMARK  Name = 
REMARK  5 active torsions:
REMARK  status: ('A' for Active; 'I' for Inactive)
REMARK    1  A    between atoms: C_1  and  O_2
REMARK    2  A    between atoms: O_2  and  C_3
REMARK    3  A    between atoms: N_10  and  C_11
REMARK    4  A    between atoms: C_22  and  O_23
REMARK    5  A    between atoms: O_23  and  C_24
REMARK                            x       y       z     vdW  Elec       q    Type
REMARK                         _______ _______ _______ _____ _____    ______ ____
ROOT
ATOM      1  C   UNL     1       1.054   8.668  20.757  0.00  0.00    +0.000 A 
ATOM      2  C   UNL     1       1.140   7.337  21.205  0.00  0.00    +0.000 A 
ATOM      3  C   UNL     1       1.788   6.345  20.479  0.00  0.00    +0.000 A 
ATOM      4  N   UNL     1       1.928   5.134  21.027  0.00  0.00    +0.000 NA
ATOM      5  C   UNL     1       2.644   4.242  20.332  0.00  0.00    +0.000 A 
ATOM      6  N   UNL     1       3.226   4.444  19.146  0.00  0.00    +0.000 NA
ATOM      7  C   UNL     1       3.038   5.651  18.586  0.00  0.00    +0.000 A 
ATOM      8  N   UNL     1       3.623   5.920  17.330  0.00  0.00    +0.000 N 
ATOM      9  C   UNL     1       2.298   6.665  19.222  0.00  0.00    +0.000 A 
ATOM     10  C   UNL     1       2.092   7.967  18.705  0.00  0.00    +0.000 A 
ATOM     11  C   UNL     1       1.486   8.976  19.461  0.00  0.00    +0.000 A 
ATOM     12  H   UNL     1       2.940   6.231  16.658  0.00  0.00    +0.000 HD
ENDROOT
BRANCH   8  13
ATOM     13  C   UNL     1       4.862   5.516  16.817  0.00  0.00    +0.000 A 
ATOM     14  C   UNL     1       5.052   5.189  15.459  0.00  0.00    +0.000 A 
ATOM     15  C   UNL     1       6.258   4.674  14.973  0.00  0.00    +0.000 A 
ATOM     16  C   UNL     1       7.341   4.467  15.829  0.00  0.00    +0.000 A 
ATOM     17  C   UNL     1       7.196   4.809  17.183  0.00  0.00    +0.000 A 
ATOM     18  C   UNL     1       8.020   4.764  18.329  0.00  0.00    +0.000 A 
ATOM     19  N   UNL     1       7.405   5.214  19.425  0.00  0.00    +0.000 NA
ATOM     20  N   UNL     1       6.186   5.550  18.974  0.00  0.00    +0.000 N 
ATOM     21  C   UNL     1       5.984   5.318  17.638  0.00  0.00    +0.000 A 
ATOM     22  H   UNL     1       5.533   5.952  19.634  0.00  0.00    +0.000 HD
ENDBRANCH   8  13
BRANCH   1  24
ATOM     23  C   UNL     1      -0.359   9.207  22.573  0.00  0.00    +0.000 C 
ATOM     24  O   UNL     1       0.546   9.655  21.558  0.00  0.00    +0.000 OA
ENDBRANCH   1  24
BRANCH  11  25
ATOM     25  O   UNL     1       1.443  10.157  18.777  0.00  0.00    +0.000 OA
ATOM     26  C   UNL     1       0.203  10.652  18.303  0.00  0.00    +0.000 C 
ENDBRANCH  11  25
TORSDOF 3
ENDMDL
MODEL 8
REMARK VINA RESULT:      -7.3      3.743      7.844
REMARK  Name = 
REMARK  5 active torsions:
REMARK  status: ('A' for Active; 'I' for Inactive)
REMARK    1  A    between atoms: C_1  and  O_2
REMARK    2  A    between atoms: O_2  and  C_3
REMARK    3  A    between atoms: N_10  and  C_11
REMARK    4  A    between atoms: C_22  and  O_23
REMARK    5  A    between atoms: O_23  and  C_24
REMARK                            x       y       z     vdW  Elec       q    Type
REMARK                         _______ _______ _______ _____ _____    ______ ____
ROOT
ATOM      1  C   UNL     1       2.162   4.084  19.278  0.00  0.00    +0.000 A 
ATOM      2  C   UNL     1       2.563   5.411  19.041  0.00  0.00    +0.000 A 
ATOM      3  C   UNL     1       3.517   5.744  18.087  0.00  0.00    +0.000 A 
ATOM      4  N   UNL     1       3.757   7.036  17.840  0.00  0.00    +0.000 NA
ATOM      5  C   UNL     1       4.610   7.306  16.846  0.00  0.00    +0.000 A 
ATOM      6  N   UNL     1       5.247   6.412  16.082  0.00  0.00    +0.000 NA
ATOM      7  C   UNL     1       5.031   5.118  16.371  0.00  0.00    +0.000 A 
ATOM      8  N   UNL     1       5.682   4.129  15.602  0.00  0.00    +0.000 N 
ATOM      9  C   UNL     1       4.159   4.715  17.399  0.00  0.00    +0.000 A 
ATOM     10  C   UNL     1       3.860   3.373  17.732  0.00  0.00    +0.000 A 
ATOM     11  C   UNL     1       2.862   3.043  18.655  0.00  0.00    +0.000 A 
ATOM     12  H   UNL     1       6.206   3.491  16.180  0.00  0.00    +0.000 HD
ENDROOT
BRANCH   8  13
ATOM     13  C   UNL     1       5.970   4.109  14.232  0.00  0.00    +0.000 A 
ATOM     14  C   UNL     1       5.239   3.330  13.313  0.00  0.00    +0.000 A 
ATOM     15  C   UNL     1       5.603   3.220  11.967  0.00  0.00    +0.000 A 
ATOM     16  C   UNL     1       6.721   3.893  11.473  0.00  0.00    +0.000 A 
ATOM     17  C   UNL     1       7.457   4.701  12.355  0.00  0.00    +0.000 A 
ATOM     18  C   UNL     1       8.602   5.521  12.256  0.00  0.00    +0.000 A 
ATOM     19  N   UNL     1       8.924   6.100  13.414  0.00  0.00    +0.000 NA
ATOM     20  N   UNL     1       7.979   5.650  14.254  0.00  0.00    +0.000 N 
ATOM     21  C   UNL     1       7.071   4.790  13.689  0.00  0.00    +0.000 A 
ATOM     22  H   UNL     1       7.998   5.983  15.209  0.00  0.00    +0.000 HD
ENDBRANCH   8  13
BRANCH   1  24
ATOM     23  C   UNL     1       1.483   3.245  21.380  0.00  0.00    +0.000 C 
ATOM     24  O   UNL     1       1.114   3.797  20.111  0.00  0.00    +0.000 OA
ENDBRANCH   1  24
BRANCH  11  25
ATOM     25  O   UNL     1       2.717   1.691  18.776  0.00  0.00    +0.000 OA
ATOM     26  C   UNL     1       3.861   0.871  18.941  0.00  0.00    +0.000 C 
ENDBRANCH  11  25
TORSDOF 3
ENDMDL
MODEL 9
REMARK VINA RESULT:      -7.0      4.192      7.327
REMARK  Name = 
REMARK  5 active torsions:
REMARK  status: ('A' for Active; 'I' for Inactive)
REMARK    1  A    between atoms: C_1  and  O_2
REMARK    2  A    between atoms: O_2  and  C_3
REMARK    3  A    between atoms: N_10  and  C_11
REMARK    4  A    between atoms: C_22  and  O_23
REMARK    5  A    between atoms: O_23  and  C_24
REMARK                            x       y       z     vdW  Elec       q    Type
REMARK                         _______ _______ _______ _____ _____    ______ ____
ROOT
ATOM      1  C   UNL     1      -0.015  10.825  19.635  0.00  0.00    +0.000 A 
ATOM      2  C   UNL     1       0.901  10.505  18.616  0.00  0.00    +0.000 A 
ATOM      3  C   UNL     1       1.651   9.336  18.627  0.00  0.00    +0.000 A 
ATOM      4  N   UNL     1       2.411   9.049  17.565  0.00  0.00    +0.000 NA
ATOM      5  C   UNL     1       3.038   7.867  17.580  0.00  0.00    +0.000 A 
ATOM      6  N   UNL     1       2.981   6.952  18.552  0.00  0.00    +0.000 NA
ATOM      7  C   UNL     1       2.250   7.272  19.633  0.00  0.00    +0.000 A 
ATOM      8  N   UNL     1       2.159   6.347  20.694  0.00  0.00    +0.000 N 
ATOM      9  C   UNL     1       1.553   8.491  19.731  0.00  0.00    +0.000 A 
ATOM     10  C   UNL     1       0.739   8.875  20.823  0.00  0.00    +0.000 A 
ATOM     11  C   UNL     1      -0.056  10.026  20.785  0.00  0.00    +0.000 A 
ATOM     12  H   UNL     1       2.434   6.758  21.573  0.00  0.00    +0.000 HD
ENDROOT
BRANCH   8  13
ATOM     13  C   UNL     1       2.081   4.949  20.658  0.00  0.00    +0.000 A 
ATOM     14  C   UNL     1       2.346   4.144  21.783  0.00  0.00    +0.000 A 
ATOM     15  C   UNL     1       2.383   2.748  21.714  0.00  0.00    +0.000 A 
ATOM     16  C   UNL     1       2.150   2.086  20.507  0.00  0.00    +0.000 A 
ATOM     17  C   UNL     1       1.855   2.857  19.371  0.00  0.00    +0.000 A 
ATOM     18  C   UNL     1       1.562   2.587  18.016  0.00  0.00    +0.000 A 
ATOM     19  N   UNL     1       1.349   3.695  17.303  0.00  0.00    +0.000 NA
ATOM     20  N   UNL     1       1.505   4.675  18.208  0.00  0.00    +0.000 N 
ATOM     21  C   UNL     1       1.827   4.245  19.470  0.00  0.00    +0.000 A 
ATOM     22  H   UNL     1       1.360   5.628  17.902  0.00  0.00    +0.000 HD
ENDBRANCH   8  13
BRANCH   1  24
ATOM     23  C   UNL     1      -0.200  13.152  19.270  0.00  0.00    +0.000 C 
ATOM     24  O   UNL     1      -0.852  11.903  19.525  0.00  0.00    +0.000 OA
ENDBRANCH   1  24
BRANCH  11  25
ATOM     25  O   UNL     1      -0.792  10.166  21.926  0.00  0.00    +0.000 OA
ATOM     26  C   UNL     1      -0.279   9.691  23.159  0.00  0.00    +0.000 C 
ENDBRANCH  11  25
TORSDOF 3
ENDMDL
