MODEL 1
REMARK VINA RESULT:      -7.3      0.000      0.000
REMARK  Name = 
REMARK  9 active torsions:
REMARK  status: ('A' for Active; 'I' for Inactive)
REMARK    1  A    between atoms: C_1  and  C_2
REMARK    2  A    between atoms: C_2  and  C_3
REMARK    3  A    between atoms: C_3  and  O_4
REMARK    4  A    between atoms: C_3  and  C_6
REMARK    5  A    between atoms: C_3  and  C_24
REMARK    6  A    between atoms: O_4  and  C_5
REMARK    7  A    between atoms: C_10  and  O_11
REMARK    8  A    between atoms: O_11  and  C_12
REMARK    9  A    between atoms: C_12  and  C_13
REMARK                            x       y       z     vdW  Elec       q    Type
REMARK                         _______ _______ _______ _____ _____    ______ ____
ROOT
ATOM      1  C   UNL     1      -0.355  11.214  19.713  0.00  0.00    +0.000 A 
ATOM      2  C   UNL     1      -1.692  11.101  19.285  0.00  0.00    +0.000 A 
ATOM      3  C   UNL     1      -2.022  10.424  18.113  0.00  0.00    +0.000 A 
ATOM      4  C   UNL     1      -1.032   9.768  17.392  0.00  0.00    +0.000 A 
ATOM      5  C   UNL     1       0.275   9.741  17.872  0.00  0.00    +0.000 A 
ATOM      6  C   UNL     1       0.617  10.492  18.999  0.00  0.00    +0.000 A 
ENDROOT
BRANCH   1   7
ATOM      7  C   UNL     1       0.006  12.084  20.940  0.00  0.00    +0.000 C 
BRANCH   7   8
ATOM      8  C   UNL     1       1.001  13.175  20.533  0.00  0.00    +0.000 A 
ATOM      9  C   UNL     1       2.304  13.380  20.965  0.00  0.00    +0.000 A 
ATOM     10  N   UNL     1       2.967  14.471  20.433  0.00  0.00    +0.000 NA
ATOM     11  C   UNL     1       2.170  15.090  19.593  0.00  0.00    +0.000 A 
ATOM     12  S   UNL     1       0.607  14.422  19.403  0.00  0.00    +0.000 S 
ENDBRANCH   7   8
BRANCH   7  14
ATOM     13  C   UNL     1      -0.945  13.648  22.804  0.00  0.00    +0.000 C 
ATOM     14  C   UNL     1      -1.245  12.729  21.623  0.00  0.00    +0.000 C 
ENDBRANCH   7  14
BRANCH   7  15
ATOM     15  O   UNL     1       0.724  11.277  21.909  0.00  0.00    +0.000 OA
ATOM     16  C   UNL     1       0.009  10.207  22.521  0.00  0.00    +0.000 C 
ENDBRANCH   7  15
ENDBRANCH   1   7
BRANCH   5  17
ATOM     17  O   UNL     1       1.291   8.998  17.329  0.00  0.00    +0.000 OA
BRANCH  17  18
ATOM     18  C   UNL     1       2.356   8.727  18.244  0.00  0.00    +0.000 C 
BRANCH  18  19
ATOM     19  C   UNL     1       2.290   7.327  18.804  0.00  0.00    +0.000 A 
ATOM     20  C   UNL     1       2.048   7.165  20.175  0.00  0.00    +0.000 A 
ATOM     21  C   UNL     1       1.793   5.902  20.706  0.00  0.00    +0.000 A 
ATOM     22  C   UNL     1       1.766   4.776  19.875  0.00  0.00    +0.000 A 
ATOM     23  C   UNL     1       1.392   3.518  20.369  0.00  0.00    +0.000 A 
ATOM     24  C   UNL     1       1.356   2.407  19.528  0.00  0.00    +0.000 A 
ATOM     25  C   UNL     1       1.740   2.530  18.195  0.00  0.00    +0.000 A 
ATOM     26  C   UNL     1       2.112   3.775  17.688  0.00  0.00    +0.000 A 
ATOM     27  C   UNL     1       2.092   4.915  18.505  0.00  0.00    +0.000 A 
ATOM     28  C   UNL     1       2.347   6.193  17.985  0.00  0.00    +0.000 A 
ENDBRANCH  18  19
ENDBRANCH  17  18
ENDBRANCH   5  17
TORSDOF 7
ENDMDL
MODEL 2
REMARK VINA RESULT:      -7.3      3.596      8.093
REMARK  Name = 
REMARK  9 active torsions:
REMARK  status: ('A' for Active; 'I' for Inactive)
REMARK    1  A    between atoms: C_1  and  C_2
REMARK    2  A    between atoms: C_2  and  C_3
REMARK    3  A    between atoms: C_3  and  O_4
REMARK    4  A    between atoms: C_3  and  C_6
REMARK    5  A    between atoms: C_3  and  C_24
REMARK    6  A    between atoms: O_4  and  C_5
REMARK    7  A    between atoms: C_10  and  O_11
REMARK    8  A    between atoms: O_11  and  C_12
REMARK    9  A    between atoms: C_12  and  C_13
REMARK                            x       y       z     vdW  Elec       q    Type
REMARK                         _______ _______ _______ _____ _____    ______ ____
ROOT
ATOM      1  C   UNL     1       2.805   5.620  19.210  0.00  0.00    +0.000 A 
ATOM      2  C   UNL     1       2.126   5.608  20.444  0.00  0.00    +0.000 A 
ATOM      3  C   UNL     1       1.561   6.768  20.970  0.00  0.00    +0.000 A 
ATOM      4  C   UNL     1       1.582   7.944  20.231  0.00  0.00    +0.000 A 
ATOM      5  C   UNL     1       2.116   7.946  18.944  0.00  0.00    +0.000 A 
ATOM      6  C   UNL     1       2.758   6.806  18.457  0.00  0.00    +0.000 A 
ENDROOT
BRANCH   1   7
ATOM      7  C   UNL     1       3.544   4.357  18.707  0.00  0.00    +0.000 C 
BRANCH   7   8
ATOM      8  C   UNL     1       5.016   4.684  18.441  0.00  0.00    +0.000 A 
ATOM      9  C   UNL     1       5.977   5.177  19.313  0.00  0.00    +0.000 A 
ATOM     10  N   UNL     1       7.236   5.398  18.784  0.00  0.00    +0.000 NA
ATOM     11  C   UNL     1       7.232   5.067  17.513  0.00  0.00    +0.000 A 
ATOM     12  S   UNL     1       5.747   4.494  16.886  0.00  0.00    +0.000 S 
ENDBRANCH   7   8
BRANCH   7  14
ATOM     13  C   UNL     1       3.871   1.800  19.131  0.00  0.00    +0.000 C 
ATOM     14  C   UNL     1       3.433   3.150  19.696  0.00  0.00    +0.000 C 
ENDBRANCH   7  14
BRANCH   7  15
ATOM     15  O   UNL     1       3.014   3.972  17.412  0.00  0.00    +0.000 OA
ATOM     16  C   UNL     1       1.610   3.751  17.323  0.00  0.00    +0.000 C 
ENDBRANCH   7  15
ENDBRANCH   1   7
BRANCH   5  17
ATOM     17  O   UNL     1       2.047   9.002  18.073  0.00  0.00    +0.000 OA
BRANCH  17  18
ATOM     18  C   UNL     1       1.612  10.220  18.681  0.00  0.00    +0.000 C 
BRANCH  18  19
ATOM     19  C   UNL     1       0.121  10.422  18.562  0.00  0.00    +0.000 A 
ATOM     20  C   UNL     1      -0.532  11.184  19.539  0.00  0.00    +0.000 A 
ATOM     21  C   UNL     1      -1.866  11.556  19.376  0.00  0.00    +0.000 A 
ATOM     22  C   UNL     1      -2.570  11.179  18.226  0.00  0.00    +0.000 A 
ATOM     23  C   UNL     1      -3.872  11.645  17.989  0.00  0.00    +0.000 A 
ATOM     24  C   UNL     1      -4.558  11.272  16.833  0.00  0.00    +0.000 A 
ATOM     25  C   UNL     1      -3.971  10.393  15.927  0.00  0.00    +0.000 A 
ATOM     26  C   UNL     1      -2.677   9.924  16.149  0.00  0.00    +0.000 A 
ATOM     27  C   UNL     1      -1.948  10.339  17.274  0.00  0.00    +0.000 A 
ATOM     28  C   UNL     1      -0.605   9.973  17.452  0.00  0.00    +0.000 A 
ENDBRANCH  18  19
ENDBRANCH  17  18
ENDBRANCH   5  17
TORSDOF 7
ENDMDL
MODEL 3
REMARK VINA RESULT:      -7.3      3.465      7.998
REMARK  Name = 
REMARK  9 active torsions:
REMARK  status: ('A' for Active; 'I' for Inactive)
REMARK    1  A    between atoms: C_1  and  C_2
REMARK    2  A    between atoms: C_2  and  C_3
REMARK    3  A    between atoms: C_3  and  O_4
REMARK    4  A    between atoms: C_3  and  C_6
REMARK    5  A    between atoms: C_3  and  C_24
REMARK    6  A    between atoms: O_4  and  C_5
REMARK    7  A    between atoms: C_10  and  O_11
REMARK    8  A    between atoms: O_11  and  C_12
REMARK    9  A    between atoms: C_12  and  C_13
REMARK                            x       y       z     vdW  Elec       q    Type
REMARK                         _______ _______ _______ _____ _____    ______ ____
ROOT
ATOM      1  C   UNL     1       2.812   5.866  19.136  0.00  0.00    +0.000 A 
ATOM      2  C   UNL     1       2.168   5.641  20.368  0.00  0.00    +0.000 A 
ATOM      3  C   UNL     1       1.551   6.680  21.063  0.00  0.00    +0.000 A 
ATOM      4  C   UNL     1       1.486   7.947  20.496  0.00  0.00    +0.000 A 
ATOM      5  C   UNL     1       1.986   8.161  19.214  0.00  0.00    +0.000 A 
ATOM      6  C   UNL     1       2.678   7.141  18.559  0.00  0.00    +0.000 A 
ENDROOT
BRANCH   1   7
ATOM      7  C   UNL     1       3.608   4.732  18.447  0.00  0.00    +0.000 C 
BRANCH   7   8
ATOM      8  C   UNL     1       4.867   5.304  17.789  0.00  0.00    +0.000 A 
ATOM      9  C   UNL     1       5.057   5.736  16.484  0.00  0.00    +0.000 A 
ATOM     10  N   UNL     1       6.323   6.191  16.162  0.00  0.00    +0.000 NA
ATOM     11  C   UNL     1       7.092   6.110  17.223  0.00  0.00    +0.000 A 
ATOM     12  S   UNL     1       6.362   5.485  18.639  0.00  0.00    +0.000 S 
ENDBRANCH   7   8
BRANCH   7  14
ATOM     13  C   UNL     1       3.861   2.164  18.851  0.00  0.00    +0.000 C 
ATOM     14  C   UNL     1       3.992   3.573  19.424  0.00  0.00    +0.000 C 
ENDBRANCH   7  14
BRANCH   7  15
ATOM     15  O   UNL     1       2.829   4.198  17.345  0.00  0.00    +0.000 OA
ATOM     16  C   UNL     1       1.418   4.120  17.523  0.00  0.00    +0.000 C 
ENDBRANCH   7  15
ENDBRANCH   1   7
BRANCH   5  17
ATOM     17  O   UNL     1       1.834   9.323  18.501  0.00  0.00    +0.000 OA
BRANCH  17  18
ATOM     18  C   UNL     1       1.205  10.371  19.241  0.00  0.00    +0.000 C 
BRANCH  18  19
ATOM     19  C   UNL     1      -0.244  10.554  18.860  0.00  0.00    +0.000 A 
ATOM     20  C   UNL     1      -1.061  11.337  19.687  0.00  0.00    +0.000 A 
ATOM     21  C   UNL     1      -2.348  11.690  19.284  0.00  0.00    +0.000 A 
ATOM     22  C   UNL     1      -2.841  11.274  18.041  0.00  0.00    +0.000 A 
ATOM     23  C   UNL     1      -4.083  11.719  17.568  0.00  0.00    +0.000 A 
ATOM     24  C   UNL     1      -4.557  11.308  16.323  0.00  0.00    +0.000 A 
ATOM     25  C   UNL     1      -3.817  10.410  15.558  0.00  0.00    +0.000 A 
ATOM     26  C   UNL     1      -2.578   9.960  16.014  0.00  0.00    +0.000 A 
ATOM     27  C   UNL     1      -2.058  10.414  17.236  0.00  0.00    +0.000 A 
ATOM     28  C   UNL     1      -0.764  10.067  17.655  0.00  0.00    +0.000 A 
ENDBRANCH  18  19
ENDBRANCH  17  18
ENDBRANCH   5  17
TORSDOF 7
ENDMDL
MODEL 4
REMARK VINA RESULT:      -7.3      3.723      8.513
REMARK  Name = 
REMARK  9 active torsions:
REMARK  status: ('A' for Active; 'I' for Inactive)
REMARK    1  A    between atoms: C_1  and  C_2
REMARK    2  A    between atoms: C_2  and  C_3
REMARK    3  A    between atoms: C_3  and  O_4
REMARK    4  A    between atoms: C_3  and  C_6
REMARK    5  A    between atoms: C_3  and  C_24
REMARK    6  A    between atoms: O_4  and  C_5
REMARK    7  A    between atoms: C_10  and  O_11
REMARK    8  A    between atoms: O_11  and  C_12
REMARK    9  A    between atoms: C_12  and  C_13
REMARK                            x       y       z     vdW  Elec       q    Type
REMARK                         _______ _______ _______ _____ _____    ______ ____
ROOT
ATOM      1  C   UNL     1       3.086   6.097  18.862  0.00  0.00    +0.000 A 
ATOM      2  C   UNL     1       3.362   7.067  17.879  0.00  0.00    +0.000 A 
ATOM      3  C   UNL     1       2.707   8.297  17.871  0.00  0.00    +0.000 A 
ATOM      4  C   UNL     1       1.830   8.618  18.899  0.00  0.00    +0.000 A 
ATOM      5  C   UNL     1       1.652   7.736  19.962  0.00  0.00    +0.000 A 
ATOM      6  C   UNL     1       2.242   6.471  19.922  0.00  0.00    +0.000 A 
ENDROOT
BRANCH   1   7
ATOM      7  C   UNL     1       3.720   4.688  18.775  0.00  0.00    +0.000 C 
BRANCH   7   8
ATOM      8  C   UNL     1       5.223   4.806  18.508  0.00  0.00    +0.000 A 
ATOM      9  C   UNL     1       6.230   5.265  19.345  0.00  0.00    +0.000 A 
ATOM     10  N   UNL     1       7.511   5.277  18.823  0.00  0.00    +0.000 NA
ATOM     11  C   UNL     1       7.477   4.823  17.591  0.00  0.00    +0.000 A 
ATOM     12  S   UNL     1       5.938   4.373  16.994  0.00  0.00    +0.000 S 
ENDBRANCH   7   8
BRANCH   7  14
ATOM     13  C   UNL     1       4.057   2.416  20.020  0.00  0.00    +0.000 C 
ATOM     14  C   UNL     1       3.469   3.825  20.056  0.00  0.00    +0.000 C 
ENDBRANCH   7  14
BRANCH   7  15
ATOM     15  O   UNL     1       3.195   3.994  17.614  0.00  0.00    +0.000 OA
ATOM     16  C   UNL     1       1.783   3.813  17.547  0.00  0.00    +0.000 C 
ENDBRANCH   7  15
ENDBRANCH   1   7
BRANCH   5  17
ATOM     17  O   UNL     1       0.938   8.017  21.099  0.00  0.00    +0.000 OA
BRANCH  17  18
ATOM     18  C   UNL     1       1.476   9.100  21.860  0.00  0.00    +0.000 C 
BRANCH  18  19
ATOM     19  C   UNL     1       0.581  10.315  21.842  0.00  0.00    +0.000 A 
ATOM     20  C   UNL     1       0.745  11.253  20.813  0.00  0.00    +0.000 A 
ATOM     21  C   UNL     1      -0.172  12.289  20.643  0.00  0.00    +0.000 A 
ATOM     22  C   UNL     1      -1.277  12.403  21.494  0.00  0.00    +0.000 A 
ATOM     23  C   UNL     1      -2.273  13.363  21.265  0.00  0.00    +0.000 A 
ATOM     24  C   UNL     1      -3.376  13.458  22.113  0.00  0.00    +0.000 A 
ATOM     25  C   UNL     1      -3.472  12.627  23.226  0.00  0.00    +0.000 A 
ATOM     26  C   UNL     1      -2.490  11.666  23.466  0.00  0.00    +0.000 A 
ATOM     27  C   UNL     1      -1.407  11.515  22.587  0.00  0.00    +0.000 A 
ATOM     28  C   UNL     1      -0.476  10.477  22.745  0.00  0.00    +0.000 A 
ENDBRANCH  18  19
ENDBRANCH  17  18
ENDBRANCH   5  17
TORSDOF 7
ENDMDL
MODEL 5
REMARK VINA RESULT:      -7.2      3.656      8.268
REMARK  Name = 
REMARK  9 active torsions:
REMARK  status: ('A' for Active; 'I' for Inactive)
REMARK    1  A    between atoms: C_1  and  C_2
REMARK    2  A    between atoms: C_2  and  C_3
REMARK    3  A    between atoms: C_3  and  O_4
REMARK    4  A    between atoms: C_3  and  C_6
REMARK    5  A    between atoms: C_3  and  C_24
REMARK    6  A    between atoms: O_4  and  C_5
REMARK    7  A    between atoms: C_10  and  O_11
REMARK    8  A    between atoms: O_11  and  C_12
REMARK    9  A    between atoms: C_12  and  C_13
REMARK                            x       y       z     vdW  Elec       q    Type
REMARK                         _______ _______ _______ _____ _____    ______ ____
ROOT
ATOM      1  C   UNL     1       3.382   5.012  18.169  0.00  0.00    +0.000 A 
ATOM      2  C   UNL     1       2.597   3.861  17.967  0.00  0.00    +0.000 A 
ATOM      3  C   UNL     1       1.575   3.518  18.850  0.00  0.00    +0.000 A 
ATOM      4  C   UNL     1       1.256   4.368  19.902  0.00  0.00    +0.000 A 
ATOM      5  C   UNL     1       1.921   5.585  20.037  0.00  0.00    +0.000 A 
ATOM      6  C   UNL     1       3.000   5.884  19.204  0.00  0.00    +0.000 A 
ENDROOT
BRANCH   1   7
ATOM      7  C   UNL     1       4.599   5.303  17.258  0.00  0.00    +0.000 C 
BRANCH   7   8
ATOM      8  C   UNL     1       5.850   5.524  18.113  0.00  0.00    +0.000 A 
ATOM      9  C   UNL     1       6.153   5.025  19.372  0.00  0.00    +0.000 A 
ATOM     10  N   UNL     1       7.364   5.413  19.916  0.00  0.00    +0.000 NA
ATOM     11  C   UNL     1       7.983   6.202  19.068  0.00  0.00    +0.000 A 
ATOM     12  S   UNL     1       7.163   6.528  17.602  0.00  0.00    +0.000 S 
ENDBRANCH   7   8
BRANCH   7  14
ATOM     13  C   UNL     1       5.493   4.634  14.897  0.00  0.00    +0.000 C 
ATOM     14  C   UNL     1       4.860   4.174  16.208  0.00  0.00    +0.000 C 
ENDBRANCH   7  14
BRANCH   7  15
ATOM     15  O   UNL     1       4.397   6.565  16.572  0.00  0.00    +0.000 OA
ATOM     16  C   UNL     1       3.719   7.594  17.287  0.00  0.00    +0.000 C 
ENDBRANCH   7  15
ENDBRANCH   1   7
BRANCH   5  17
ATOM     17  O   UNL     1       1.582   6.563  20.936  0.00  0.00    +0.000 OA
BRANCH  17  18
ATOM     18  C   UNL     1       1.720   7.889  20.421  0.00  0.00    +0.000 C 
BRANCH  18  19
ATOM     19  C   UNL     1       0.733   8.851  21.036  0.00  0.00    +0.000 A 
ATOM     20  C   UNL     1       0.546   8.822  22.425  0.00  0.00    +0.000 A 
ATOM     21  C   UNL     1      -0.207   9.808  23.060  0.00  0.00    +0.000 A 
ATOM     22  C   UNL     1      -0.782  10.848  22.320  0.00  0.00    +0.000 A 
ATOM     23  C   UNL     1      -1.439  11.912  22.954  0.00  0.00    +0.000 A 
ATOM     24  C   UNL     1      -1.996  12.949  22.206  0.00  0.00    +0.000 A 
ATOM     25  C   UNL     1      -1.944  12.909  20.815  0.00  0.00    +0.000 A 
ATOM     26  C   UNL     1      -1.292  11.859  20.171  0.00  0.00    +0.000 A 
ATOM     27  C   UNL     1      -0.671  10.841  20.910  0.00  0.00    +0.000 A 
ATOM     28  C   UNL     1       0.090   9.841  20.284  0.00  0.00    +0.000 A 
ENDBRANCH  18  19
ENDBRANCH  17  18
ENDBRANCH   5  17
TORSDOF 7
ENDMDL
MODEL 6
REMARK VINA RESULT:      -7.2      3.783      8.328
REMARK  Name = 
REMARK  9 active torsions:
REMARK  status: ('A' for Active; 'I' for Inactive)
REMARK    1  A    between atoms: C_1  and  C_2
REMARK    2  A    between atoms: C_2  and  C_3
REMARK    3  A    between atoms: C_3  and  O_4
REMARK    4  A    between atoms: C_3  and  C_6
REMARK    5  A    between atoms: C_3  and  C_24
REMARK    6  A    between atoms: O_4  and  C_5
REMARK    7  A    between atoms: C_10  and  O_11
REMARK    8  A    between atoms: O_11  and  C_12
REMARK    9  A    between atoms: C_12  and  C_13
REMARK                            x       y       z     vdW  Elec       q    Type
REMARK                         _______ _______ _______ _____ _____    ______ ____
ROOT
ATOM      1  C   UNL     1       3.667   4.474  17.613  0.00  0.00    +0.000 A 
ATOM      2  C   UNL     1       2.959   3.314  17.244  0.00  0.00    +0.000 A 
ATOM      3  C   UNL     1       1.871   2.863  17.987  0.00  0.00    +0.000 A 
ATOM      4  C   UNL     1       1.410   3.613  19.062  0.00  0.00    +0.000 A 
ATOM      5  C   UNL     1       2.001   4.839  19.358  0.00  0.00    +0.000 A 
ATOM      6  C   UNL     1       3.144   5.244  18.666  0.00  0.00    +0.000 A 
ENDROOT
BRANCH   1   7
ATOM      7  C   UNL     1       4.955   4.883  16.858  0.00  0.00    +0.000 C 
BRANCH   7   8
ATOM      8  C   UNL     1       6.046   5.272  17.860  0.00  0.00    +0.000 A 
ATOM      9  C   UNL     1       6.196   4.893  19.186  0.00  0.00    +0.000 A 
ATOM     10  N   UNL     1       7.282   5.422  19.861  0.00  0.00    +0.000 NA
ATOM     11  C   UNL     1       7.959   6.197  19.046  0.00  0.00    +0.000 A 
ATOM     12  S   UNL     1       7.341   6.345  17.457  0.00  0.00    +0.000 S 
ENDBRANCH   7   8
BRANCH   7  14
ATOM     13  C   UNL     1       5.871   4.237  14.499  0.00  0.00    +0.000 C 
ATOM     14  C   UNL     1       5.482   3.766  15.898  0.00  0.00    +0.000 C 
ENDBRANCH   7  14
BRANCH   7  15
ATOM     15  O   UNL     1       4.705   6.095  16.100  0.00  0.00    +0.000 OA
ATOM     16  C   UNL     1       4.159   7.204  16.808  0.00  0.00    +0.000 C 
ENDBRANCH   7  15
ENDBRANCH   1   7
BRANCH   5  17
ATOM     17  O   UNL     1       1.530   5.728  20.290  0.00  0.00    +0.000 OA
BRANCH  17  18
ATOM     18  C   UNL     1       2.405   6.834  20.522  0.00  0.00    +0.000 C 
BRANCH  18  19
ATOM     19  C   UNL     1       1.659   8.137  20.668  0.00  0.00    +0.000 A 
ATOM     20  C   UNL     1       1.471   8.934  19.531  0.00  0.00    +0.000 A 
ATOM     21  C   UNL     1       0.632  10.046  19.574  0.00  0.00    +0.000 A 
ATOM     22  C   UNL     1      -0.043  10.379  20.754  0.00  0.00    +0.000 A 
ATOM     23  C   UNL     1      -0.982  11.420  20.782  0.00  0.00    +0.000 A 
ATOM     24  C   UNL     1      -1.658  11.734  21.962  0.00  0.00    +0.000 A 
ATOM     25  C   UNL     1      -1.367  11.043  23.135  0.00  0.00    +0.000 A 
ATOM     26  C   UNL     1      -0.437  10.004  23.121  0.00  0.00    +0.000 A 
ATOM     27  C   UNL     1       0.204   9.634  21.930  0.00  0.00    +0.000 A 
ATOM     28  C   UNL     1       1.051   8.516  21.871  0.00  0.00    +0.000 A 
ENDBRANCH  18  19
ENDBRANCH  17  18
ENDBRANCH   5  17
TORSDOF 7
ENDMDL
MODEL 7
REMARK VINA RESULT:      -7.1      3.680      8.491
REMARK  Name = 
REMARK  9 active torsions:
REMARK  status: ('A' for Active; 'I' for Inactive)
REMARK    1  A    between atoms: C_1  and  C_2
REMARK    2  A    between atoms: C_2  and  C_3
REMARK    3  A    between atoms: C_3  and  O_4
REMARK    4  A    between atoms: C_3  and  C_6
REMARK    5  A    between atoms: C_3  and  C_24
REMARK    6  A    between atoms: O_4  and  C_5
REMARK    7  A    between atoms: C_10  and  O_11
REMARK    8  A    between atoms: O_11  and  C_12
REMARK    9  A    between atoms: C_12  and  C_13
REMARK                            x       y       z     vdW  Elec       q    Type
REMARK                         _______ _______ _______ _____ _____    ______ ____
ROOT
ATOM      1  C   UNL     1       2.892   6.273  18.829  0.00  0.00    +0.000 A 
ATOM      2  C   UNL     1       3.106   7.158  17.754  0.00  0.00    +0.000 A 
ATOM      3  C   UNL     1       2.536   8.429  17.738  0.00  0.00    +0.000 A 
ATOM      4  C   UNL     1       1.816   8.877  18.839  0.00  0.00    +0.000 A 
ATOM      5  C   UNL     1       1.714   8.077  19.975  0.00  0.00    +0.000 A 
ATOM      6  C   UNL     1       2.212   6.773  19.953  0.00  0.00    +0.000 A 
ENDROOT
BRANCH   1   7
ATOM      7  C   UNL     1       3.417   4.819  18.766  0.00  0.00    +0.000 C 
BRANCH   7   8
ATOM      8  C   UNL     1       4.919   4.818  18.469  0.00  0.00    +0.000 A 
ATOM      9  C   UNL     1       5.975   5.204  19.283  0.00  0.00    +0.000 A 
ATOM     10  N   UNL     1       7.242   5.113  18.736  0.00  0.00    +0.000 NA
ATOM     11  C   UNL     1       7.149   4.653  17.510  0.00  0.00    +0.000 A 
ATOM     12  S   UNL     1       5.568   4.319  16.946  0.00  0.00    +0.000 S 
ENDBRANCH   7   8
BRANCH   7  14
ATOM     13  C   UNL     1       3.751   2.615  20.128  0.00  0.00    +0.000 C 
ATOM     14  C   UNL     1       3.128   4.008  20.072  0.00  0.00    +0.000 C 
ENDBRANCH   7  14
BRANCH   7  15
ATOM     15  O   UNL     1       2.819   4.139  17.632  0.00  0.00    +0.000 OA
ATOM     16  C   UNL     1       1.430   3.832  17.716  0.00  0.00    +0.000 C 
ENDBRANCH   7  15
ENDBRANCH   1   7
BRANCH   5  17
ATOM     17  O   UNL     1       1.166   8.479  21.166  0.00  0.00    +0.000 OA
BRANCH  17  18
ATOM     18  C   UNL     1       1.287   9.883  21.408  0.00  0.00    +0.000 C 
BRANCH  18  19
ATOM     19  C   UNL     1      -0.042  10.530  21.711  0.00  0.00    +0.000 A 
ATOM     20  C   UNL     1      -0.601  10.349  22.983  0.00  0.00    +0.000 A 
ATOM     21  C   UNL     1      -1.726  11.074  23.374  0.00  0.00    +0.000 A 
ATOM     22  C   UNL     1      -2.309  12.001  22.502  0.00  0.00    +0.000 A 
ATOM     23  C   UNL     1      -3.364  12.825  22.921  0.00  0.00    +0.000 A 
ATOM     24  C   UNL     1      -3.928  13.754  22.047  0.00  0.00    +0.000 A 
ATOM     25  C   UNL     1      -3.476  13.837  20.732  0.00  0.00    +0.000 A 
ATOM     26  C   UNL     1      -2.427  13.026  20.303  0.00  0.00    +0.000 A 
ATOM     27  C   UNL     1      -1.806  12.131  21.187  0.00  0.00    +0.000 A 
ATOM     28  C   UNL     1      -0.673  11.394  20.808  0.00  0.00    +0.000 A 
ENDBRANCH  18  19
ENDBRANCH  17  18
ENDBRANCH   5  17
TORSDOF 7
ENDMDL
MODEL 8
REMARK VINA RESULT:      -7.1      3.433      8.101
REMARK  Name = 
REMARK  9 active torsions:
REMARK  status: ('A' for Active; 'I' for Inactive)
REMARK    1  A    between atoms: C_1  and  C_2
REMARK    2  A    between atoms: C_2  and  C_3
REMARK    3  A    between atoms: C_3  and  O_4
REMARK    4  A    between atoms: C_3  and  C_6
REMARK    5  A    between atoms: C_3  and  C_24
REMARK    6  A    between atoms: O_4  and  C_5
REMARK    7  A    between atoms: C_10  and  O_11
REMARK    8  A    between atoms: O_11  and  C_12
REMARK    9  A    between atoms: C_12  and  C_13
REMARK                            x       y       z     vdW  Elec       q    Type
REMARK                         _______ _______ _______ _____ _____    ______ ____
ROOT
ATOM      1  C   UNL     1       2.615   6.073  19.324  0.00  0.00    +0.000 A 
ATOM      2  C   UNL     1       1.977   6.018  20.578  0.00  0.00    +0.000 A 
ATOM      3  C   UNL     1       1.393   7.150  21.144  0.00  0.00    +0.000 A 
ATOM      4  C   UNL     1       1.354   8.339  20.426  0.00  0.00    +0.000 A 
ATOM      5  C   UNL     1       1.846   8.380  19.123  0.00  0.00    +0.000 A 
ATOM      6  C   UNL     1       2.507   7.270  18.595  0.00  0.00    +0.000 A 
ENDROOT
BRANCH   1   7
ATOM      7  C   UNL     1       3.376   4.843  18.775  0.00  0.00    +0.000 C 
BRANCH   7   8
ATOM      8  C   UNL     1       4.803   5.242  18.388  0.00  0.00    +0.000 A 
ATOM      9  C   UNL     1       5.905   5.464  19.202  0.00  0.00    +0.000 A 
ATOM     10  N   UNL     1       7.077   5.836  18.569  0.00  0.00    +0.000 NA
ATOM     11  C   UNL     1       6.866   5.893  17.274  0.00  0.00    +0.000 A 
ATOM     12  S   UNL     1       5.281   5.520  16.749  0.00  0.00    +0.000 S 
ENDBRANCH   7   8
BRANCH   7  14
ATOM     13  C   UNL     1       4.039   2.361  19.246  0.00  0.00    +0.000 C 
ATOM     14  C   UNL     1       3.409   3.645  19.780  0.00  0.00    +0.000 C 
ENDBRANCH   7  14
BRANCH   7  15
ATOM     15  O   UNL     1       2.765   4.414  17.531  0.00  0.00    +0.000 OA
ATOM     16  C   UNL     1       1.410   3.980  17.587  0.00  0.00    +0.000 C 
ENDBRANCH   7  15
ENDBRANCH   1   7
BRANCH   5  17
ATOM     17  O   UNL     1       1.716   9.449  18.274  0.00  0.00    +0.000 OA
BRANCH  17  18
ATOM     18  C   UNL     1       1.141  10.604  18.889  0.00  0.00    +0.000 C 
BRANCH  18  19
ATOM     19  C   UNL     1      -0.312  10.787  18.522  0.00  0.00    +0.000 A 
ATOM     20  C   UNL     1      -0.859   9.971  17.523  0.00  0.00    +0.000 A 
ATOM     21  C   UNL     1      -2.232   9.970  17.280  0.00  0.00    +0.000 A 
ATOM     22  C   UNL     1      -3.086  10.779  18.038  0.00  0.00    +0.000 A 
ATOM     23  C   UNL     1      -4.478  10.702  17.890  0.00  0.00    +0.000 A 
ATOM     24  C   UNL     1      -5.319  11.505  18.660  0.00  0.00    +0.000 A 
ATOM     25  C   UNL     1      -4.777  12.427  19.552  0.00  0.00    +0.000 A 
ATOM     26  C   UNL     1      -3.394  12.514  19.710  0.00  0.00    +0.000 A 
ATOM     27  C   UNL     1      -2.537  11.669  18.990  0.00  0.00    +0.000 A 
ATOM     28  C   UNL     1      -1.153  11.659  19.224  0.00  0.00    +0.000 A 
ENDBRANCH  18  19
ENDBRANCH  17  18
ENDBRANCH   5  17
TORSDOF 7
ENDMDL
MODEL 9
REMARK VINA RESULT:      -7.1      3.638      8.468
REMARK  Name = 
REMARK  9 active torsions:
REMARK  status: ('A' for Active; 'I' for Inactive)
REMARK    1  A    between atoms: C_1  and  C_2
REMARK    2  A    between atoms: C_2  and  C_3
REMARK    3  A    between atoms: C_3  and  O_4
REMARK    4  A    between atoms: C_3  and  C_6
REMARK    5  A    between atoms: C_3  and  C_24
REMARK    6  A    between atoms: O_4  and  C_5
REMARK    7  A    between atoms: C_10  and  O_11
REMARK    8  A    between atoms: O_11  and  C_12
REMARK    9  A    between atoms: C_12  and  C_13
REMARK                            x       y       z     vdW  Elec       q    Type
REMARK                         _______ _______ _______ _____ _____    ______ ____
ROOT
ATOM      1  C   UNL     1       2.940   6.209  18.879  0.00  0.00    +0.000 A 
ATOM      2  C   UNL     1       3.044   7.092  17.788  0.00  0.00    +0.000 A 
ATOM      3  C   UNL     1       2.441   8.348  17.812  0.00  0.00    +0.000 A 
ATOM      4  C   UNL     1       1.798   8.783  18.965  0.00  0.00    +0.000 A 
ATOM      5  C   UNL     1       1.809   7.987  20.109  0.00  0.00    +0.000 A 
ATOM      6  C   UNL     1       2.338   6.697  20.052  0.00  0.00    +0.000 A 
ENDROOT
BRANCH   1   7
ATOM      7  C   UNL     1       3.498   4.769  18.781  0.00  0.00    +0.000 C 
BRANCH   7   8
ATOM      8  C   UNL     1       5.001   4.809  18.486  0.00  0.00    +0.000 A 
ATOM      9  C   UNL     1       6.042   5.246  19.293  0.00  0.00    +0.000 A 
ATOM     10  N   UNL     1       7.313   5.183  18.750  0.00  0.00    +0.000 NA
ATOM     11  C   UNL     1       7.236   4.694  17.534  0.00  0.00    +0.000 A 
ATOM     12  S   UNL     1       5.668   4.298  16.975  0.00  0.00    +0.000 S 
ENDBRANCH   7   8
BRANCH   7  14
ATOM     13  C   UNL     1       3.939   2.569  20.119  0.00  0.00    +0.000 C 
ATOM     14  C   UNL     1       3.227   3.919  20.066  0.00  0.00    +0.000 C 
ENDBRANCH   7  14
BRANCH   7  15
ATOM     15  O   UNL     1       2.917   4.105  17.629  0.00  0.00    +0.000 OA
ATOM     16  C   UNL     1       1.563   3.676  17.740  0.00  0.00    +0.000 C 
ENDBRANCH   7  15
ENDBRANCH   1   7
BRANCH   5  17
ATOM     17  O   UNL     1       1.347   8.382  21.338  0.00  0.00    +0.000 OA
BRANCH  17  18
ATOM     18  C   UNL     1      -0.077   8.487  21.409  0.00  0.00    +0.000 C 
BRANCH  18  19
ATOM     19  C   UNL     1      -0.539   9.912  21.591  0.00  0.00    +0.000 A 
ATOM     20  C   UNL     1      -0.855  10.354  22.883  0.00  0.00    +0.000 A 
ATOM     21  C   UNL     1      -1.104  11.703  23.130  0.00  0.00    +0.000 A 
ATOM     22  C   UNL     1      -1.034  12.638  22.092  0.00  0.00    +0.000 A 
ATOM     23  C   UNL     1      -1.161  14.012  22.343  0.00  0.00    +0.000 A 
ATOM     24  C   UNL     1      -1.076  14.936  21.302  0.00  0.00    +0.000 A 
ATOM     25  C   UNL     1      -0.910  14.493  19.991  0.00  0.00    +0.000 A 
ATOM     26  C   UNL     1      -0.780  13.131  19.726  0.00  0.00    +0.000 A 
ATOM     27  C   UNL     1      -0.799  12.194  20.770  0.00  0.00    +0.000 A 
ATOM     28  C   UNL     1      -0.551  10.832  20.536  0.00  0.00    +0.000 A 
ENDBRANCH  18  19
ENDBRANCH  17  18
ENDBRANCH   5  17
TORSDOF 7
ENDMDL
