MODEL 1
REMARK VINA RESULT:      -6.6      0.000      0.000
REMARK  Name = 
REMARK  0 active torsions:
REMARK  status: ('A' for Active; 'I' for Inactive)
REMARK                            x       y       z     vdW  Elec       q    Type
REMARK                         _______ _______ _______ _____ _____    ______ ____
ROOT
ATOM      1  O   UNL     1       2.323   9.508  17.270  0.00  0.00    +0.000 OA
ATOM      2  C   UNL     1       2.234   8.691  18.182  0.00  0.00    +0.000 C 
ATOM      3  C   UNL     1       3.037   7.376  18.139  0.00  0.00    +0.000 C 
ATOM      4  C   UNL     1       2.879   6.532  19.222  0.00  0.00    +0.000 C 
ATOM      5  O   UNL     1       3.500   5.295  19.479  0.00  0.00    +0.000 OA
ATOM      6  C   UNL     1       4.445   5.156  18.501  0.00  0.00    +0.000 C 
ATOM      7  C   UNL     1       5.495   4.121  18.398  0.00  0.00    +0.000 C 
ATOM      8  O   UNL     1       6.363   4.689  17.385  0.00  0.00    +0.000 OA
ATOM      9  C   UNL     1       5.650   5.229  16.232  0.00  0.00    +0.000 C 
ATOM     10  C   UNL     1       4.977   6.704  16.290  0.00  0.00    +0.000 C 
ATOM     11  O   UNL     1       3.766   7.213  16.961  0.00  0.00    +0.000 OA
ATOM     12  C   UNL     1       1.920   6.814  20.319  0.00  0.00    +0.000 C 
ATOM     13  O   UNL     1       1.693   5.978  21.189  0.00  0.00    +0.000 OA
ATOM     14  C   UNL     1       1.250   8.091  20.398  0.00  0.00    +0.000 A 
ATOM     15  C   UNL     1       0.448   8.344  21.524  0.00  0.00    +0.000 A 
ATOM     16  C   UNL     1      -0.251   9.535  21.646  0.00  0.00    +0.000 A 
ATOM     17  C   UNL     1      -0.130  10.475  20.622  0.00  0.00    +0.000 A 
ATOM     18  C   UNL     1       0.679  10.218  19.494  0.00  0.00    +0.000 A 
ATOM     19  C   UNL     1       1.380   9.006  19.369  0.00  0.00    +0.000 A 
ENDROOT
TORSDOF 0
ENDMDL
MODEL 2
REMARK VINA RESULT:      -6.5      1.967      6.594
REMARK  Name = 
REMARK  0 active torsions:
REMARK  status: ('A' for Active; 'I' for Inactive)
REMARK                            x       y       z     vdW  Elec       q    Type
REMARK                         _______ _______ _______ _____ _____    ______ ____
ROOT
ATOM      1  O   UNL     1       1.572   6.117  21.284  0.00  0.00    +0.000 OA
ATOM      2  C   UNL     1       1.730   7.000  20.446  0.00  0.00    +0.000 C 
ATOM      3  C   UNL     1       1.088   8.387  20.636  0.00  0.00    +0.000 C 
ATOM      4  C   UNL     1       1.342   9.315  19.643  0.00  0.00    +0.000 C 
ATOM      5  O   UNL     1       0.927  10.658  19.560  0.00  0.00    +0.000 OA
ATOM      6  C   UNL     1       0.343  10.931  20.765  0.00  0.00    +0.000 C 
ATOM      7  C   UNL     1      -0.110  12.243  21.275  0.00  0.00    +0.000 C 
ATOM      8  O   UNL     1      -0.303  11.955  22.683  0.00  0.00    +0.000 OA
ATOM      9  C   UNL     1      -1.012  10.705  22.937  0.00  0.00    +0.000 C 
ATOM     10  C   UNL     1      -0.228   9.285  22.894  0.00  0.00    +0.000 C 
ATOM     11  O   UNL     1       0.287   8.473  21.775  0.00  0.00    +0.000 OA
ATOM     12  C   UNL     1       2.098   8.979  18.412  0.00  0.00    +0.000 C 
ATOM     13  O   UNL     1       2.179   9.778  17.483  0.00  0.00    +0.000 OA
ATOM     14  C   UNL     1       2.777   7.709  18.292  0.00  0.00    +0.000 A 
ATOM     15  C   UNL     1       3.576   7.497  17.155  0.00  0.00    +0.000 A 
ATOM     16  C   UNL     1       4.227   6.289  16.960  0.00  0.00    +0.000 A 
ATOM     17  C   UNL     1       4.068   5.294  17.925  0.00  0.00    +0.000 A 
ATOM     18  C   UNL     1       3.267   5.513  19.067  0.00  0.00    +0.000 A 
ATOM     19  C   UNL     1       2.601   6.737  19.258  0.00  0.00    +0.000 A 
ENDROOT
TORSDOF 0
ENDMDL
MODEL 3
REMARK VINA RESULT:      -6.4      1.723      5.585
REMARK  Name = 
REMARK  0 active torsions:
REMARK  status: ('A' for Active; 'I' for Inactive)
REMARK                            x       y       z     vdW  Elec       q    Type
REMARK                         _______ _______ _______ _____ _____    ______ ____
ROOT
ATOM      1  O   UNL     1       3.866   6.583  16.690  0.00  0.00    +0.000 OA
ATOM      2  C   UNL     1       3.380   6.232  17.762  0.00  0.00    +0.000 C 
ATOM      3  C   UNL     1       2.659   7.249  18.667  0.00  0.00    +0.000 C 
ATOM      4  C   UNL     1       2.133   6.749  19.844  0.00  0.00    +0.000 C 
ATOM      5  O   UNL     1       1.400   7.420  20.841  0.00  0.00    +0.000 OA
ATOM      6  C   UNL     1       1.155   8.665  20.334  0.00  0.00    +0.000 C 
ATOM      7  C   UNL     1       0.279   9.716  20.895  0.00  0.00    +0.000 C 
ATOM      8  O   UNL     1       0.161  10.625  19.772  0.00  0.00    +0.000 OA
ATOM      9  C   UNL     1       1.428  10.906  19.105  0.00  0.00    +0.000 C 
ATOM     10  C   UNL     1       2.043   9.865  18.023  0.00  0.00    +0.000 C 
ATOM     11  O   UNL     1       2.703   8.554  18.176  0.00  0.00    +0.000 OA
ATOM     12  C   UNL     1       2.332   5.343  20.272  0.00  0.00    +0.000 C 
ATOM     13  O   UNL     1       1.983   4.967  21.387  0.00  0.00    +0.000 OA
ATOM     14  C   UNL     1       2.921   4.378  19.371  0.00  0.00    +0.000 A 
ATOM     15  C   UNL     1       2.972   3.037  19.788  0.00  0.00    +0.000 A 
ATOM     16  C   UNL     1       3.556   2.066  18.988  0.00  0.00    +0.000 A 
ATOM     17  C   UNL     1       4.086   2.460  17.759  0.00  0.00    +0.000 A 
ATOM     18  C   UNL     1       4.029   3.808  17.343  0.00  0.00    +0.000 A 
ATOM     19  C   UNL     1       3.444   4.792  18.160  0.00  0.00    +0.000 A 
ENDROOT
TORSDOF 0
ENDMDL
MODEL 4
REMARK VINA RESULT:      -6.4      4.455      4.731
REMARK  Name = 
REMARK  0 active torsions:
REMARK  status: ('A' for Active; 'I' for Inactive)
REMARK                            x       y       z     vdW  Elec       q    Type
REMARK                         _______ _______ _______ _____ _____    ______ ____
ROOT
ATOM      1  O   UNL     1       1.644   4.026  16.762  0.00  0.00    +0.000 OA
ATOM      2  C   UNL     1       2.501   3.808  17.613  0.00  0.00    +0.000 C 
ATOM      3  C   UNL     1       3.996   3.990  17.286  0.00  0.00    +0.000 C 
ATOM      4  C   UNL     1       4.879   3.737  18.319  0.00  0.00    +0.000 C 
ATOM      5  O   UNL     1       6.282   3.850  18.332  0.00  0.00    +0.000 OA
ATOM      6  C   UNL     1       6.608   4.434  17.141  0.00  0.00    +0.000 C 
ATOM      7  C   UNL     1       7.930   4.937  16.711  0.00  0.00    +0.000 C 
ATOM      8  O   UNL     1       7.575   5.729  15.550  0.00  0.00    +0.000 OA
ATOM      9  C   UNL     1       6.635   5.069  14.651  0.00  0.00    +0.000 C 
ATOM     10  C   UNL     1       5.044   5.070  14.969  0.00  0.00    +0.000 C 
ATOM     11  O   UNL     1       4.232   4.332  15.954  0.00  0.00    +0.000 OA
ATOM     12  C   UNL     1       4.436   3.221  19.638  0.00  0.00    +0.000 C 
ATOM     13  O   UNL     1       5.252   2.864  20.483  0.00  0.00    +0.000 OA
ATOM     14  C   UNL     1       3.030   3.150  19.963  0.00  0.00    +0.000 A 
ATOM     15  C   UNL     1       2.676   2.768  21.269  0.00  0.00    +0.000 A 
ATOM     16  C   UNL     1       1.346   2.646  21.639  0.00  0.00    +0.000 A 
ATOM     17  C   UNL     1       0.370   2.917  20.678  0.00  0.00    +0.000 A 
ATOM     18  C   UNL     1       0.730   3.303  19.369  0.00  0.00    +0.000 A 
ATOM     19  C   UNL     1       2.081   3.418  18.995  0.00  0.00    +0.000 A 
ENDROOT
TORSDOF 0
ENDMDL
MODEL 5
REMARK VINA RESULT:      -6.3      4.503      5.109
REMARK  Name = 
REMARK  0 active torsions:
REMARK  status: ('A' for Active; 'I' for Inactive)
REMARK                            x       y       z     vdW  Elec       q    Type
REMARK                         _______ _______ _______ _____ _____    ______ ____
ROOT
ATOM      1  O   UNL     1       5.573   3.939  20.360  0.00  0.00    +0.000 OA
ATOM      2  C   UNL     1       4.664   3.869  19.537  0.00  0.00    +0.000 C 
ATOM      3  C   UNL     1       4.933   4.146  18.045  0.00  0.00    +0.000 C 
ATOM      4  C   UNL     1       3.847   4.025  17.200  0.00  0.00    +0.000 C 
ATOM      5  O   UNL     1       3.791   4.179  15.801  0.00  0.00    +0.000 OA
ATOM      6  C   UNL     1       5.091   4.317  15.402  0.00  0.00    +0.000 C 
ATOM      7  C   UNL     1       5.616   4.337  14.020  0.00  0.00    +0.000 C 
ATOM      8  O   UNL     1       7.036   4.157  14.247  0.00  0.00    +0.000 OA
ATOM      9  C   UNL     1       7.571   4.985  15.323  0.00  0.00    +0.000 C 
ATOM     10  C   UNL     1       7.405   4.538  16.873  0.00  0.00    +0.000 C 
ATOM     11  O   UNL     1       6.246   4.543  17.785  0.00  0.00    +0.000 OA
ATOM     12  C   UNL     1       2.477   3.746  17.696  0.00  0.00    +0.000 C 
ATOM     13  O   UNL     1       1.510   3.791  16.941  0.00  0.00    +0.000 OA
ATOM     14  C   UNL     1       2.256   3.391  19.080  0.00  0.00    +0.000 A 
ATOM     15  C   UNL     1       0.956   3.019  19.463  0.00  0.00    +0.000 A 
ATOM     16  C   UNL     1       0.668   2.701  20.781  0.00  0.00    +0.000 A 
ATOM     17  C   UNL     1       1.705   2.755  21.712  0.00  0.00    +0.000 A 
ATOM     18  C   UNL     1       3.010   3.125  21.322  0.00  0.00    +0.000 A 
ATOM     19  C   UNL     1       3.299   3.456  19.985  0.00  0.00    +0.000 A 
ENDROOT
TORSDOF 0
ENDMDL
MODEL 6
REMARK VINA RESULT:      -6.2      1.605      3.332
REMARK  Name = 
REMARK  0 active torsions:
REMARK  status: ('A' for Active; 'I' for Inactive)
REMARK                            x       y       z     vdW  Elec       q    Type
REMARK                         _______ _______ _______ _____ _____    ______ ____
ROOT
ATOM      1  O   UNL     1       1.224   6.970  21.553  0.00  0.00    +0.000 OA
ATOM      2  C   UNL     1       1.695   7.195  20.441  0.00  0.00    +0.000 C 
ATOM      3  C   UNL     1       2.474   6.103  19.683  0.00  0.00    +0.000 C 
ATOM      4  C   UNL     1       2.948   6.452  18.432  0.00  0.00    +0.000 C 
ATOM      5  O   UNL     1       3.654   5.666  17.502  0.00  0.00    +0.000 OA
ATOM      6  C   UNL     1       3.641   4.400  18.015  0.00  0.00    +0.000 C 
ATOM      7  C   UNL     1       4.090   3.153  17.361  0.00  0.00    +0.000 C 
ATOM      8  O   UNL     1       3.519   2.146  18.233  0.00  0.00    +0.000 OA
ATOM      9  C   UNL     1       3.706   2.421  19.653  0.00  0.00    +0.000 C 
ATOM     10  C   UNL     1       2.730   3.455  20.433  0.00  0.00    +0.000 C 
ATOM     11  O   UNL     1       2.633   4.927  20.418  0.00  0.00    +0.000 OA
ATOM     12  C   UNL     1       2.812   7.824  17.883  0.00  0.00    +0.000 C 
ATOM     13  O   UNL     1       3.371   8.143  16.838  0.00  0.00    +0.000 OA
ATOM     14  C   UNL     1       1.996   8.807  18.558  0.00  0.00    +0.000 A 
ATOM     15  C   UNL     1       1.807  10.049  17.927  0.00  0.00    +0.000 A 
ATOM     16  C   UNL     1       1.065  11.049  18.535  0.00  0.00    +0.000 A 
ATOM     17  C   UNL     1       0.509  10.785  19.787  0.00  0.00    +0.000 A 
ATOM     18  C   UNL     1       0.698   9.536  20.415  0.00  0.00    +0.000 A 
ATOM     19  C   UNL     1       1.458   8.525  19.800  0.00  0.00    +0.000 A 
ENDROOT
TORSDOF 0
ENDMDL
MODEL 7
REMARK VINA RESULT:      -6.2      3.528      5.247
REMARK  Name = 
REMARK  0 active torsions:
REMARK  status: ('A' for Active; 'I' for Inactive)
REMARK                            x       y       z     vdW  Elec       q    Type
REMARK                         _______ _______ _______ _____ _____    ______ ____
ROOT
ATOM      1  O   UNL     1       5.267   2.739  20.069  0.00  0.00    +0.000 OA
ATOM      2  C   UNL     1       4.553   3.543  19.475  0.00  0.00    +0.000 C 
ATOM      3  C   UNL     1       5.131   4.876  18.962  0.00  0.00    +0.000 C 
ATOM      4  C   UNL     1       4.248   5.702  18.291  0.00  0.00    +0.000 C 
ATOM      5  O   UNL     1       4.490   6.950  17.686  0.00  0.00    +0.000 OA
ATOM      6  C   UNL     1       5.844   7.123  17.745  0.00  0.00    +0.000 C 
ATOM      7  C   UNL     1       6.650   8.184  17.103  0.00  0.00    +0.000 C 
ATOM      8  O   UNL     1       7.991   7.649  17.235  0.00  0.00    +0.000 OA
ATOM      9  C   UNL     1       8.282   7.108  18.558  0.00  0.00    +0.000 C 
ATOM     10  C   UNL     1       7.793   5.617  18.970  0.00  0.00    +0.000 C 
ATOM     11  O   UNL     1       6.467   5.071  19.314  0.00  0.00    +0.000 OA
ATOM     12  C   UNL     1       2.806   5.385  18.156  0.00  0.00    +0.000 C 
ATOM     13  O   UNL     1       2.020   6.204  17.687  0.00  0.00    +0.000 OA
ATOM     14  C   UNL     1       2.299   4.091  18.552  0.00  0.00    +0.000 A 
ATOM     15  C   UNL     1       0.948   3.805  18.286  0.00  0.00    +0.000 A 
ATOM     16  C   UNL     1       0.388   2.597  18.671  0.00  0.00    +0.000 A 
ATOM     17  C   UNL     1       1.205   1.673  19.324  0.00  0.00    +0.000 A 
ATOM     18  C   UNL     1       2.562   1.963  19.585  0.00  0.00    +0.000 A 
ATOM     19  C   UNL     1       3.125   3.193  19.201  0.00  0.00    +0.000 A 
ENDROOT
TORSDOF 0
ENDMDL
MODEL 8
REMARK VINA RESULT:      -6.1      0.752      2.858
REMARK  Name = 
REMARK  0 active torsions:
REMARK  status: ('A' for Active; 'I' for Inactive)
REMARK                            x       y       z     vdW  Elec       q    Type
REMARK                         _______ _______ _______ _____ _____    ______ ____
ROOT
ATOM      1  O   UNL     1       2.275   5.647  21.038  0.00  0.00    +0.000 OA
ATOM      2  C   UNL     1       2.332   6.507  20.164  0.00  0.00    +0.000 C 
ATOM      3  C   UNL     1       3.273   6.338  18.956  0.00  0.00    +0.000 C 
ATOM      4  C   UNL     1       3.248   7.356  18.020  0.00  0.00    +0.000 C 
ATOM      5  O   UNL     1       3.960   7.463  16.810  0.00  0.00    +0.000 OA
ATOM      6  C   UNL     1       4.579   6.256  16.647  0.00  0.00    +0.000 C 
ATOM      7  C   UNL     1       5.316   5.769  15.461  0.00  0.00    +0.000 C 
ATOM      8  O   UNL     1       5.425   4.353  15.750  0.00  0.00    +0.000 OA
ATOM      9  C   UNL     1       5.825   4.059  17.122  0.00  0.00    +0.000 C 
ATOM     10  C   UNL     1       4.738   4.082  18.325  0.00  0.00    +0.000 C 
ATOM     11  O   UNL     1       4.061   5.190  19.026  0.00  0.00    +0.000 OA
ATOM     12  C   UNL     1       2.447   8.590  18.206  0.00  0.00    +0.000 C 
ATOM     13  O   UNL     1       2.560   9.538  17.434  0.00  0.00    +0.000 OA
ATOM     14  C   UNL     1       1.497   8.692  19.289  0.00  0.00    +0.000 A 
ATOM     15  C   UNL     1       0.681   9.836  19.342  0.00  0.00    +0.000 A 
ATOM     16  C   UNL     1      -0.228  10.013  20.374  0.00  0.00    +0.000 A 
ATOM     17  C   UNL     1      -0.310   9.024  21.354  0.00  0.00    +0.000 A 
ATOM     18  C   UNL     1       0.509   7.876  21.295  0.00  0.00    +0.000 A 
ATOM     19  C   UNL     1       1.436   7.701  20.252  0.00  0.00    +0.000 A 
ENDROOT
TORSDOF 0
ENDMDL
MODEL 9
REMARK VINA RESULT:      -6.0      4.416      8.346
REMARK  Name = 
REMARK  0 active torsions:
REMARK  status: ('A' for Active; 'I' for Inactive)
REMARK                            x       y       z     vdW  Elec       q    Type
REMARK                         _______ _______ _______ _____ _____    ______ ____
ROOT
ATOM      1  O   UNL     1      -1.017  11.956  18.689  0.00  0.00    +0.000 OA
ATOM      2  C   UNL     1      -0.830  11.462  19.798  0.00  0.00    +0.000 C 
ATOM      3  C   UNL     1      -1.584  11.994  21.032  0.00  0.00    +0.000 C 
ATOM      4  C   UNL     1      -1.315  11.357  22.229  0.00  0.00    +0.000 C 
ATOM      5  O   UNL     1      -1.869  11.594  23.501  0.00  0.00    +0.000 OA
ATOM      6  C   UNL     1      -2.877  12.493  23.295  0.00  0.00    +0.000 C 
ATOM      7  C   UNL     1      -3.893  12.953  24.265  0.00  0.00    +0.000 C 
ATOM      8  O   UNL     1      -4.854  13.600  23.394  0.00  0.00    +0.000 OA
ATOM      9  C   UNL     1      -4.249  14.469  22.390  0.00  0.00    +0.000 C 
ATOM     10  C   UNL     1      -3.629  13.852  21.024  0.00  0.00    +0.000 C 
ATOM     11  O   UNL     1      -2.392  13.096  20.752  0.00  0.00    +0.000 OA
ATOM     12  C   UNL     1      -0.289  10.293  22.353  0.00  0.00    +0.000 C 
ATOM     13  O   UNL     1       0.033   9.851  23.452  0.00  0.00    +0.000 OA
ATOM     14  C   UNL     1       0.337   9.736  21.175  0.00  0.00    +0.000 A 
ATOM     15  C   UNL     1       1.210   8.649  21.348  0.00  0.00    +0.000 A 
ATOM     16  C   UNL     1       1.871   8.089  20.265  0.00  0.00    +0.000 A 
ATOM     17  C   UNL     1       1.640   8.635  19.002  0.00  0.00    +0.000 A 
ATOM     18  C   UNL     1       0.760   9.725  18.833  0.00  0.00    +0.000 A 
ATOM     19  C   UNL     1       0.097  10.296  19.934  0.00  0.00    +0.000 A 
ENDROOT
TORSDOF 0
ENDMDL
