MODEL 1
REMARK VINA RESULT:      -9.5      0.000      0.000
REMARK  Name = 
REMARK  3 active torsions:
REMARK  status: ('A' for Active; 'I' for Inactive)
REMARK    1  A    between atoms: C_1  and  C_2
REMARK    2  A    between atoms: C_14  and  C_15
REMARK    3  A    between atoms: C_16  and  C_17
REMARK                            x       y       z     vdW  Elec       q    Type
REMARK                         _______ _______ _______ _____ _____    ______ ____
ROOT
ATOM      1  C   UNL     1       0.731   1.734  18.566  0.00  0.00    +0.000 C 
ATOM      2  C   UNL     1       1.264   3.158  18.632  0.00  0.00    +0.000 C 
ATOM      3  O   UNL     1       1.114   3.624  19.978  0.00  0.00    +0.000 OA
ATOM      4  C   UNL     1       2.318   3.619  20.615  0.00  0.00    +0.000 C 
ATOM      5  O   UNL     1       2.450   3.898  21.802  0.00  0.00    +0.000 OA
ATOM      6  C   UNL     1       3.418   3.183  19.674  0.00  0.00    +0.000 C 
ATOM      7  C   UNL     1       4.676   3.980  19.886  0.00  0.00    +0.000 C 
ATOM      8  C   UNL     1       5.202   4.817  18.976  0.00  0.00    +0.000 C 
ATOM      9  C   UNL     1       6.505   5.551  19.180  0.00  0.00    +0.000 C 
ATOM     10  C   UNL     1       7.089   6.025  17.840  0.00  0.00    +0.000 C 
ATOM     11  C   UNL     1       6.978   4.936  16.759  0.00  0.00    +0.000 C 
ATOM     12  C   UNL     1       5.552   4.326  16.633  0.00  0.00    +0.000 C 
ATOM     13  C   UNL     1       4.584   5.013  17.610  0.00  0.00    +0.000 C 
ATOM     14  C   UNL     1       3.084   4.636  17.569  0.00  0.00    +0.000 C 
ATOM     15  C   UNL     1       2.759   3.305  18.301  0.00  0.00    +0.000 C 
ENDROOT
BRANCH  14  16
ATOM     16  C   UNL     1       2.339   5.834  18.155  0.00  0.00    +0.000 C 
ATOM     17  C   UNL     1       2.724   7.111  18.011  0.00  0.00    +0.000 C 
BRANCH  17  18
ATOM     18  C   UNL     1       2.048   8.257  18.637  0.00  0.00    +0.000 A 
ATOM     19  C   UNL     1       2.005   9.478  17.976  0.00  0.00    +0.000 A 
ATOM     20  N   UNL     1       1.474  10.620  18.482  0.00  0.00    +0.000 NA
ATOM     21  C   UNL     1       0.954  10.572  19.718  0.00  0.00    +0.000 A 
ATOM     22  C   UNL     1       0.416  11.724  20.276  0.00  0.00    +0.000 A 
ATOM     23  C   UNL     1      -0.129  11.732  21.563  0.00  0.00    +0.000 A 
ATOM     24  C   UNL     1      -0.147  10.564  22.314  0.00  0.00    +0.000 A 
ATOM     25  C   UNL     1       0.385   9.391  21.777  0.00  0.00    +0.000 A 
ATOM     26  C   UNL     1       0.939   9.387  20.484  0.00  0.00    +0.000 A 
ATOM     27  C   UNL     1       1.499   8.227  19.921  0.00  0.00    +0.000 A 
ENDBRANCH  17  18
ENDBRANCH  14  16
TORSDOF 2
ENDMDL
MODEL 2
REMARK VINA RESULT:      -9.1      0.809      1.449
REMARK  Name = 
REMARK  3 active torsions:
REMARK  status: ('A' for Active; 'I' for Inactive)
REMARK    1  A    between atoms: C_1  and  C_2
REMARK    2  A    between atoms: C_14  and  C_15
REMARK    3  A    between atoms: C_16  and  C_17
REMARK                            x       y       z     vdW  Elec       q    Type
REMARK                         _______ _______ _______ _____ _____    ______ ____
ROOT
ATOM      1  C   UNL     1       0.650   1.724  18.506  0.00  0.00    +0.000 C 
ATOM      2  C   UNL     1       1.203   3.137  18.630  0.00  0.00    +0.000 C 
ATOM      3  O   UNL     1       1.126   3.522  20.007  0.00  0.00    +0.000 OA
ATOM      4  C   UNL     1       2.362   3.468  20.580  0.00  0.00    +0.000 C 
ATOM      5  O   UNL     1       2.557   3.674  21.773  0.00  0.00    +0.000 OA
ATOM      6  C   UNL     1       3.407   3.080  19.559  0.00  0.00    +0.000 C 
ATOM      7  C   UNL     1       4.684   3.852  19.753  0.00  0.00    +0.000 C 
ATOM      8  C   UNL     1       5.172   4.738  18.869  0.00  0.00    +0.000 C 
ATOM      9  C   UNL     1       6.493   5.447  19.049  0.00  0.00    +0.000 C 
ATOM     10  C   UNL     1       7.013   5.996  17.711  0.00  0.00    +0.000 C 
ATOM     11  C   UNL     1       6.834   4.975  16.574  0.00  0.00    +0.000 C 
ATOM     12  C   UNL     1       5.397   4.387  16.486  0.00  0.00    +0.000 C 
ATOM     13  C   UNL     1       4.488   5.022  17.551  0.00  0.00    +0.000 C 
ATOM     14  C   UNL     1       2.984   4.660  17.565  0.00  0.00    +0.000 C 
ATOM     15  C   UNL     1       2.680   3.291  18.231  0.00  0.00    +0.000 C 
ENDROOT
BRANCH  14  16
ATOM     16  C   UNL     1       2.283   5.827  18.259  0.00  0.00    +0.000 C 
ATOM     17  C   UNL     1       2.685   7.105  18.185  0.00  0.00    +0.000 C 
BRANCH  17  18
ATOM     18  C   UNL     1       2.055   8.217  18.913  0.00  0.00    +0.000 A 
ATOM     19  C   UNL     1       1.741   8.070  20.258  0.00  0.00    +0.000 A 
ATOM     20  N   UNL     1       1.097   8.995  21.013  0.00  0.00    +0.000 NA
ATOM     21  C   UNL     1       0.728  10.139  20.418  0.00  0.00    +0.000 A 
ATOM     22  C   UNL     1       0.051  11.104  21.154  0.00  0.00    +0.000 A 
ATOM     23  C   UNL     1      -0.365  12.308  20.581  0.00  0.00    +0.000 A 
ATOM     24  C   UNL     1      -0.098  12.566  19.242  0.00  0.00    +0.000 A 
ATOM     25  C   UNL     1       0.581  11.615  18.479  0.00  0.00    +0.000 A 
ATOM     26  C   UNL     1       0.994  10.401  19.057  0.00  0.00    +0.000 A 
ATOM     27  C   UNL     1       1.664   9.415  18.312  0.00  0.00    +0.000 A 
ENDBRANCH  17  18
ENDBRANCH  14  16
TORSDOF 2
ENDMDL
MODEL 3
REMARK VINA RESULT:      -8.8      2.058      4.083
REMARK  Name = 
REMARK  3 active torsions:
REMARK  status: ('A' for Active; 'I' for Inactive)
REMARK    1  A    between atoms: C_1  and  C_2
REMARK    2  A    between atoms: C_14  and  C_15
REMARK    3  A    between atoms: C_16  and  C_17
REMARK                            x       y       z     vdW  Elec       q    Type
REMARK                         _______ _______ _______ _____ _____    ______ ____
ROOT
ATOM      1  C   UNL     1       7.982   5.735  18.601  0.00  0.00    +0.000 C 
ATOM      2  C   UNL     1       6.496   6.056  18.673  0.00  0.00    +0.000 C 
ATOM      3  O   UNL     1       6.149   6.808  17.504  0.00  0.00    +0.000 OA
ATOM      4  C   UNL     1       5.479   6.017  16.619  0.00  0.00    +0.000 C 
ATOM      5  O   UNL     1       5.139   6.399  15.504  0.00  0.00    +0.000 OA
ATOM      6  C   UNL     1       5.272   4.633  17.190  0.00  0.00    +0.000 C 
ATOM      7  C   UNL     1       3.912   4.089  16.845  0.00  0.00    +0.000 C 
ATOM      8  C   UNL     1       2.950   3.832  17.747  0.00  0.00    +0.000 C 
ATOM      9  C   UNL     1       1.620   3.217  17.388  0.00  0.00    +0.000 C 
ATOM     10  C   UNL     1       0.943   2.601  18.623  0.00  0.00    +0.000 C 
ATOM     11  C   UNL     1       1.947   1.818  19.485  0.00  0.00    +0.000 C 
ATOM     12  C   UNL     1       3.238   2.618  19.820  0.00  0.00    +0.000 C 
ATOM     13  C   UNL     1       3.162   4.036  19.230  0.00  0.00    +0.000 C 
ATOM     14  C   UNL     1       4.296   5.040  19.543  0.00  0.00    +0.000 C 
ATOM     15  C   UNL     1       5.568   4.830  18.676  0.00  0.00    +0.000 C 
ENDROOT
BRANCH  14  16
ATOM     16  C   UNL     1       3.682   6.428  19.369  0.00  0.00    +0.000 C 
ATOM     17  C   UNL     1       2.448   6.767  19.774  0.00  0.00    +0.000 C 
BRANCH  17  18
ATOM     18  C   UNL     1       1.830   8.081  19.540  0.00  0.00    +0.000 A 
ATOM     19  C   UNL     1       2.035   8.734  18.332  0.00  0.00    +0.000 A 
ATOM     20  N   UNL     1       1.577   9.975  18.029  0.00  0.00    +0.000 NA
ATOM     21  C   UNL     1       0.875  10.627  18.969  0.00  0.00    +0.000 A 
ATOM     22  C   UNL     1       0.404  11.906  18.701  0.00  0.00    +0.000 A 
ATOM     23  C   UNL     1      -0.323  12.634  19.648  0.00  0.00    +0.000 A 
ATOM     24  C   UNL     1      -0.594  12.075  20.891  0.00  0.00    +0.000 A 
ATOM     25  C   UNL     1      -0.134  10.792  21.185  0.00  0.00    +0.000 A 
ATOM     26  C   UNL     1       0.602  10.064  20.233  0.00  0.00    +0.000 A 
ATOM     27  C   UNL     1       1.096   8.775  20.504  0.00  0.00    +0.000 A 
ENDBRANCH  17  18
ENDBRANCH  14  16
TORSDOF 2
ENDMDL
MODEL 4
REMARK VINA RESULT:      -7.7      2.120      4.285
REMARK  Name = 
REMARK  3 active torsions:
REMARK  status: ('A' for Active; 'I' for Inactive)
REMARK    1  A    between atoms: C_1  and  C_2
REMARK    2  A    between atoms: C_14  and  C_15
REMARK    3  A    between atoms: C_16  and  C_17
REMARK                            x       y       z     vdW  Elec       q    Type
REMARK                         _______ _______ _______ _____ _____    ______ ____
ROOT
ATOM      1  C   UNL     1       7.833   5.532  18.530  0.00  0.00    +0.000 C 
ATOM      2  C   UNL     1       6.369   5.845  18.802  0.00  0.00    +0.000 C 
ATOM      3  O   UNL     1       5.935   6.806  17.833  0.00  0.00    +0.000 OA
ATOM      4  C   UNL     1       5.167   6.201  16.883  0.00  0.00    +0.000 C 
ATOM      5  O   UNL     1       4.736   6.789  15.897  0.00  0.00    +0.000 OA
ATOM      6  C   UNL     1       4.979   4.736  17.202  0.00  0.00    +0.000 C 
ATOM      7  C   UNL     1       3.580   4.276  16.891  0.00  0.00    +0.000 C 
ATOM      8  C   UNL     1       2.699   3.861  17.816  0.00  0.00    +0.000 C 
ATOM      9  C   UNL     1       1.326   3.334  17.476  0.00  0.00    +0.000 C 
ATOM     10  C   UNL     1       0.750   2.502  18.632  0.00  0.00    +0.000 C 
ATOM     11  C   UNL     1       1.809   1.562  19.233  0.00  0.00    +0.000 C 
ATOM     12  C   UNL     1       3.145   2.276  19.588  0.00  0.00    +0.000 C 
ATOM     13  C   UNL     1       3.050   3.779  19.284  0.00  0.00    +0.000 C 
ATOM     14  C   UNL     1       4.234   4.698  19.671  0.00  0.00    +0.000 C 
ATOM     15  C   UNL     1       5.415   4.647  18.663  0.00  0.00    +0.000 C 
ENDROOT
BRANCH  14  16
ATOM     16  C   UNL     1       3.641   6.099  19.818  0.00  0.00    +0.000 C 
ATOM     17  C   UNL     1       2.388   6.352  20.229  0.00  0.00    +0.000 C 
BRANCH  17  18
ATOM     18  C   UNL     1       1.794   7.696  20.300  0.00  0.00    +0.000 A 
ATOM     19  C   UNL     1       1.089   8.079  21.433  0.00  0.00    +0.000 A 
ATOM     20  N   UNL     1       0.440   9.261  21.585  0.00  0.00    +0.000 NA
ATOM     21  C   UNL     1       0.475  10.128  20.561  0.00  0.00    +0.000 A 
ATOM     22  C   UNL     1      -0.191  11.341  20.672  0.00  0.00    +0.000 A 
ATOM     23  C   UNL     1      -0.196  12.275  19.632  0.00  0.00    +0.000 A 
ATOM     24  C   UNL     1       0.484  12.000  18.452  0.00  0.00    +0.000 A 
ATOM     25  C   UNL     1       1.163  10.789  18.314  0.00  0.00    +0.000 A 
ATOM     26  C   UNL     1       1.161   9.849  19.360  0.00  0.00    +0.000 A 
ATOM     27  C   UNL     1       1.821   8.612  19.246  0.00  0.00    +0.000 A 
ENDBRANCH  17  18
ENDBRANCH  14  16
TORSDOF 2
ENDMDL
MODEL 5
REMARK VINA RESULT:      -7.2      3.677      9.350
REMARK  Name = 
REMARK  3 active torsions:
REMARK  status: ('A' for Active; 'I' for Inactive)
REMARK    1  A    between atoms: C_1  and  C_2
REMARK    2  A    between atoms: C_14  and  C_15
REMARK    3  A    between atoms: C_16  and  C_17
REMARK                            x       y       z     vdW  Elec       q    Type
REMARK                         _______ _______ _______ _____ _____    ______ ____
ROOT
ATOM      1  C   UNL     1       2.467  15.931  18.098  0.00  0.00    +0.000 C 
ATOM      2  C   UNL     1       1.945  14.596  18.608  0.00  0.00    +0.000 C 
ATOM      3  O   UNL     1       2.981  13.985  19.386  0.00  0.00    +0.000 OA
ATOM      4  C   UNL     1       2.698  14.096  20.715  0.00  0.00    +0.000 C 
ATOM      5  O   UNL     1       3.465  13.723  21.596  0.00  0.00    +0.000 OA
ATOM      6  C   UNL     1       1.361  14.769  20.922  0.00  0.00    +0.000 C 
ATOM      7  C   UNL     1       0.592  14.138  22.050  0.00  0.00    +0.000 C 
ATOM      8  C   UNL     1      -0.566  13.474  21.896  0.00  0.00    +0.000 C 
ATOM      9  C   UNL     1      -1.360  12.912  23.051  0.00  0.00    +0.000 C 
ATOM     10  C   UNL     1      -2.820  12.656  22.646  0.00  0.00    +0.000 C 
ATOM     11  C   UNL     1      -3.387  13.818  21.814  0.00  0.00    +0.000 C 
ATOM     12  C   UNL     1      -2.477  14.233  20.622  0.00  0.00    +0.000 C 
ATOM     13  C   UNL     1      -1.238  13.327  20.550  0.00  0.00    +0.000 C 
ATOM     14  C   UNL     1      -0.255  13.495  19.366  0.00  0.00    +0.000 C 
ATOM     15  C   UNL     1       0.722  14.690  19.536  0.00  0.00    +0.000 C 
ENDROOT
BRANCH  14  16
ATOM     16  C   UNL     1       0.465  12.154  19.231  0.00  0.00    +0.000 C 
ATOM     17  C   UNL     1      -0.001  10.992  19.715  0.00  0.00    +0.000 C 
BRANCH  17  18
ATOM     18  C   UNL     1       0.727   9.715  19.650  0.00  0.00    +0.000 A 
ATOM     19  C   UNL     1       0.709   8.856  20.740  0.00  0.00    +0.000 A 
ATOM     20  N   UNL     1       1.397   7.689  20.823  0.00  0.00    +0.000 NA
ATOM     21  C   UNL     1       2.159   7.338  19.775  0.00  0.00    +0.000 A 
ATOM     22  C   UNL     1       2.891   6.158  19.830  0.00  0.00    +0.000 A 
ATOM     23  C   UNL     1       3.708   5.751  18.772  0.00  0.00    +0.000 A 
ATOM     24  C   UNL     1       3.796   6.531  17.626  0.00  0.00    +0.000 A 
ATOM     25  C   UNL     1       3.071   7.720  17.544  0.00  0.00    +0.000 A 
ATOM     26  C   UNL     1       2.254   8.130  18.613  0.00  0.00    +0.000 A 
ATOM     27  C   UNL     1       1.523   9.332  18.569  0.00  0.00    +0.000 A 
ENDBRANCH  17  18
ENDBRANCH  14  16
TORSDOF 2
ENDMDL
MODEL 6
REMARK VINA RESULT:      -7.1      3.244      7.947
REMARK  Name = 
REMARK  3 active torsions:
REMARK  status: ('A' for Active; 'I' for Inactive)
REMARK    1  A    between atoms: C_1  and  C_2
REMARK    2  A    between atoms: C_14  and  C_15
REMARK    3  A    between atoms: C_16  and  C_17
REMARK                            x       y       z     vdW  Elec       q    Type
REMARK                         _______ _______ _______ _____ _____    ______ ____
ROOT
ATOM      1  C   UNL     1       1.830  13.409  20.930  0.00  0.00    +0.000 C 
ATOM      2  C   UNL     1       1.461  12.047  20.359  0.00  0.00    +0.000 C 
ATOM      3  O   UNL     1       1.159  11.176  21.455  0.00  0.00    +0.000 OA
ATOM      4  C   UNL     1      -0.188  11.000  21.559  0.00  0.00    +0.000 C 
ATOM      5  O   UNL     1      -0.713  10.361  22.464  0.00  0.00    +0.000 OA
ATOM      6  C   UNL     1      -0.909  11.731  20.449  0.00  0.00    +0.000 C 
ATOM      7  C   UNL     1      -2.068  10.930  19.919  0.00  0.00    +0.000 C 
ATOM      8  C   UNL     1      -2.136  10.434  18.673  0.00  0.00    +0.000 C 
ATOM      9  C   UNL     1      -3.339   9.696  18.138  0.00  0.00    +0.000 C 
ATOM     10  C   UNL     1      -3.342   9.682  16.601  0.00  0.00    +0.000 C 
ATOM     11  C   UNL     1      -2.959  11.055  16.023  0.00  0.00    +0.000 C 
ATOM     12  C   UNL     1      -1.658  11.648  16.636  0.00  0.00    +0.000 C 
ATOM     13  C   UNL     1      -1.046  10.670  17.651  0.00  0.00    +0.000 C 
ATOM     14  C   UNL     1       0.318  11.015  18.296  0.00  0.00    +0.000 C 
ATOM     15  C   UNL     1       0.214  12.038  19.459  0.00  0.00    +0.000 C 
ENDROOT
BRANCH  14  16
ATOM     16  C   UNL     1       0.920   9.680  18.732  0.00  0.00    +0.000 C 
ATOM     17  C   UNL     1       1.915   9.051  18.088  0.00  0.00    +0.000 C 
BRANCH  17  18
ATOM     18  C   UNL     1       2.443   7.731  18.466  0.00  0.00    +0.000 A 
ATOM     19  C   UNL     1       3.459   7.154  17.715  0.00  0.00    +0.000 A 
ATOM     20  N   UNL     1       3.976   5.917  17.924  0.00  0.00    +0.000 NA
ATOM     21  C   UNL     1       3.465   5.189  18.929  0.00  0.00    +0.000 A 
ATOM     22  C   UNL     1       3.957   3.911  19.163  0.00  0.00    +0.000 A 
ATOM     23  C   UNL     1       3.454   3.106  20.189  0.00  0.00    +0.000 A 
ATOM     24  C   UNL     1       2.440   3.584  21.008  0.00  0.00    +0.000 A 
ATOM     25  C   UNL     1       1.928   4.865  20.797  0.00  0.00    +0.000 A 
ATOM     26  C   UNL     1       2.432   5.670  19.760  0.00  0.00    +0.000 A 
ATOM     27  C   UNL     1       1.926   6.958  19.509  0.00  0.00    +0.000 A 
ENDBRANCH  17  18
ENDBRANCH  14  16
TORSDOF 2
ENDMDL
MODEL 7
REMARK VINA RESULT:      -7.1      2.890      7.211
REMARK  Name = 
REMARK  3 active torsions:
REMARK  status: ('A' for Active; 'I' for Inactive)
REMARK    1  A    between atoms: C_1  and  C_2
REMARK    2  A    between atoms: C_14  and  C_15
REMARK    3  A    between atoms: C_16  and  C_17
REMARK                            x       y       z     vdW  Elec       q    Type
REMARK                         _______ _______ _______ _____ _____    ______ ____
ROOT
ATOM      1  C   UNL     1       3.665   1.742  21.315  0.00  0.00    +0.000 C 
ATOM      2  C   UNL     1       3.984   2.700  20.176  0.00  0.00    +0.000 C 
ATOM      3  O   UNL     1       3.690   2.034  18.943  0.00  0.00    +0.000 OA
ATOM      4  C   UNL     1       2.524   2.508  18.419  0.00  0.00    +0.000 C 
ATOM      5  O   UNL     1       2.009   2.047  17.407  0.00  0.00    +0.000 OA
ATOM      6  C   UNL     1       1.965   3.618  19.280  0.00  0.00    +0.000 C 
ATOM      7  C   UNL     1       1.375   4.722  18.446  0.00  0.00    +0.000 C 
ATOM      8  C   UNL     1       1.864   5.973  18.394  0.00  0.00    +0.000 C 
ATOM      9  C   UNL     1       1.215   7.085  17.608  0.00  0.00    +0.000 C 
ATOM     10  C   UNL     1       1.681   8.462  18.109  0.00  0.00    +0.000 C 
ATOM     11  C   UNL     1       1.715   8.521  19.646  0.00  0.00    +0.000 C 
ATOM     12  C   UNL     1       2.479   7.333  20.298  0.00  0.00    +0.000 C 
ATOM     13  C   UNL     1       3.056   6.406  19.217  0.00  0.00    +0.000 C 
ATOM     14  C   UNL     1       3.952   5.220  19.648  0.00  0.00    +0.000 C 
ATOM     15  C   UNL     1       3.152   3.993  20.165  0.00  0.00    +0.000 C 
ENDROOT
BRANCH  14  16
ATOM     16  C   UNL     1       4.820   4.893  18.434  0.00  0.00    +0.000 C 
ATOM     17  C   UNL     1       4.821   5.597  17.291  0.00  0.00    +0.000 C 
BRANCH  17  18
ATOM     18  C   UNL     1       5.601   5.238  16.097  0.00  0.00    +0.000 A 
ATOM     19  C   UNL     1       6.866   5.781  15.911  0.00  0.00    +0.000 A 
ATOM     20  N   UNL     1       7.647   5.581  14.820  0.00  0.00    +0.000 NA
ATOM     21  C   UNL     1       7.162   4.804  13.839  0.00  0.00    +0.000 A 
ATOM     22  C   UNL     1       7.926   4.590  12.699  0.00  0.00    +0.000 A 
ATOM     23  C   UNL     1       7.464   3.798  11.644  0.00  0.00    +0.000 A 
ATOM     24  C   UNL     1       6.214   3.199  11.724  0.00  0.00    +0.000 A 
ATOM     25  C   UNL     1       5.426   3.396  12.859  0.00  0.00    +0.000 A 
ATOM     26  C   UNL     1       5.891   4.198  13.917  0.00  0.00    +0.000 A 
ATOM     27  C   UNL     1       5.115   4.431  15.066  0.00  0.00    +0.000 A 
ENDBRANCH  17  18
ENDBRANCH  14  16
TORSDOF 2
ENDMDL
MODEL 8
REMARK VINA RESULT:      -7.1      3.174      8.200
REMARK  Name = 
REMARK  3 active torsions:
REMARK  status: ('A' for Active; 'I' for Inactive)
REMARK    1  A    between atoms: C_1  and  C_2
REMARK    2  A    between atoms: C_14  and  C_15
REMARK    3  A    between atoms: C_16  and  C_17
REMARK                            x       y       z     vdW  Elec       q    Type
REMARK                         _______ _______ _______ _____ _____    ______ ____
ROOT
ATOM      1  C   UNL     1       1.374  13.977  21.279  0.00  0.00    +0.000 C 
ATOM      2  C   UNL     1       1.286  12.632  20.572  0.00  0.00    +0.000 C 
ATOM      3  O   UNL     1       1.201  11.611  21.574  0.00  0.00    +0.000 OA
ATOM      4  C   UNL     1      -0.076  11.145  21.662  0.00  0.00    +0.000 C 
ATOM      5  O   UNL     1      -0.433  10.322  22.499  0.00  0.00    +0.000 OA
ATOM      6  C   UNL     1      -0.961  11.814  20.635  0.00  0.00    +0.000 C 
ATOM      7  C   UNL     1      -1.938  10.843  20.029  0.00  0.00    +0.000 C 
ATOM      8  C   UNL     1      -1.930  10.470  18.738  0.00  0.00    +0.000 C 
ATOM      9  C   UNL     1      -2.963   9.552  18.133  0.00  0.00    +0.000 C 
ATOM     10  C   UNL     1      -3.000   9.691  16.603  0.00  0.00    +0.000 C 
ATOM     11  C   UNL     1      -2.929  11.164  16.169  0.00  0.00    +0.000 C 
ATOM     12  C   UNL     1      -1.767  11.955  16.835  0.00  0.00    +0.000 C 
ATOM     13  C   UNL     1      -0.939  11.032  17.744  0.00  0.00    +0.000 C 
ATOM     14  C   UNL     1       0.337  11.592  18.417  0.00  0.00    +0.000 C 
ATOM     15  C   UNL     1       0.048  12.449  19.679  0.00  0.00    +0.000 C 
ENDROOT
BRANCH  14  16
ATOM     16  C   UNL     1       1.216  10.378  18.713  0.00  0.00    +0.000 C 
ATOM     17  C   UNL     1       1.465   9.392  17.838  0.00  0.00    +0.000 C 
BRANCH  17  18
ATOM     18  C   UNL     1       2.251   8.187  18.147  0.00  0.00    +0.000 A 
ATOM     19  C   UNL     1       2.068   7.538  19.361  0.00  0.00    +0.000 A 
ATOM     20  N   UNL     1       2.782   6.465  19.786  0.00  0.00    +0.000 NA
ATOM     21  C   UNL     1       3.743   5.994  18.976  0.00  0.00    +0.000 A 
ATOM     22  C   UNL     1       4.506   4.907  19.383  0.00  0.00    +0.000 A 
ATOM     23  C   UNL     1       5.526   4.384  18.584  0.00  0.00    +0.000 A 
ATOM     24  C   UNL     1       5.792   4.951  17.344  0.00  0.00    +0.000 A 
ATOM     25  C   UNL     1       5.040   6.043  16.909  0.00  0.00    +0.000 A 
ATOM     26  C   UNL     1       4.018   6.571  17.718  0.00  0.00    +0.000 A 
ATOM     27  C   UNL     1       3.254   7.681  17.318  0.00  0.00    +0.000 A 
ENDBRANCH  17  18
ENDBRANCH  14  16
TORSDOF 2
ENDMDL
MODEL 9
REMARK VINA RESULT:      -6.9      2.435      4.432
REMARK  Name = 
REMARK  3 active torsions:
REMARK  status: ('A' for Active; 'I' for Inactive)
REMARK    1  A    between atoms: C_1  and  C_2
REMARK    2  A    between atoms: C_14  and  C_15
REMARK    3  A    between atoms: C_16  and  C_17
REMARK                            x       y       z     vdW  Elec       q    Type
REMARK                         _______ _______ _______ _____ _____    ______ ____
ROOT
ATOM      1  C   UNL     1       7.816   6.521  18.297  0.00  0.00    +0.000 C 
ATOM      2  C   UNL     1       6.308   6.703  18.394  0.00  0.00    +0.000 C 
ATOM      3  O   UNL     1       5.866   7.366  17.204  0.00  0.00    +0.000 OA
ATOM      4  C   UNL     1       5.255   6.478  16.371  0.00  0.00    +0.000 C 
ATOM      5  O   UNL     1       4.856   6.777  15.250  0.00  0.00    +0.000 OA
ATOM      6  C   UNL     1       5.193   5.107  17.004  0.00  0.00    +0.000 C 
ATOM      7  C   UNL     1       3.885   4.423  16.717  0.00  0.00    +0.000 C 
ATOM      8  C   UNL     1       2.971   4.116  17.653  0.00  0.00    +0.000 C 
ATOM      9  C   UNL     1       1.698   3.363  17.354  0.00  0.00    +0.000 C 
ATOM     10  C   UNL     1       1.109   2.742  18.630  0.00  0.00    +0.000 C 
ATOM     11  C   UNL     1       2.202   2.095  19.499  0.00  0.00    +0.000 C 
ATOM     12  C   UNL     1       3.418   3.028  19.767  0.00  0.00    +0.000 C 
ATOM     13  C   UNL     1       3.194   4.404  19.120  0.00  0.00    +0.000 C 
ATOM     14  C   UNL     1       4.234   5.524  19.362  0.00  0.00    +0.000 C 
ATOM     15  C   UNL     1       5.501   5.397  18.473  0.00  0.00    +0.000 C 
ENDROOT
BRANCH  14  16
ATOM     16  C   UNL     1       3.487   6.839  19.146  0.00  0.00    +0.000 C 
ATOM     17  C   UNL     1       2.300   7.135  19.697  0.00  0.00    +0.000 C 
BRANCH  17  18
ATOM     18  C   UNL     1       1.546   8.370  19.430  0.00  0.00    +0.000 A 
ATOM     19  C   UNL     1       1.691   9.462  20.275  0.00  0.00    +0.000 A 
ATOM     20  N   UNL     1       0.998  10.625  20.171  0.00  0.00    +0.000 NA
ATOM     21  C   UNL     1       0.100  10.729  19.180  0.00  0.00    +0.000 A 
ATOM     22  C   UNL     1      -0.640  11.898  19.051  0.00  0.00    +0.000 A 
ATOM     23  C   UNL     1      -1.596  12.055  18.044  0.00  0.00    +0.000 A 
ATOM     24  C   UNL     1      -1.820  11.028  17.136  0.00  0.00    +0.000 A 
ATOM     25  C   UNL     1      -1.089   9.844  17.241  0.00  0.00    +0.000 A 
ATOM     26  C   UNL     1      -0.132   9.686  18.259  0.00  0.00    +0.000 A 
ATOM     27  C   UNL     1       0.608   8.499  18.403  0.00  0.00    +0.000 A 
ENDBRANCH  17  18
ENDBRANCH  14  16
TORSDOF 2
ENDMDL
