MODEL 1
REMARK VINA RESULT:      -7.3      0.000      0.000
REMARK  Name = 
REMARK  6 active torsions:
REMARK  status: ('A' for Active; 'I' for Inactive)
REMARK    1  A    between atoms: N_2  and  C_4
REMARK    2  A    between atoms: C_7  and  C_8
REMARK    3  A    between atoms: C_8  and  O_9
REMARK    4  A    between atoms: C_8  and  C_10
REMARK    5  A    between atoms: C_10  and  N_11
REMARK    6  A    between atoms: N_14  and  C_15
REMARK                            x       y       z     vdW  Elec       q    Type
REMARK                         _______ _______ _______ _____ _____    ______ ____
ROOT
ATOM      1  C   UNL     1       3.896   4.937  19.221  0.00  0.00    +0.000 C 
ENDROOT
BRANCH   1   2
ATOM      2  N   UNL     1       2.462   5.147  18.938  0.00  0.00    +0.000 NA
ATOM      3  C   UNL     1       1.673   5.433  20.160  0.00  0.00    +0.000 C 
ATOM      4  C   UNL     1       2.035   6.763  20.848  0.00  0.00    +0.000 C 
ATOM      5  N   UNL     1       1.912   7.885  19.910  0.00  0.00    +0.000 N 
ATOM      6  C   UNL     1       2.508   7.712  18.574  0.00  0.00    +0.000 C 
ATOM      7  C   UNL     1       2.257   6.286  18.006  0.00  0.00    +0.000 C 
BRANCH   5   8
ATOM      8  C   UNL     1       1.040   8.931  20.145  0.00  0.00    +0.000 A 
ATOM      9  C   UNL     1       0.516   9.166  21.425  0.00  0.00    +0.000 A 
ATOM     10  C   UNL     1      -0.373  10.218  21.673  0.00  0.00    +0.000 A 
ATOM     11  C   UNL     1      -0.754  11.066  20.639  0.00  0.00    +0.000 A 
ATOM     12  C   UNL     1      -0.251  10.856  19.361  0.00  0.00    +0.000 A 
ATOM     13  C   UNL     1       0.632   9.802  19.121  0.00  0.00    +0.000 A 
ENDBRANCH   5   8
ENDBRANCH   1   2
BRANCH   1  14
ATOM     14  C   UNL     1       4.608   3.786  18.447  0.00  0.00    +0.000 C 
BRANCH  14  18
ATOM     15  C   UNL     1       6.757   4.688  14.786  0.00  0.00    +0.000 A 
ATOM     16  C   UNL     1       5.408   4.320  14.753  0.00  0.00    +0.000 A 
ATOM     17  C   UNL     1       4.745   4.039  15.952  0.00  0.00    +0.000 A 
ATOM     18  C   UNL     1       5.407   4.112  17.195  0.00  0.00    +0.000 A 
ATOM     19  C   UNL     1       6.760   4.485  17.204  0.00  0.00    +0.000 A 
ATOM     20  C   UNL     1       7.433   4.774  16.009  0.00  0.00    +0.000 A 
BRANCH  15  22
ATOM     21  O   UNL     1       8.385   5.807  13.571  0.00  0.00    +0.000 OA
ATOM     22  N   UNL     1       7.462   4.980  13.536  0.00  0.00    +0.000 N 
ATOM     23  O   UNL     1       7.089   4.387  12.509  0.00  0.00    +0.000 OA
ENDBRANCH  15  22
ENDBRANCH  14  18
BRANCH  14  24
ATOM     24  O   UNL     1       5.491   3.126  19.366  0.00  0.00    +0.000 OA
ATOM     25  H   UNL     1       5.434   2.174  19.177  0.00  0.00    +0.000 HD
ENDBRANCH  14  24
ENDBRANCH   1  14
TORSDOF 6
ENDMDL
MODEL 2
REMARK VINA RESULT:      -7.2      1.661      2.477
REMARK  Name = 
REMARK  6 active torsions:
REMARK  status: ('A' for Active; 'I' for Inactive)
REMARK    1  A    between atoms: N_2  and  C_4
REMARK    2  A    between atoms: C_7  and  C_8
REMARK    3  A    between atoms: C_8  and  O_9
REMARK    4  A    between atoms: C_8  and  C_10
REMARK    5  A    between atoms: C_10  and  N_11
REMARK    6  A    between atoms: N_14  and  C_15
REMARK                            x       y       z     vdW  Elec       q    Type
REMARK                         _______ _______ _______ _____ _____    ______ ____
ROOT
ATOM      1  C   UNL     1       2.836   2.478  19.713  0.00  0.00    +0.000 C 
ENDROOT
BRANCH   1   2
ATOM      2  N   UNL     1       1.550   3.201  19.786  0.00  0.00    +0.000 NA
ATOM      3  C   UNL     1       1.518   4.206  20.874  0.00  0.00    +0.000 C 
ATOM      4  C   UNL     1       2.503   5.376  20.681  0.00  0.00    +0.000 C 
ATOM      5  N   UNL     1       2.276   6.039  19.392  0.00  0.00    +0.000 N 
ATOM      6  C   UNL     1       2.123   5.175  18.209  0.00  0.00    +0.000 C 
ATOM      7  C   UNL     1       1.261   3.917  18.517  0.00  0.00    +0.000 C 
BRANCH   5   8
ATOM      8  C   UNL     1       1.932   7.375  19.318  0.00  0.00    +0.000 A 
ATOM      9  C   UNL     1       1.416   8.055  20.432  0.00  0.00    +0.000 A 
ATOM     10  C   UNL     1       1.057   9.406  20.366  0.00  0.00    +0.000 A 
ATOM     11  C   UNL     1       1.213  10.111  19.178  0.00  0.00    +0.000 A 
ATOM     12  C   UNL     1       1.719   9.463  18.058  0.00  0.00    +0.000 A 
ATOM     13  C   UNL     1       2.071   8.113  18.131  0.00  0.00    +0.000 A 
ENDBRANCH   5   8
ENDBRANCH   1   2
BRANCH   1  14
ATOM     14  C   UNL     1       3.381   2.147  18.291  0.00  0.00    +0.000 C 
BRANCH  14  18
ATOM     15  C   UNL     1       6.320   4.852  16.595  0.00  0.00    +0.000 A 
ATOM     16  C   UNL     1       6.185   4.718  17.980  0.00  0.00    +0.000 A 
ATOM     17  C   UNL     1       5.229   3.836  18.493  0.00  0.00    +0.000 A 
ATOM     18  C   UNL     1       4.394   3.080  17.645  0.00  0.00    +0.000 A 
ATOM     19  C   UNL     1       4.550   3.229  16.258  0.00  0.00    +0.000 A 
ATOM     20  C   UNL     1       5.507   4.106  15.733  0.00  0.00    +0.000 A 
BRANCH  15  22
ATOM     21  O   UNL     1       7.775   5.535  14.922  0.00  0.00    +0.000 OA
ATOM     22  N   UNL     1       7.315   5.778  16.048  0.00  0.00    +0.000 N 
ATOM     23  O   UNL     1       7.647   6.751  16.747  0.00  0.00    +0.000 OA
ENDBRANCH  15  22
ENDBRANCH  14  18
BRANCH  14  24
ATOM     24  O   UNL     1       3.970   0.838  18.344  0.00  0.00    +0.000 OA
ATOM     25  H   UNL     1       3.237   0.199  18.322  0.00  0.00    +0.000 HD
ENDBRANCH  14  24
ENDBRANCH   1  14
TORSDOF 6
ENDMDL
MODEL 3
REMARK VINA RESULT:      -7.2      2.120      2.889
REMARK  Name = 
REMARK  6 active torsions:
REMARK  status: ('A' for Active; 'I' for Inactive)
REMARK    1  A    between atoms: N_2  and  C_4
REMARK    2  A    between atoms: C_7  and  C_8
REMARK    3  A    between atoms: C_8  and  O_9
REMARK    4  A    between atoms: C_8  and  C_10
REMARK    5  A    between atoms: C_10  and  N_11
REMARK    6  A    between atoms: N_14  and  C_15
REMARK                            x       y       z     vdW  Elec       q    Type
REMARK                         _______ _______ _______ _____ _____    ______ ____
ROOT
ATOM      1  C   UNL     1       2.717   2.766  19.110  0.00  0.00    +0.000 C 
ENDROOT
BRANCH   1   2
ATOM      2  N   UNL     1       1.422   3.472  19.022  0.00  0.00    +0.000 NA
ATOM      3  C   UNL     1       1.052   4.151  20.285  0.00  0.00    +0.000 C 
ATOM      4  C   UNL     1       1.991   5.309  20.678  0.00  0.00    +0.000 C 
ATOM      5  N   UNL     1       2.080   6.296  19.596  0.00  0.00    +0.000 N 
ATOM      6  C   UNL     1       2.289   5.781  18.231  0.00  0.00    +0.000 C 
ATOM      7  C   UNL     1       1.443   4.506  17.955  0.00  0.00    +0.000 C 
BRANCH   5   8
ATOM      8  C   UNL     1       1.699   7.611  19.784  0.00  0.00    +0.000 A 
ATOM      9  C   UNL     1       1.724   8.532  18.726  0.00  0.00    +0.000 A 
ATOM     10  C   UNL     1       1.348   9.868  18.907  0.00  0.00    +0.000 A 
ATOM     11  C   UNL     1       0.931  10.311  20.156  0.00  0.00    +0.000 A 
ATOM     12  C   UNL     1       0.898   9.421  21.223  0.00  0.00    +0.000 A 
ATOM     13  C   UNL     1       1.279   8.091  21.035  0.00  0.00    +0.000 A 
ENDBRANCH   5   8
ENDBRANCH   1   2
BRANCH   1  14
ATOM     14  C   UNL     1       3.647   2.837  17.861  0.00  0.00    +0.000 C 
BRANCH  14  18
ATOM     15  C   UNL     1       6.679   5.939  17.784  0.00  0.00    +0.000 A 
ATOM     16  C   UNL     1       6.292   5.345  18.989  0.00  0.00    +0.000 A 
ATOM     17  C   UNL     1       5.314   4.347  18.978  0.00  0.00    +0.000 A 
ATOM     18  C   UNL     1       4.703   3.927  17.778  0.00  0.00    +0.000 A 
ATOM     19  C   UNL     1       5.109   4.535  16.581  0.00  0.00    +0.000 A 
ATOM     20  C   UNL     1       6.092   5.534  16.579  0.00  0.00    +0.000 A 
BRANCH  15  22
ATOM     21  O   UNL     1       8.373   7.142  18.817  0.00  0.00    +0.000 OA
ATOM     22  N   UNL     1       7.700   6.990  17.786  0.00  0.00    +0.000 N 
ATOM     23  O   UNL     1       7.830   7.672  16.756  0.00  0.00    +0.000 OA
ENDBRANCH  15  22
ENDBRANCH  14  18
BRANCH  14  24
ATOM     24  O   UNL     1       4.318   1.572  17.748  0.00  0.00    +0.000 OA
ATOM     25  H   UNL     1       4.446   1.239  18.653  0.00  0.00    +0.000 HD
ENDBRANCH  14  24
ENDBRANCH   1  14
TORSDOF 6
ENDMDL
MODEL 4
REMARK VINA RESULT:      -7.2      1.754      2.551
REMARK  Name = 
REMARK  6 active torsions:
REMARK  status: ('A' for Active; 'I' for Inactive)
REMARK    1  A    between atoms: N_2  and  C_4
REMARK    2  A    between atoms: C_7  and  C_8
REMARK    3  A    between atoms: C_8  and  O_9
REMARK    4  A    between atoms: C_8  and  C_10
REMARK    5  A    between atoms: C_10  and  N_11
REMARK    6  A    between atoms: N_14  and  C_15
REMARK                            x       y       z     vdW  Elec       q    Type
REMARK                         _______ _______ _______ _____ _____    ______ ____
ROOT
ATOM      1  C   UNL     1       2.708   2.300  19.700  0.00  0.00    +0.000 C 
ENDROOT
BRANCH   1   2
ATOM      2  N   UNL     1       1.413   3.009  19.736  0.00  0.00    +0.000 NA
ATOM      3  C   UNL     1       1.270   3.882  20.925  0.00  0.00    +0.000 C 
ATOM      4  C   UNL     1       2.256   5.067  20.960  0.00  0.00    +0.000 C 
ATOM      5  N   UNL     1       2.141   5.874  19.740  0.00  0.00    +0.000 N 
ATOM      6  C   UNL     1       2.106   5.153  18.456  0.00  0.00    +0.000 C 
ATOM      7  C   UNL     1       1.234   3.868  18.536  0.00  0.00    +0.000 C 
BRANCH   5   8
ATOM      8  C   UNL     1       1.789   7.210  19.789  0.00  0.00    +0.000 A 
ATOM      9  C   UNL     1       1.955   8.045  18.673  0.00  0.00    +0.000 A 
ATOM     10  C   UNL     1       1.610   9.400  18.712  0.00  0.00    +0.000 A 
ATOM     11  C   UNL     1       1.083   9.951  19.874  0.00  0.00    +0.000 A 
ATOM     12  C   UNL     1       0.910   9.149  20.995  0.00  0.00    +0.000 A 
ATOM     13  C   UNL     1       1.261   7.798  20.949  0.00  0.00    +0.000 A 
ENDBRANCH   5   8
ENDBRANCH   1   2
BRANCH   1  14
ATOM     14  C   UNL     1       3.371   2.109  18.301  0.00  0.00    +0.000 C 
BRANCH  14  18
ATOM     15  C   UNL     1       6.219   4.996  16.759  0.00  0.00    +0.000 A 
ATOM     16  C   UNL     1       5.310   4.362  15.907  0.00  0.00    +0.000 A 
ATOM     17  C   UNL     1       4.404   3.438  16.438  0.00  0.00    +0.000 A 
ATOM     18  C   UNL     1       4.389   3.127  17.813  0.00  0.00    +0.000 A 
ATOM     19  C   UNL     1       5.309   3.778  18.649  0.00  0.00    +0.000 A 
ATOM     20  C   UNL     1       6.219   4.709  18.129  0.00  0.00    +0.000 A 
BRANCH  15  22
ATOM     21  O   UNL     1       7.737   5.680  15.143  0.00  0.00    +0.000 OA
ATOM     22  N   UNL     1       7.176   5.962  16.212  0.00  0.00    +0.000 N 
ATOM     23  O   UNL     1       7.374   7.007  16.855  0.00  0.00    +0.000 OA
ENDBRANCH  15  22
ENDBRANCH  14  18
BRANCH  14  24
ATOM     24  O   UNL     1       4.006   0.822  18.294  0.00  0.00    +0.000 OA
ATOM     25  H   UNL     1       4.879   0.936  18.707  0.00  0.00    +0.000 HD
ENDBRANCH  14  24
ENDBRANCH   1  14
TORSDOF 6
ENDMDL
MODEL 5
REMARK VINA RESULT:      -7.2      2.097      2.780
REMARK  Name = 
REMARK  6 active torsions:
REMARK  status: ('A' for Active; 'I' for Inactive)
REMARK    1  A    between atoms: N_2  and  C_4
REMARK    2  A    between atoms: C_7  and  C_8
REMARK    3  A    between atoms: C_8  and  O_9
REMARK    4  A    between atoms: C_8  and  C_10
REMARK    5  A    between atoms: C_10  and  N_11
REMARK    6  A    between atoms: N_14  and  C_15
REMARK                            x       y       z     vdW  Elec       q    Type
REMARK                         _______ _______ _______ _____ _____    ______ ____
ROOT
ATOM      1  C   UNL     1       2.626   2.729  19.187  0.00  0.00    +0.000 C 
ENDROOT
BRANCH   1   2
ATOM      2  N   UNL     1       1.346   3.455  19.054  0.00  0.00    +0.000 NA
ATOM      3  C   UNL     1       0.988   4.212  20.276  0.00  0.00    +0.000 C 
ATOM      4  C   UNL     1       1.950   5.370  20.606  0.00  0.00    +0.000 C 
ATOM      5  N   UNL     1       2.062   6.293  19.471  0.00  0.00    +0.000 N 
ATOM      6  C   UNL     1       2.264   5.698  18.138  0.00  0.00    +0.000 C 
ATOM      7  C   UNL     1       1.392   4.428  17.931  0.00  0.00    +0.000 C 
BRANCH   5   8
ATOM      8  C   UNL     1       1.709   7.624  19.584  0.00  0.00    +0.000 A 
ATOM      9  C   UNL     1       1.238   8.150  20.797  0.00  0.00    +0.000 A 
ATOM     10  C   UNL     1       0.871   9.494  20.921  0.00  0.00    +0.000 A 
ATOM     11  C   UNL     1       0.973  10.348  19.829  0.00  0.00    +0.000 A 
ATOM     12  C   UNL     1       1.435   9.854  18.615  0.00  0.00    +0.000 A 
ATOM     13  C   UNL     1       1.795   8.510  18.498  0.00  0.00    +0.000 A 
ENDBRANCH   5   8
ENDBRANCH   1   2
BRANCH   1  14
ATOM     14  C   UNL     1       3.582   2.750  17.955  0.00  0.00    +0.000 C 
BRANCH  14  18
ATOM     15  C   UNL     1       6.634   5.832  17.847  0.00  0.00    +0.000 A 
ATOM     16  C   UNL     1       6.105   5.391  19.063  0.00  0.00    +0.000 A 
ATOM     17  C   UNL     1       5.124   4.395  19.062  0.00  0.00    +0.000 A 
ATOM     18  C   UNL     1       4.652   3.827  17.860  0.00  0.00    +0.000 A 
ATOM     19  C   UNL     1       5.199   4.283  16.652  0.00  0.00    +0.000 A 
ATOM     20  C   UNL     1       6.186   5.278  16.641  0.00  0.00    +0.000 A 
BRANCH  15  22
ATOM     21  O   UNL     1       7.777   7.565  16.810  0.00  0.00    +0.000 OA
ATOM     22  N   UNL     1       7.659   6.879  17.837  0.00  0.00    +0.000 N 
ATOM     23  O   UNL     1       8.357   7.015  18.856  0.00  0.00    +0.000 OA
ENDBRANCH  15  22
ENDBRANCH  14  18
BRANCH  14  24
ATOM     24  O   UNL     1       4.241   1.476  17.895  0.00  0.00    +0.000 OA
ATOM     25  H   UNL     1       3.544   0.799  17.875  0.00  0.00    +0.000 HD
ENDBRANCH  14  24
ENDBRANCH   1  14
TORSDOF 6
ENDMDL
MODEL 6
REMARK VINA RESULT:      -7.2      1.650      2.636
REMARK  Name = 
REMARK  6 active torsions:
REMARK  status: ('A' for Active; 'I' for Inactive)
REMARK    1  A    between atoms: N_2  and  C_4
REMARK    2  A    between atoms: C_7  and  C_8
REMARK    3  A    between atoms: C_8  and  O_9
REMARK    4  A    between atoms: C_8  and  C_10
REMARK    5  A    between atoms: C_10  and  N_11
REMARK    6  A    between atoms: N_14  and  C_15
REMARK                            x       y       z     vdW  Elec       q    Type
REMARK                         _______ _______ _______ _____ _____    ______ ____
ROOT
ATOM      1  C   UNL     1       3.007   2.478  19.846  0.00  0.00    +0.000 C 
ENDROOT
BRANCH   1   2
ATOM      2  N   UNL     1       1.739   3.208  20.050  0.00  0.00    +0.000 NA
ATOM      3  C   UNL     1       1.859   4.301  21.043  0.00  0.00    +0.000 C 
ATOM      4  C   UNL     1       2.792   5.448  20.609  0.00  0.00    +0.000 C 
ATOM      5  N   UNL     1       2.369   6.002  19.318  0.00  0.00    +0.000 N 
ATOM      6  C   UNL     1       2.050   5.042  18.246  0.00  0.00    +0.000 C 
ATOM      7  C   UNL     1       1.257   3.817  18.782  0.00  0.00    +0.000 C 
BRANCH   5   8
ATOM      8  C   UNL     1       2.004   7.328  19.184  0.00  0.00    +0.000 A 
ATOM      9  C   UNL     1       2.206   8.019  17.980  0.00  0.00    +0.000 A 
ATOM     10  C   UNL     1       1.848   9.364  17.836  0.00  0.00    +0.000 A 
ATOM     11  C   UNL     1       1.269  10.048  18.899  0.00  0.00    +0.000 A 
ATOM     12  C   UNL     1       1.058   9.389  20.103  0.00  0.00    +0.000 A 
ATOM     13  C   UNL     1       1.424   8.048  20.241  0.00  0.00    +0.000 A 
ENDBRANCH   5   8
ENDBRANCH   1   2
BRANCH   1  14
ATOM     14  C   UNL     1       3.424   2.183  18.373  0.00  0.00    +0.000 C 
BRANCH  14  18
ATOM     15  C   UNL     1       6.342   4.830  16.556  0.00  0.00    +0.000 A 
ATOM     16  C   UNL     1       6.240   4.723  17.946  0.00  0.00    +0.000 A 
ATOM     17  C   UNL     1       5.290   3.859  18.499  0.00  0.00    +0.000 A 
ATOM     18  C   UNL     1       4.427   3.095  17.685  0.00  0.00    +0.000 A 
ATOM     19  C   UNL     1       4.550   3.216  16.293  0.00  0.00    +0.000 A 
ATOM     20  C   UNL     1       5.502   4.076  15.728  0.00  0.00    +0.000 A 
BRANCH  15  22
ATOM     21  O   UNL     1       7.647   6.747  16.612  0.00  0.00    +0.000 OA
ATOM     22  N   UNL     1       7.332   5.736  15.967  0.00  0.00    +0.000 N 
ATOM     23  O   UNL     1       7.793   5.443  14.851  0.00  0.00    +0.000 OA
ENDBRANCH  15  22
ENDBRANCH  14  18
BRANCH  14  24
ATOM     24  O   UNL     1       3.949   0.848  18.330  0.00  0.00    +0.000 OA
ATOM     25  H   UNL     1       4.530   0.799  17.552  0.00  0.00    +0.000 HD
ENDBRANCH  14  24
ENDBRANCH   1  14
TORSDOF 6
ENDMDL
MODEL 7
REMARK VINA RESULT:      -7.1      5.606      7.496
REMARK  Name = 
REMARK  6 active torsions:
REMARK  status: ('A' for Active; 'I' for Inactive)
REMARK    1  A    between atoms: N_2  and  C_4
REMARK    2  A    between atoms: C_7  and  C_8
REMARK    3  A    between atoms: C_8  and  O_9
REMARK    4  A    between atoms: C_8  and  C_10
REMARK    5  A    between atoms: C_10  and  N_11
REMARK    6  A    between atoms: N_14  and  C_15
REMARK                            x       y       z     vdW  Elec       q    Type
REMARK                         _______ _______ _______ _____ _____    ______ ____
ROOT
ATOM      1  C   UNL     1       6.864   7.992  17.588  0.00  0.00    +0.000 C 
ENDROOT
BRANCH   1   2
ATOM      2  N   UNL     1       6.666   6.756  16.804  0.00  0.00    +0.000 NA
ATOM      3  C   UNL     1       6.820   5.529  17.620  0.00  0.00    +0.000 C 
ATOM      4  C   UNL     1       5.746   5.359  18.713  0.00  0.00    +0.000 C 
ATOM      5  N   UNL     1       4.400   5.397  18.129  0.00  0.00    +0.000 N 
ATOM      6  C   UNL     1       4.116   6.471  17.162  0.00  0.00    +0.000 C 
ATOM      7  C   UNL     1       5.310   6.714  16.196  0.00  0.00    +0.000 C 
BRANCH   5   8
ATOM      8  C   UNL     1       3.532   4.327  18.244  0.00  0.00    +0.000 A 
ATOM      9  C   UNL     1       4.011   3.011  18.332  0.00  0.00    +0.000 A 
ATOM     10  C   UNL     1       3.141   1.920  18.440  0.00  0.00    +0.000 A 
ATOM     11  C   UNL     1       1.767   2.125  18.470  0.00  0.00    +0.000 A 
ATOM     12  C   UNL     1       1.265   3.417  18.383  0.00  0.00    +0.000 A 
ATOM     13  C   UNL     1       2.139   4.501  18.270  0.00  0.00    +0.000 A 
ENDBRANCH   5   8
ENDBRANCH   1   2
BRANCH   1  14
ATOM     14  C   UNL     1       8.328   8.347  17.989  0.00  0.00    +0.000 C 
BRANCH  14  18
ATOM     15  C   UNL     1       9.408  12.405  19.084  0.00  0.00    +0.000 A 
ATOM     16  C   UNL     1       9.757  11.326  19.901  0.00  0.00    +0.000 A 
ATOM     17  C   UNL     1       9.395  10.031  19.517  0.00  0.00    +0.000 A 
ATOM     18  C   UNL     1       8.681   9.788  18.326  0.00  0.00    +0.000 A 
ATOM     19  C   UNL     1       8.344  10.886  17.520  0.00  0.00    +0.000 A 
ATOM     20  C   UNL     1       8.705  12.188  17.892  0.00  0.00    +0.000 A 
BRANCH  15  22
ATOM     21  O   UNL     1      10.049  14.577  18.582  0.00  0.00    +0.000 OA
ATOM     22  N   UNL     1       9.778  13.766  19.480  0.00  0.00    +0.000 N 
ATOM     23  O   UNL     1       9.805  14.028  20.694  0.00  0.00    +0.000 OA
ENDBRANCH  15  22
ENDBRANCH  14  18
BRANCH  14  24
ATOM     24  O   UNL     1       8.676   7.539  19.124  0.00  0.00    +0.000 OA
ATOM     25  H   UNL     1       9.635   7.387  19.078  0.00  0.00    +0.000 HD
ENDBRANCH  14  24
ENDBRANCH   1  14
TORSDOF 6
ENDMDL
MODEL 8
REMARK VINA RESULT:      -7.1      0.448      1.586
REMARK  Name = 
REMARK  6 active torsions:
REMARK  status: ('A' for Active; 'I' for Inactive)
REMARK    1  A    between atoms: N_2  and  C_4
REMARK    2  A    between atoms: C_7  and  C_8
REMARK    3  A    between atoms: C_8  and  O_9
REMARK    4  A    between atoms: C_8  and  C_10
REMARK    5  A    between atoms: C_10  and  N_11
REMARK    6  A    between atoms: N_14  and  C_15
REMARK                            x       y       z     vdW  Elec       q    Type
REMARK                         _______ _______ _______ _____ _____    ______ ____
ROOT
ATOM      1  C   UNL     1       3.967   5.276  19.113  0.00  0.00    +0.000 C 
ENDROOT
BRANCH   1   2
ATOM      2  N   UNL     1       2.520   5.410  18.848  0.00  0.00    +0.000 NA
ATOM      3  C   UNL     1       1.751   5.808  20.051  0.00  0.00    +0.000 C 
ATOM      4  C   UNL     1       2.086   7.219  20.575  0.00  0.00    +0.000 C 
ATOM      5  N   UNL     1       1.903   8.222  19.521  0.00  0.00    +0.000 N 
ATOM      6  C   UNL     1       2.472   7.917  18.196  0.00  0.00    +0.000 C 
ATOM      7  C   UNL     1       2.255   6.429  17.800  0.00  0.00    +0.000 C 
BRANCH   5   8
ATOM      8  C   UNL     1       1.004   9.262  19.660  0.00  0.00    +0.000 A 
ATOM      9  C   UNL     1       0.456   9.903  18.538  0.00  0.00    +0.000 A 
ATOM     10  C   UNL     1      -0.450  10.962  18.667  0.00  0.00    +0.000 A 
ATOM     11  C   UNL     1      -0.834  11.400  19.930  0.00  0.00    +0.000 A 
ATOM     12  C   UNL     1      -0.306  10.784  21.058  0.00  0.00    +0.000 A 
ATOM     13  C   UNL     1       0.601   9.731  20.921  0.00  0.00    +0.000 A 
ENDBRANCH   5   8
ENDBRANCH   1   2
BRANCH   1  14
ATOM     14  C   UNL     1       4.704   4.088  18.424  0.00  0.00    +0.000 C 
BRANCH  14  18
ATOM     15  C   UNL     1       6.794   4.766  14.682  0.00  0.00    +0.000 A 
ATOM     16  C   UNL     1       7.437   4.963  15.908  0.00  0.00    +0.000 A 
ATOM     17  C   UNL     1       6.735   4.734  17.094  0.00  0.00    +0.000 A 
ATOM     18  C   UNL     1       5.389   4.311  17.085  0.00  0.00    +0.000 A 
ATOM     19  C   UNL     1       4.765   4.117  15.843  0.00  0.00    +0.000 A 
ATOM     20  C   UNL     1       5.460   4.340  14.647  0.00  0.00    +0.000 A 
BRANCH  15  22
ATOM     21  O   UNL     1       7.179   4.363  12.430  0.00  0.00    +0.000 OA
ATOM     22  N   UNL     1       7.520   5.009  13.432  0.00  0.00    +0.000 N 
ATOM     23  O   UNL     1       8.439   5.844  13.451  0.00  0.00    +0.000 OA
ENDBRANCH  15  22
ENDBRANCH  14  18
BRANCH  14  24
ATOM     24  O   UNL     1       5.695   3.601  19.342  0.00  0.00    +0.000 OA
ATOM     25  H   UNL     1       5.238   3.004  19.958  0.00  0.00    +0.000 HD
ENDBRANCH  14  24
ENDBRANCH   1  14
TORSDOF 6
ENDMDL
MODEL 9
REMARK VINA RESULT:      -7.1      5.574      7.346
REMARK  Name = 
REMARK  6 active torsions:
REMARK  status: ('A' for Active; 'I' for Inactive)
REMARK    1  A    between atoms: N_2  and  C_4
REMARK    2  A    between atoms: C_7  and  C_8
REMARK    3  A    between atoms: C_8  and  O_9
REMARK    4  A    between atoms: C_8  and  C_10
REMARK    5  A    between atoms: C_10  and  N_11
REMARK    6  A    between atoms: N_14  and  C_15
REMARK                            x       y       z     vdW  Elec       q    Type
REMARK                         _______ _______ _______ _____ _____    ______ ____
ROOT
ATOM      1  C   UNL     1       6.815   7.966  17.610  0.00  0.00    +0.000 C 
ENDROOT
BRANCH   1   2
ATOM      2  N   UNL     1       6.591   6.688  16.905  0.00  0.00    +0.000 NA
ATOM      3  C   UNL     1       6.660   5.515  17.808  0.00  0.00    +0.000 C 
ATOM      4  C   UNL     1       5.541   5.466  18.866  0.00  0.00    +0.000 C 
ATOM      5  N   UNL     1       4.220   5.519  18.229  0.00  0.00    +0.000 N 
ATOM      6  C   UNL     1       4.020   6.534  17.180  0.00  0.00    +0.000 C 
ATOM      7  C   UNL     1       5.258   6.659  16.248  0.00  0.00    +0.000 C 
BRANCH   5   8
ATOM      8  C   UNL     1       3.303   4.497  18.381  0.00  0.00    +0.000 A 
ATOM      9  C   UNL     1       2.331   4.539  19.393  0.00  0.00    +0.000 A 
ATOM     10  C   UNL     1       1.401   3.507  19.562  0.00  0.00    +0.000 A 
ATOM     11  C   UNL     1       1.421   2.406  18.713  0.00  0.00    +0.000 A 
ATOM     12  C   UNL     1       2.374   2.337  17.704  0.00  0.00    +0.000 A 
ATOM     13  C   UNL     1       3.301   3.369  17.545  0.00  0.00    +0.000 A 
ENDBRANCH   5   8
ENDBRANCH   1   2
BRANCH   1  14
ATOM     14  C   UNL     1       8.287   8.320  17.982  0.00  0.00    +0.000 C 
BRANCH  14  18
ATOM     15  C   UNL     1       9.387  12.376  19.063  0.00  0.00    +0.000 A 
ATOM     16  C   UNL     1       9.729  11.297  19.885  0.00  0.00    +0.000 A 
ATOM     17  C   UNL     1       9.360  10.003  19.505  0.00  0.00    +0.000 A 
ATOM     18  C   UNL     1       8.647   9.759  18.313  0.00  0.00    +0.000 A 
ATOM     19  C   UNL     1       8.318  10.856  17.503  0.00  0.00    +0.000 A 
ATOM     20  C   UNL     1       8.685  12.158  17.871  0.00  0.00    +0.000 A 
BRANCH  15  22
ATOM     21  O   UNL     1       8.855  14.562  19.628  0.00  0.00    +0.000 OA
ATOM     22  N   UNL     1       9.764  13.736  19.454  0.00  0.00    +0.000 N 
ATOM     23  O   UNL     1      10.975  13.986  19.583  0.00  0.00    +0.000 OA
ENDBRANCH  15  22
ENDBRANCH  14  18
BRANCH  14  24
ATOM     24  O   UNL     1       8.657   7.509  19.108  0.00  0.00    +0.000 OA
ATOM     25  H   UNL     1       9.465   7.900  19.482  0.00  0.00    +0.000 HD
ENDBRANCH  14  24
ENDBRANCH   1  14
TORSDOF 6
ENDMDL
