MODEL 1
REMARK VINA RESULT:      -7.6      0.000      0.000
REMARK  Name = 
REMARK  9 active torsions:
REMARK  status: ('A' for Active; 'I' for Inactive)
REMARK    1  A    between atoms: C_1  and  C_2
REMARK    2  A    between atoms: C_2  and  O_3
REMARK    3  A    between atoms: O_3  and  C_4
REMARK    4  A    between atoms: C_7  and  N_8
REMARK    5  A    between atoms: C_9  and  S_10
REMARK    6  A    between atoms: S_10  and  C_11
REMARK    7  A    between atoms: C_11  and  C_12
REMARK    8  A    between atoms: C_17  and  C_18
REMARK    9  A    between atoms: C_23  and  C_24
REMARK                            x       y       z     vdW  Elec       q    Type
REMARK                         _______ _______ _______ _____ _____    ______ ____
ROOT
ATOM      1  N   UNL     1       2.340   7.587  18.768  0.00  0.00    +0.000 N 
ATOM      2  C   UNL     1       1.600   8.739  18.998  0.00  0.00    +0.000 A 
ATOM      3  N   UNL     1       1.990   9.687  18.178  0.00  0.00    +0.000 NA
ATOM      4  N   UNL     1       3.034   9.184  17.434  0.00  0.00    +0.000 NA
ATOM      5  C   UNL     1       3.301   7.945  17.832  0.00  0.00    +0.000 A 
ENDROOT
BRANCH   5   6
ATOM      6  C   UNL     1       4.394   7.109  17.186  0.00  0.00    +0.000 A 
ATOM      7  C   UNL     1       4.600   7.288  15.828  0.00  0.00    +0.000 A 
ATOM      8  N   UNL     1       5.251   6.179  15.384  0.00  0.00    +0.000 N 
ATOM      9  C   UNL     1       5.991   5.668  16.420  0.00  0.00    +0.000 A 
ATOM     10  C   UNL     1       7.119   4.836  16.353  0.00  0.00    +0.000 A 
ATOM     11  C   UNL     1       7.700   4.469  17.559  0.00  0.00    +0.000 A 
ATOM     12  C   UNL     1       7.101   4.809  18.758  0.00  0.00    +0.000 A 
ATOM     13  C   UNL     1       5.932   5.615  18.806  0.00  0.00    +0.000 A 
ATOM     14  C   UNL     1       5.392   6.135  17.604  0.00  0.00    +0.000 A 
ATOM     15  H   UNL     1       5.300   5.864  14.425  0.00  0.00    +0.000 HD
ENDBRANCH   5   6
BRANCH   1  19
ATOM     16  C   UNL     1       1.993   3.594  19.813  0.00  0.00    +0.000 A 
ATOM     17  C   UNL     1       1.660   4.005  18.521  0.00  0.00    +0.000 A 
ATOM     18  C   UNL     1       1.686   5.349  18.198  0.00  0.00    +0.000 A 
ATOM     19  C   UNL     1       2.044   6.278  19.177  0.00  0.00    +0.000 A 
ATOM     20  C   UNL     1       2.217   5.901  20.507  0.00  0.00    +0.000 A 
ATOM     21  C   UNL     1       2.201   4.543  20.817  0.00  0.00    +0.000 A 
BRANCH  16  22
ATOM     22  O   UNL     1       2.181   2.288  20.182  0.00  0.00    +0.000 OA
BRANCH  22  24
ATOM     23  C   UNL     1       4.544   2.042  19.848  0.00  0.00    +0.000 C 
ATOM     24  C   UNL     1       3.167   1.601  19.409  0.00  0.00    +0.000 C 
ENDBRANCH  22  24
ENDBRANCH  16  22
ENDBRANCH   1  19
BRANCH   2  25
ATOM     25  S   UNL     1       0.214   8.823  20.045  0.00  0.00    +0.000 S 
BRANCH  25  26
ATOM     26  C   UNL     1      -0.129  10.598  20.233  0.00  0.00    +0.000 C 
BRANCH  26  27
ATOM     27  C   UNL     1      -1.283  11.058  19.346  0.00  0.00    +0.000 C 
ATOM     28  O   UNL     1      -2.034  11.959  19.705  0.00  0.00    +0.000 OA
ATOM     29  N   UNL     1      -1.325  10.360  18.155  0.00  0.00    +0.000 N 
ATOM     30  C   UNL     1      -2.249  10.571  17.147  0.00  0.00    +0.000 A 
ATOM     31  C   UNL     1      -2.328   9.766  15.989  0.00  0.00    +0.000 A 
ATOM     32  C   UNL     1      -3.345  10.314  15.254  0.00  0.00    +0.000 A 
ATOM     33  C   UNL     1      -3.963  10.010  13.950  0.00  0.00    +0.000 C 
ATOM     34  O   UNL     1      -3.858  11.375  15.930  0.00  0.00    +0.000 OA
ATOM     35  N   UNL     1      -3.172  11.533  17.117  0.00  0.00    +0.000 NA
ATOM     36  H   UNL     1      -0.671   9.587  18.004  0.00  0.00    +0.000 HD
ENDBRANCH  26  27
ENDBRANCH  25  26
ENDBRANCH   2  25
TORSDOF 7
ENDMDL
MODEL 2
REMARK VINA RESULT:      -7.4      3.504     10.398
REMARK  Name = 
REMARK  9 active torsions:
REMARK  status: ('A' for Active; 'I' for Inactive)
REMARK    1  A    between atoms: C_1  and  C_2
REMARK    2  A    between atoms: C_2  and  O_3
REMARK    3  A    between atoms: O_3  and  C_4
REMARK    4  A    between atoms: C_7  and  N_8
REMARK    5  A    between atoms: C_9  and  S_10
REMARK    6  A    between atoms: S_10  and  C_11
REMARK    7  A    between atoms: C_11  and  C_12
REMARK    8  A    between atoms: C_17  and  C_18
REMARK    9  A    between atoms: C_23  and  C_24
REMARK                            x       y       z     vdW  Elec       q    Type
REMARK                         _______ _______ _______ _____ _____    ______ ____
ROOT
ATOM      1  N   UNL     1      -1.613  11.131  19.151  0.00  0.00    +0.000 N 
ATOM      2  C   UNL     1      -0.622  10.300  18.645  0.00  0.00    +0.000 A 
ATOM      3  N   UNL     1      -1.003   9.810  17.489  0.00  0.00    +0.000 NA
ATOM      4  N   UNL     1      -2.277  10.272  17.245  0.00  0.00    +0.000 NA
ATOM      5  C   UNL     1      -2.682  11.008  18.274  0.00  0.00    +0.000 A 
ENDROOT
BRANCH   5   6
ATOM      6  C   UNL     1      -4.046  11.678  18.298  0.00  0.00    +0.000 A 
ATOM      7  C   UNL     1      -4.736  11.737  17.098  0.00  0.00    +0.000 A 
ATOM      8  N   UNL     1      -5.658  12.730  17.228  0.00  0.00    +0.000 N 
ATOM      9  C   UNL     1      -6.000  12.832  18.552  0.00  0.00    +0.000 A 
ATOM     10  C   UNL     1      -7.170  13.372  19.107  0.00  0.00    +0.000 A 
ATOM     11  C   UNL     1      -7.282  13.340  20.490  0.00  0.00    +0.000 A 
ATOM     12  C   UNL     1      -6.222  12.912  21.270  0.00  0.00    +0.000 A 
ATOM     13  C   UNL     1      -5.026  12.410  20.691  0.00  0.00    +0.000 A 
ATOM     14  C   UNL     1      -4.929  12.286  19.283  0.00  0.00    +0.000 A 
ATOM     15  H   UNL     1      -6.120  13.213  16.471  0.00  0.00    +0.000 HD
ENDBRANCH   5   6
BRANCH   1  19
ATOM     16  C   UNL     1      -1.823  14.039  22.093  0.00  0.00    +0.000 A 
ATOM     17  C   UNL     1      -1.586  14.408  20.768  0.00  0.00    +0.000 A 
ATOM     18  C   UNL     1      -1.423  13.434  19.800  0.00  0.00    +0.000 A 
ATOM     19  C   UNL     1      -1.495  12.089  20.169  0.00  0.00    +0.000 A 
ATOM     20  C   UNL     1      -1.565  11.705  21.507  0.00  0.00    +0.000 A 
ATOM     21  C   UNL     1      -1.742  12.696  22.471  0.00  0.00    +0.000 A 
BRANCH  16  22
ATOM     22  O   UNL     1      -2.184  14.913  23.085  0.00  0.00    +0.000 OA
BRANCH  22  24
ATOM     23  C   UNL     1      -1.740  15.941  25.206  0.00  0.00    +0.000 C 
ATOM     24  C   UNL     1      -1.395  14.805  24.272  0.00  0.00    +0.000 C 
ENDBRANCH  22  24
ENDBRANCH  16  22
ENDBRANCH   1  19
BRANCH   2  25
ATOM     25  S   UNL     1       0.967  10.135  19.332  0.00  0.00    +0.000 S 
BRANCH  25  26
ATOM     26  C   UNL     1       2.035   9.649  17.944  0.00  0.00    +0.000 C 
BRANCH  26  27
ATOM     27  C   UNL     1       2.573   8.228  18.102  0.00  0.00    +0.000 C 
ATOM     28  O   UNL     1       3.389   7.772  17.310  0.00  0.00    +0.000 OA
ATOM     29  N   UNL     1       2.043   7.600  19.212  0.00  0.00    +0.000 N 
ATOM     30  C   UNL     1       2.359   6.315  19.619  0.00  0.00    +0.000 A 
ATOM     31  C   UNL     1       1.717   5.666  20.697  0.00  0.00    +0.000 A 
ATOM     32  C   UNL     1       2.325   4.441  20.775  0.00  0.00    +0.000 A 
ATOM     33  C   UNL     1       2.182   3.267  21.655  0.00  0.00    +0.000 C 
ATOM     34  O   UNL     1       3.265   4.351  19.799  0.00  0.00    +0.000 OA
ATOM     35  N   UNL     1       3.283   5.524  19.073  0.00  0.00    +0.000 NA
ATOM     36  H   UNL     1       1.321   8.075  19.761  0.00  0.00    +0.000 HD
ENDBRANCH  26  27
ENDBRANCH  25  26
ENDBRANCH   2  25
TORSDOF 7
ENDMDL
MODEL 3
REMARK VINA RESULT:      -7.3      5.430      9.845
REMARK  Name = 
REMARK  9 active torsions:
REMARK  status: ('A' for Active; 'I' for Inactive)
REMARK    1  A    between atoms: C_1  and  C_2
REMARK    2  A    between atoms: C_2  and  O_3
REMARK    3  A    between atoms: O_3  and  C_4
REMARK    4  A    between atoms: C_7  and  N_8
REMARK    5  A    between atoms: C_9  and  S_10
REMARK    6  A    between atoms: S_10  and  C_11
REMARK    7  A    between atoms: C_11  and  C_12
REMARK    8  A    between atoms: C_17  and  C_18
REMARK    9  A    between atoms: C_23  and  C_24
REMARK                            x       y       z     vdW  Elec       q    Type
REMARK                         _______ _______ _______ _____ _____    ______ ____
ROOT
ATOM      1  N   UNL     1      -4.429  13.155  20.946  0.00  0.00    +0.000 N 
ATOM      2  C   UNL     1      -5.079  13.087  22.171  0.00  0.00    +0.000 A 
ATOM      3  N   UNL     1      -6.040  12.195  22.116  0.00  0.00    +0.000 NA
ATOM      4  N   UNL     1      -6.070  11.702  20.831  0.00  0.00    +0.000 NA
ATOM      5  C   UNL     1      -5.153  12.326  20.099  0.00  0.00    +0.000 A 
ENDROOT
BRANCH   5   6
ATOM      6  C   UNL     1      -4.925  11.989  18.634  0.00  0.00    +0.000 A 
ATOM      7  C   UNL     1      -5.719  12.647  17.709  0.00  0.00    +0.000 A 
ATOM      8  N   UNL     1      -5.688  11.901  16.570  0.00  0.00    +0.000 N 
ATOM      9  C   UNL     1      -4.491  11.232  16.524  0.00  0.00    +0.000 A 
ATOM     10  C   UNL     1      -3.830  10.712  15.401  0.00  0.00    +0.000 A 
ATOM     11  C   UNL     1      -2.612  10.088  15.623  0.00  0.00    +0.000 A 
ATOM     12  C   UNL     1      -2.152   9.883  16.911  0.00  0.00    +0.000 A 
ATOM     13  C   UNL     1      -2.858  10.377  18.041  0.00  0.00    +0.000 A 
ATOM     14  C   UNL     1      -4.030  11.150  17.850  0.00  0.00    +0.000 A 
ATOM     15  H   UNL     1      -6.360  11.940  15.818  0.00  0.00    +0.000 HD
ENDBRANCH   5   6
BRANCH   1  19
ATOM     16  C   UNL     1      -0.894  14.824  19.580  0.00  0.00    +0.000 A 
ATOM     17  C   UNL     1      -1.031  13.436  19.633  0.00  0.00    +0.000 A 
ATOM     18  C   UNL     1      -2.173  12.877  20.176  0.00  0.00    +0.000 A 
ATOM     19  C   UNL     1      -3.175  13.716  20.667  0.00  0.00    +0.000 A 
ATOM     20  C   UNL     1      -2.982  15.093  20.772  0.00  0.00    +0.000 A 
ATOM     21  C   UNL     1      -1.832  15.644  20.210  0.00  0.00    +0.000 A 
BRANCH  16  22
ATOM     22  O   UNL     1       0.101  15.475  18.899  0.00  0.00    +0.000 OA
BRANCH  22  24
ATOM     23  C   UNL     1       2.439  16.014  18.887  0.00  0.00    +0.000 C 
ATOM     24  C   UNL     1       1.406  14.935  19.118  0.00  0.00    +0.000 C 
ENDBRANCH  22  24
ENDBRANCH  16  22
ENDBRANCH   1  19
BRANCH   2  25
ATOM     25  S   UNL     1      -4.536  13.891  23.616  0.00  0.00    +0.000 S 
BRANCH  25  26
ATOM     26  C   UNL     1      -3.464  12.687  24.454  0.00  0.00    +0.000 C 
BRANCH  26  27
ATOM     27  C   UNL     1      -2.142  12.482  23.717  0.00  0.00    +0.000 C 
ATOM     28  O   UNL     1      -1.397  13.428  23.487  0.00  0.00    +0.000 OA
ATOM     29  N   UNL     1      -1.933  11.155  23.399  0.00  0.00    +0.000 N 
ATOM     30  C   UNL     1      -0.814  10.666  22.747  0.00  0.00    +0.000 A 
ATOM     31  C   UNL     1      -0.683   9.319  22.341  0.00  0.00    +0.000 A 
ATOM     32  C   UNL     1       0.555   9.251  21.759  0.00  0.00    +0.000 A 
ATOM     33  C   UNL     1       1.351   8.177  21.137  0.00  0.00    +0.000 C 
ATOM     34  O   UNL     1       1.130  10.481  21.798  0.00  0.00    +0.000 OA
ATOM     35  N   UNL     1       0.269  11.367  22.413  0.00  0.00    +0.000 NA
ATOM     36  H   UNL     1      -2.666  10.469  23.598  0.00  0.00    +0.000 HD
ENDBRANCH  26  27
ENDBRANCH  25  26
ENDBRANCH   2  25
TORSDOF 7
ENDMDL
MODEL 4
REMARK VINA RESULT:      -7.3      3.442     10.359
REMARK  Name = 
REMARK  9 active torsions:
REMARK  status: ('A' for Active; 'I' for Inactive)
REMARK    1  A    between atoms: C_1  and  C_2
REMARK    2  A    between atoms: C_2  and  O_3
REMARK    3  A    between atoms: O_3  and  C_4
REMARK    4  A    between atoms: C_7  and  N_8
REMARK    5  A    between atoms: C_9  and  S_10
REMARK    6  A    between atoms: S_10  and  C_11
REMARK    7  A    between atoms: C_11  and  C_12
REMARK    8  A    between atoms: C_17  and  C_18
REMARK    9  A    between atoms: C_23  and  C_24
REMARK                            x       y       z     vdW  Elec       q    Type
REMARK                         _______ _______ _______ _____ _____    ______ ____
ROOT
ATOM      1  N   UNL     1      -1.567  11.183  19.120  0.00  0.00    +0.000 N 
ATOM      2  C   UNL     1      -0.592  10.353  18.583  0.00  0.00    +0.000 A 
ATOM      3  N   UNL     1      -1.018   9.843  17.451  0.00  0.00    +0.000 NA
ATOM      4  N   UNL     1      -2.304  10.292  17.255  0.00  0.00    +0.000 NA
ATOM      5  C   UNL     1      -2.671  11.040  18.291  0.00  0.00    +0.000 A 
ENDROOT
BRANCH   5   6
ATOM      6  C   UNL     1      -4.039  11.701  18.363  0.00  0.00    +0.000 A 
ATOM      7  C   UNL     1      -4.774  11.749  17.190  0.00  0.00    +0.000 A 
ATOM      8  N   UNL     1      -5.697  12.736  17.350  0.00  0.00    +0.000 N 
ATOM      9  C   UNL     1      -5.990  12.841  18.686  0.00  0.00    +0.000 A 
ATOM     10  C   UNL     1      -7.142  13.376  19.283  0.00  0.00    +0.000 A 
ATOM     11  C   UNL     1      -7.200  13.350  20.668  0.00  0.00    +0.000 A 
ATOM     12  C   UNL     1      -6.109  12.933  21.409  0.00  0.00    +0.000 A 
ATOM     13  C   UNL     1      -4.932  12.437  20.788  0.00  0.00    +0.000 A 
ATOM     14  C   UNL     1      -4.888  12.307  19.378  0.00  0.00    +0.000 A 
ATOM     15  H   UNL     1      -6.191  13.212  16.609  0.00  0.00    +0.000 HD
ENDBRANCH   5   6
BRANCH   1  19
ATOM     16  C   UNL     1      -0.576  13.887  22.096  0.00  0.00    +0.000 A 
ATOM     17  C   UNL     1      -1.033  12.614  22.440  0.00  0.00    +0.000 A 
ATOM     18  C   UNL     1      -1.453  11.743  21.451  0.00  0.00    +0.000 A 
ATOM     19  C   UNL     1      -1.414  12.156  20.117  0.00  0.00    +0.000 A 
ATOM     20  C   UNL     1      -1.118  13.474  19.774  0.00  0.00    +0.000 A 
ATOM     21  C   UNL     1      -0.684  14.338  20.778  0.00  0.00    +0.000 A 
BRANCH  16  22
ATOM     22  O   UNL     1       0.035  14.749  22.969  0.00  0.00    +0.000 OA
BRANCH  22  24
ATOM     23  C   UNL     1      -1.255  15.366  24.896  0.00  0.00    +0.000 C 
ATOM     24  C   UNL     1      -0.833  15.754  23.498  0.00  0.00    +0.000 C 
ENDBRANCH  22  24
ENDBRANCH  16  22
ENDBRANCH   1  19
BRANCH   2  25
ATOM     25  S   UNL     1       1.026  10.209  19.204  0.00  0.00    +0.000 S 
BRANCH  25  26
ATOM     26  C   UNL     1       1.826   8.958  18.156  0.00  0.00    +0.000 C 
BRANCH  26  27
ATOM     27  C   UNL     1       2.132   7.674  18.924  0.00  0.00    +0.000 C 
ATOM     28  O   UNL     1       2.148   7.662  20.150  0.00  0.00    +0.000 OA
ATOM     29  N   UNL     1       2.348   6.607  18.074  0.00  0.00    +0.000 N 
ATOM     30  C   UNL     1       2.629   5.315  18.482  0.00  0.00    +0.000 A 
ATOM     31  C   UNL     1       2.952   4.273  17.585  0.00  0.00    +0.000 A 
ATOM     32  C   UNL     1       3.137   3.175  18.382  0.00  0.00    +0.000 A 
ATOM     33  C   UNL     1       3.474   1.760  18.136  0.00  0.00    +0.000 C 
ATOM     34  O   UNL     1       2.953   3.532  19.679  0.00  0.00    +0.000 OA
ATOM     35  N   UNL     1       2.638   4.874  19.741  0.00  0.00    +0.000 NA
ATOM     36  H   UNL     1       2.364   6.766  17.063  0.00  0.00    +0.000 HD
ENDBRANCH  26  27
ENDBRANCH  25  26
ENDBRANCH   2  25
TORSDOF 7
ENDMDL
MODEL 5
REMARK VINA RESULT:      -7.3      3.559     10.610
REMARK  Name = 
REMARK  9 active torsions:
REMARK  status: ('A' for Active; 'I' for Inactive)
REMARK    1  A    between atoms: C_1  and  C_2
REMARK    2  A    between atoms: C_2  and  O_3
REMARK    3  A    between atoms: O_3  and  C_4
REMARK    4  A    between atoms: C_7  and  N_8
REMARK    5  A    between atoms: C_9  and  S_10
REMARK    6  A    between atoms: S_10  and  C_11
REMARK    7  A    between atoms: C_11  and  C_12
REMARK    8  A    between atoms: C_17  and  C_18
REMARK    9  A    between atoms: C_23  and  C_24
REMARK                            x       y       z     vdW  Elec       q    Type
REMARK                         _______ _______ _______ _____ _____    ______ ____
ROOT
ATOM      1  N   UNL     1      -1.617  11.324  19.422  0.00  0.00    +0.000 N 
ATOM      2  C   UNL     1      -0.514  10.557  19.071  0.00  0.00    +0.000 A 
ATOM      3  N   UNL     1      -0.721   9.990  17.906  0.00  0.00    +0.000 NA
ATOM      4  N   UNL     1      -1.990  10.336  17.499  0.00  0.00    +0.000 NA
ATOM      5  C   UNL     1      -2.565  11.079  18.439  0.00  0.00    +0.000 A 
ENDROOT
BRANCH   5   6
ATOM      6  C   UNL     1      -3.971  11.636  18.277  0.00  0.00    +0.000 A 
ATOM      7  C   UNL     1      -4.494  11.655  16.995  0.00  0.00    +0.000 A 
ATOM      8  N   UNL     1      -5.503  12.568  17.000  0.00  0.00    +0.000 N 
ATOM      9  C   UNL     1      -6.029  12.624  18.265  0.00  0.00    +0.000 A 
ATOM     10  C   UNL     1      -7.304  13.061  18.656  0.00  0.00    +0.000 A 
ATOM     11  C   UNL     1      -7.599  13.001  20.010  0.00  0.00    +0.000 A 
ATOM     12  C   UNL     1      -6.625  12.650  20.927  0.00  0.00    +0.000 A 
ATOM     13  C   UNL     1      -5.324  12.254  20.516  0.00  0.00    +0.000 A 
ATOM     14  C   UNL     1      -5.026  12.157  19.134  0.00  0.00    +0.000 A 
ATOM     15  H   UNL     1      -5.895  13.022  16.188  0.00  0.00    +0.000 HD
ENDBRANCH   5   6
BRANCH   1  19
ATOM     16  C   UNL     1      -2.374  14.350  22.146  0.00  0.00    +0.000 A 
ATOM     17  C   UNL     1      -1.936  14.669  20.860  0.00  0.00    +0.000 A 
ATOM     18  C   UNL     1      -1.593  13.659  19.980  0.00  0.00    +0.000 A 
ATOM     19  C   UNL     1      -1.690  12.329  20.397  0.00  0.00    +0.000 A 
ATOM     20  C   UNL     1      -1.965  12.003  21.724  0.00  0.00    +0.000 A 
ATOM     21  C   UNL     1      -2.321  13.030  22.597  0.00  0.00    +0.000 A 
BRANCH  16  22
ATOM     22  O   UNL     1      -2.913  15.255  23.023  0.00  0.00    +0.000 OA
BRANCH  22  24
ATOM     23  C   UNL     1      -5.209  15.685  22.478  0.00  0.00    +0.000 C 
ATOM     24  C   UNL     1      -4.259  14.965  23.406  0.00  0.00    +0.000 C 
ENDBRANCH  22  24
ENDBRANCH  16  22
ENDBRANCH   1  19
BRANCH   2  25
ATOM     25  S   UNL     1       0.994  10.550  19.938  0.00  0.00    +0.000 S 
BRANCH  25  26
ATOM     26  C   UNL     1       1.106   8.895  20.681  0.00  0.00    +0.000 C 
BRANCH  26  27
ATOM     27  C   UNL     1       1.875   7.917  19.795  0.00  0.00    +0.000 C 
ATOM     28  O   UNL     1       2.262   8.249  18.680  0.00  0.00    +0.000 OA
ATOM     29  N   UNL     1       2.066   6.701  20.420  0.00  0.00    +0.000 N 
ATOM     30  C   UNL     1       2.744   5.627  19.869  0.00  0.00    +0.000 A 
ATOM     31  C   UNL     1       2.827   4.362  20.492  0.00  0.00    +0.000 A 
ATOM     32  C   UNL     1       3.586   3.605  19.640  0.00  0.00    +0.000 A 
ATOM     33  C   UNL     1       4.084   2.217  19.651  0.00  0.00    +0.000 C 
ATOM     34  O   UNL     1       3.929   4.359  18.564  0.00  0.00    +0.000 OA
ATOM     35  N   UNL     1       3.398   5.625  18.707  0.00  0.00    +0.000 NA
ATOM     36  H   UNL     1       1.638   6.533  21.334  0.00  0.00    +0.000 HD
ENDBRANCH  26  27
ENDBRANCH  25  26
ENDBRANCH   2  25
TORSDOF 7
ENDMDL
MODEL 6
REMARK VINA RESULT:      -7.3      3.634     10.503
REMARK  Name = 
REMARK  9 active torsions:
REMARK  status: ('A' for Active; 'I' for Inactive)
REMARK    1  A    between atoms: C_1  and  C_2
REMARK    2  A    between atoms: C_2  and  O_3
REMARK    3  A    between atoms: O_3  and  C_4
REMARK    4  A    between atoms: C_7  and  N_8
REMARK    5  A    between atoms: C_9  and  S_10
REMARK    6  A    between atoms: S_10  and  C_11
REMARK    7  A    between atoms: C_11  and  C_12
REMARK    8  A    between atoms: C_17  and  C_18
REMARK    9  A    between atoms: C_23  and  C_24
REMARK                            x       y       z     vdW  Elec       q    Type
REMARK                         _______ _______ _______ _____ _____    ______ ____
ROOT
ATOM      1  N   UNL     1      -1.575  11.334  19.583  0.00  0.00    +0.000 N 
ATOM      2  C   UNL     1      -0.478  10.629  19.106  0.00  0.00    +0.000 A 
ATOM      3  N   UNL     1      -0.714  10.217  17.882  0.00  0.00    +0.000 NA
ATOM      4  N   UNL     1      -1.996  10.602  17.559  0.00  0.00    +0.000 NA
ATOM      5  C   UNL     1      -2.549  11.210  18.602  0.00  0.00    +0.000 A 
ENDROOT
BRANCH   5   6
ATOM      6  C   UNL     1      -3.961  11.771  18.552  0.00  0.00    +0.000 A 
ATOM      7  C   UNL     1      -4.605  11.739  17.326  0.00  0.00    +0.000 A 
ATOM      8  N   UNL     1      -5.605  12.660  17.388  0.00  0.00    +0.000 N 
ATOM      9  C   UNL     1      -6.007  12.775  18.694  0.00  0.00    +0.000 A 
ATOM     10  C   UNL     1      -7.237  13.238  19.187  0.00  0.00    +0.000 A 
ATOM     11  C   UNL     1      -7.400  13.239  20.564  0.00  0.00    +0.000 A 
ATOM     12  C   UNL     1      -6.343  12.920  21.397  0.00  0.00    +0.000 A 
ATOM     13  C   UNL     1      -5.090  12.496  20.881  0.00  0.00    +0.000 A 
ATOM     14  C   UNL     1      -4.927  12.337  19.482  0.00  0.00    +0.000 A 
ATOM     15  H   UNL     1      -6.072  13.082  16.598  0.00  0.00    +0.000 HD
ENDBRANCH   5   6
BRANCH   1  19
ATOM     16  C   UNL     1      -1.175  13.795  22.890  0.00  0.00    +0.000 A 
ATOM     17  C   UNL     1      -1.485  12.445  23.064  0.00  0.00    +0.000 A 
ATOM     18  C   UNL     1      -1.711  11.643  21.960  0.00  0.00    +0.000 A 
ATOM     19  C   UNL     1      -1.626  12.203  20.683  0.00  0.00    +0.000 A 
ATOM     20  C   UNL     1      -1.482  13.577  20.500  0.00  0.00    +0.000 A 
ATOM     21  C   UNL     1      -1.243  14.372  21.620  0.00  0.00    +0.000 A 
BRANCH  16  22
ATOM     22  O   UNL     1      -0.751  14.624  23.896  0.00  0.00    +0.000 OA
BRANCH  22  24
ATOM     23  C   UNL     1      -2.668  15.183  25.225  0.00  0.00    +0.000 C 
ATOM     24  C   UNL     1      -1.666  15.676  24.208  0.00  0.00    +0.000 C 
ENDBRANCH  22  24
ENDBRANCH  16  22
ENDBRANCH   1  19
BRANCH   2  25
ATOM     25  S   UNL     1       1.053  10.522  19.924  0.00  0.00    +0.000 S 
BRANCH  25  26
ATOM     26  C   UNL     1       1.096   8.850  20.634  0.00  0.00    +0.000 C 
BRANCH  26  27
ATOM     27  C   UNL     1       1.885   7.875  19.764  0.00  0.00    +0.000 C 
ATOM     28  O   UNL     1       2.288   8.205  18.654  0.00  0.00    +0.000 OA
ATOM     29  N   UNL     1       2.074   6.661  20.395  0.00  0.00    +0.000 N 
ATOM     30  C   UNL     1       2.767   5.590  19.858  0.00  0.00    +0.000 A 
ATOM     31  C   UNL     1       2.848   4.327  20.487  0.00  0.00    +0.000 A 
ATOM     32  C   UNL     1       3.625   3.573  19.649  0.00  0.00    +0.000 A 
ATOM     33  C   UNL     1       4.132   2.188  19.672  0.00  0.00    +0.000 C 
ATOM     34  O   UNL     1       3.981   4.326  18.577  0.00  0.00    +0.000 OA
ATOM     35  N   UNL     1       3.440   5.589  18.707  0.00  0.00    +0.000 NA
ATOM     36  H   UNL     1       1.632   6.494  21.303  0.00  0.00    +0.000 HD
ENDBRANCH  26  27
ENDBRANCH  25  26
ENDBRANCH   2  25
TORSDOF 7
ENDMDL
MODEL 7
REMARK VINA RESULT:      -7.2      3.961      7.901
REMARK  Name = 
REMARK  9 active torsions:
REMARK  status: ('A' for Active; 'I' for Inactive)
REMARK    1  A    between atoms: C_1  and  C_2
REMARK    2  A    between atoms: C_2  and  O_3
REMARK    3  A    between atoms: O_3  and  C_4
REMARK    4  A    between atoms: C_7  and  N_8
REMARK    5  A    between atoms: C_9  and  S_10
REMARK    6  A    between atoms: S_10  and  C_11
REMARK    7  A    between atoms: C_11  and  C_12
REMARK    8  A    between atoms: C_17  and  C_18
REMARK    9  A    between atoms: C_23  and  C_24
REMARK                            x       y       z     vdW  Elec       q    Type
REMARK                         _______ _______ _______ _____ _____    ______ ____
ROOT
ATOM      1  N   UNL     1       3.218   5.152  19.830  0.00  0.00    +0.000 N 
ATOM      2  C   UNL     1       2.986   3.867  20.301  0.00  0.00    +0.000 A 
ATOM      3  N   UNL     1       1.764   3.782  20.772  0.00  0.00    +0.000 NA
ATOM      4  N   UNL     1       1.193   5.030  20.665  0.00  0.00    +0.000 NA
ATOM      5  C   UNL     1       2.086   5.880  20.167  0.00  0.00    +0.000 A 
ENDROOT
BRANCH   5   6
ATOM      6  C   UNL     1       1.751   7.340  19.910  0.00  0.00    +0.000 A 
ATOM      7  C   UNL     1       1.785   7.769  18.593  0.00  0.00    +0.000 A 
ATOM      8  N   UNL     1       1.914   9.124  18.629  0.00  0.00    +0.000 N 
ATOM      9  C   UNL     1       1.338   9.582  19.786  0.00  0.00    +0.000 A 
ATOM     10  C   UNL     1       0.846  10.867  20.060  0.00  0.00    +0.000 A 
ATOM     11  C   UNL     1       0.291  11.072  21.315  0.00  0.00    +0.000 A 
ATOM     12  C   UNL     1       0.349  10.082  22.279  0.00  0.00    +0.000 A 
ATOM     13  C   UNL     1       0.893   8.800  21.997  0.00  0.00    +0.000 A 
ATOM     14  C   UNL     1       1.335   8.500  20.685  0.00  0.00    +0.000 A 
ATOM     15  H   UNL     1       2.244   9.708  17.874  0.00  0.00    +0.000 HD
ENDBRANCH   5   6
BRANCH   1  19
ATOM     16  C   UNL     1       6.195   6.921  17.558  0.00  0.00    +0.000 A 
ATOM     17  C   UNL     1       4.867   6.983  17.131  0.00  0.00    +0.000 A 
ATOM     18  C   UNL     1       3.885   6.313  17.838  0.00  0.00    +0.000 A 
ATOM     19  C   UNL     1       4.242   5.581  18.972  0.00  0.00    +0.000 A 
ATOM     20  C   UNL     1       5.577   5.376  19.314  0.00  0.00    +0.000 A 
ATOM     21  C   UNL     1       6.556   6.065  18.601  0.00  0.00    +0.000 A 
BRANCH  16  22
ATOM     22  O   UNL     1       7.206   7.693  17.047  0.00  0.00    +0.000 OA
BRANCH  22  24
ATOM     23  C   UNL     1       8.288   9.601  18.017  0.00  0.00    +0.000 C 
ATOM     24  C   UNL     1       8.178   8.094  18.014  0.00  0.00    +0.000 C 
ENDBRANCH  22  24
ENDBRANCH  16  22
ENDBRANCH   1  19
BRANCH   2  25
ATOM     25  S   UNL     1       4.071   2.526  20.076  0.00  0.00    +0.000 S 
BRANCH  25  26
ATOM     26  C   UNL     1       3.493   1.698  18.564  0.00  0.00    +0.000 C 
BRANCH  26  27
ATOM     27  C   UNL     1       3.608   2.598  17.336  0.00  0.00    +0.000 C 
ATOM     28  O   UNL     1       2.606   3.034  16.779  0.00  0.00    +0.000 OA
ATOM     29  N   UNL     1       4.924   2.837  16.996  0.00  0.00    +0.000 N 
ATOM     30  C   UNL     1       5.337   3.630  15.939  0.00  0.00    +0.000 A 
ATOM     31  C   UNL     1       6.690   3.765  15.555  0.00  0.00    +0.000 A 
ATOM     32  C   UNL     1       6.664   4.636  14.498  0.00  0.00    +0.000 A 
ATOM     33  C   UNL     1       7.689   5.236  13.625  0.00  0.00    +0.000 C 
ATOM     34  O   UNL     1       5.378   4.994  14.250  0.00  0.00    +0.000 OA
ATOM     35  N   UNL     1       4.547   4.360  15.151  0.00  0.00    +0.000 NA
ATOM     36  H   UNL     1       5.670   2.361  17.512  0.00  0.00    +0.000 HD
ENDBRANCH  26  27
ENDBRANCH  25  26
ENDBRANCH   2  25
TORSDOF 7
ENDMDL
MODEL 8
REMARK VINA RESULT:      -7.2      3.286      9.253
REMARK  Name = 
REMARK  9 active torsions:
REMARK  status: ('A' for Active; 'I' for Inactive)
REMARK    1  A    between atoms: C_1  and  C_2
REMARK    2  A    between atoms: C_2  and  O_3
REMARK    3  A    between atoms: O_3  and  C_4
REMARK    4  A    between atoms: C_7  and  N_8
REMARK    5  A    between atoms: C_9  and  S_10
REMARK    6  A    between atoms: S_10  and  C_11
REMARK    7  A    between atoms: C_11  and  C_12
REMARK    8  A    between atoms: C_17  and  C_18
REMARK    9  A    between atoms: C_23  and  C_24
REMARK                            x       y       z     vdW  Elec       q    Type
REMARK                         _______ _______ _______ _____ _____    ______ ____
ROOT
ATOM      1  N   UNL     1      -0.662  11.249  21.120  0.00  0.00    +0.000 N 
ATOM      2  C   UNL     1      -0.435  10.260  22.068  0.00  0.00    +0.000 A 
ATOM      3  N   UNL     1      -0.526  10.772  23.273  0.00  0.00    +0.000 NA
ATOM      4  N   UNL     1      -0.761  12.121  23.131  0.00  0.00    +0.000 NA
ATOM      5  C   UNL     1      -0.771  12.432  21.838  0.00  0.00    +0.000 A 
ENDROOT
BRANCH   5   6
ATOM      6  C   UNL     1      -1.026  13.850  21.353  0.00  0.00    +0.000 A 
ATOM      7  C   UNL     1      -1.918  14.613  22.088  0.00  0.00    +0.000 A 
ATOM      8  N   UNL     1      -2.339  15.615  21.269  0.00  0.00    +0.000 N 
ATOM      9  C   UNL     1      -1.341  15.885  20.368  0.00  0.00    +0.000 A 
ATOM     10  C   UNL     1      -1.124  17.065  19.641  0.00  0.00    +0.000 A 
ATOM     11  C   UNL     1      -0.022  17.090  18.798  0.00  0.00    +0.000 A 
ATOM     12  C   UNL     1       0.735  15.950  18.600  0.00  0.00    +0.000 A 
ATOM     13  C   UNL     1       0.474  14.748  19.312  0.00  0.00    +0.000 A 
ATOM     14  C   UNL     1      -0.549  14.725  20.292  0.00  0.00    +0.000 A 
ATOM     15  H   UNL     1      -3.177  16.166  21.388  0.00  0.00    +0.000 HD
ENDBRANCH   5   6
BRANCH   1  19
ATOM     16  C   UNL     1      -1.774  10.247  17.258  0.00  0.00    +0.000 A 
ATOM     17  C   UNL     1      -0.487   9.950  17.709  0.00  0.00    +0.000 A 
ATOM     18  C   UNL     1      -0.083  10.366  18.964  0.00  0.00    +0.000 A 
ATOM     19  C   UNL     1      -0.976  11.084  19.763  0.00  0.00    +0.000 A 
ATOM     20  C   UNL     1      -2.199  11.530  19.266  0.00  0.00    +0.000 A 
ATOM     21  C   UNL     1      -2.599  11.093  18.004  0.00  0.00    +0.000 A 
BRANCH  16  22
ATOM     22  O   UNL     1      -2.333   9.725  16.122  0.00  0.00    +0.000 OA
BRANCH  22  24
ATOM     23  C   UNL     1      -3.540  10.047  14.074  0.00  0.00    +0.000 C 
ATOM     24  C   UNL     1      -3.183  10.634  15.419  0.00  0.00    +0.000 C 
ENDBRANCH  22  24
ENDBRANCH  16  22
ENDBRANCH   1  19
BRANCH   2  25
ATOM     25  S   UNL     1      -0.293   8.565  21.705  0.00  0.00    +0.000 S 
BRANCH  25  26
ATOM     26  C   UNL     1       1.476   8.296  21.385  0.00  0.00    +0.000 C 
BRANCH  26  27
ATOM     27  C   UNL     1       1.735   6.982  20.653  0.00  0.00    +0.000 C 
ATOM     28  O   UNL     1       1.143   5.956  20.971  0.00  0.00    +0.000 OA
ATOM     29  N   UNL     1       2.659   7.134  19.638  0.00  0.00    +0.000 N 
ATOM     30  C   UNL     1       3.079   6.121  18.793  0.00  0.00    +0.000 A 
ATOM     31  C   UNL     1       4.105   6.287  17.836  0.00  0.00    +0.000 A 
ATOM     32  C   UNL     1       4.196   5.072  17.211  0.00  0.00    +0.000 A 
ATOM     33  C   UNL     1       5.023   4.528  16.118  0.00  0.00    +0.000 C 
ATOM     34  O   UNL     1       3.292   4.222  17.762  0.00  0.00    +0.000 OA
ATOM     35  N   UNL     1       2.595   4.879  18.756  0.00  0.00    +0.000 NA
ATOM     36  H   UNL     1       3.125   8.037  19.514  0.00  0.00    +0.000 HD
ENDBRANCH  26  27
ENDBRANCH  25  26
ENDBRANCH   2  25
TORSDOF 7
ENDMDL
MODEL 9
REMARK VINA RESULT:      -7.1      3.394      9.349
REMARK  Name = 
REMARK  9 active torsions:
REMARK  status: ('A' for Active; 'I' for Inactive)
REMARK    1  A    between atoms: C_1  and  C_2
REMARK    2  A    between atoms: C_2  and  O_3
REMARK    3  A    between atoms: O_3  and  C_4
REMARK    4  A    between atoms: C_7  and  N_8
REMARK    5  A    between atoms: C_9  and  S_10
REMARK    6  A    between atoms: S_10  and  C_11
REMARK    7  A    between atoms: C_11  and  C_12
REMARK    8  A    between atoms: C_17  and  C_18
REMARK    9  A    between atoms: C_23  and  C_24
REMARK                            x       y       z     vdW  Elec       q    Type
REMARK                         _______ _______ _______ _____ _____    ______ ____
ROOT
ATOM      1  N   UNL     1      -0.750  11.556  20.821  0.00  0.00    +0.000 N 
ATOM      2  C   UNL     1      -0.401  10.688  21.847  0.00  0.00    +0.000 A 
ATOM      3  N   UNL     1      -0.206  11.367  22.954  0.00  0.00    +0.000 NA
ATOM      4  N   UNL     1      -0.372  12.700  22.655  0.00  0.00    +0.000 NA
ATOM      5  C   UNL     1      -0.628  12.830  21.357  0.00  0.00    +0.000 A 
ENDROOT
BRANCH   5   6
ATOM      6  C   UNL     1      -0.880  14.187  20.718  0.00  0.00    +0.000 A 
ATOM      7  C   UNL     1      -2.033  14.854  21.099  0.00  0.00    +0.000 A 
ATOM      8  N   UNL     1      -2.295  15.766  20.123  0.00  0.00    +0.000 N 
ATOM      9  C   UNL     1      -1.107  16.131  19.543  0.00  0.00    +0.000 A 
ATOM     10  C   UNL     1      -0.813  17.304  18.832  0.00  0.00    +0.000 A 
ATOM     11  C   UNL     1       0.483  17.441  18.356  0.00  0.00    +0.000 A 
ATOM     12  C   UNL     1       1.388  16.402  18.473  0.00  0.00    +0.000 A 
ATOM     13  C   UNL     1       1.059  15.201  19.158  0.00  0.00    +0.000 A 
ATOM     14  C   UNL     1      -0.205  15.080  19.788  0.00  0.00    +0.000 A 
ATOM     15  H   UNL     1      -3.185  16.208  19.948  0.00  0.00    +0.000 HD
ENDBRANCH   5   6
BRANCH   1  19
ATOM     16  C   UNL     1      -2.312  11.115  17.011  0.00  0.00    +0.000 A 
ATOM     17  C   UNL     1      -3.065  11.750  18.000  0.00  0.00    +0.000 A 
ATOM     18  C   UNL     1      -2.585  11.815  19.295  0.00  0.00    +0.000 A 
ATOM     19  C   UNL     1      -1.348  11.239  19.593  0.00  0.00    +0.000 A 
ATOM     20  C   UNL     1      -0.665  10.462  18.659  0.00  0.00    +0.000 A 
ATOM     21  C   UNL     1      -1.153  10.414  17.354  0.00  0.00    +0.000 A 
BRANCH  16  22
ATOM     22  O   UNL     1      -2.603  11.159  15.672  0.00  0.00    +0.000 OA
BRANCH  22  24
ATOM     23  C   UNL     1      -3.482   9.922  13.814  0.00  0.00    +0.000 C 
ATOM     24  C   UNL     1      -3.651  10.272  15.274  0.00  0.00    +0.000 C 
ENDBRANCH  22  24
ENDBRANCH  16  22
ENDBRANCH   1  19
BRANCH   2  25
ATOM     25  S   UNL     1      -0.453   8.954  21.728  0.00  0.00    +0.000 S 
BRANCH  25  26
ATOM     26  C   UNL     1       1.286   8.425  21.760  0.00  0.00    +0.000 C 
BRANCH  26  27
ATOM     27  C   UNL     1       1.693   7.706  20.476  0.00  0.00    +0.000 C 
ATOM     28  O   UNL     1       1.814   8.320  19.422  0.00  0.00    +0.000 OA
ATOM     29  N   UNL     1       1.906   6.358  20.689  0.00  0.00    +0.000 N 
ATOM     30  C   UNL     1       2.301   5.457  19.716  0.00  0.00    +0.000 A 
ATOM     31  C   UNL     1       2.404   4.067  19.945  0.00  0.00    +0.000 A 
ATOM     32  C   UNL     1       2.834   3.550  18.751  0.00  0.00    +0.000 A 
ATOM     33  C   UNL     1       3.167   2.198  18.267  0.00  0.00    +0.000 C 
ATOM     34  O   UNL     1       2.968   4.561  17.854  0.00  0.00    +0.000 OA
ATOM     35  N   UNL     1       2.631   5.754  18.458  0.00  0.00    +0.000 NA
ATOM     36  H   UNL     1       1.711   5.959  21.611  0.00  0.00    +0.000 HD
ENDBRANCH  26  27
ENDBRANCH  25  26
ENDBRANCH   2  25
TORSDOF 7
ENDMDL
