MODEL 1
REMARK VINA RESULT:      -7.2      0.000      0.000
REMARK  Name = 
REMARK  13 active torsions:
REMARK  status: ('A' for Active; 'I' for Inactive)
REMARK    1  A    between atoms: C_1  and  O_2
REMARK    2  A    between atoms: O_2  and  C_3
REMARK    3  A    between atoms: C_6  and  O_7
REMARK    4  A    between atoms: O_7  and  C_8
REMARK    5  A    between atoms: C_9  and  C_10
REMARK    6  A    between atoms: C_10  and  N_11
REMARK    7  A    between atoms: N_11  and  S_12
REMARK    8  A    between atoms: S_12  and  C_15
REMARK    9  A    between atoms: C_16  and  C_17
REMARK   10  A    between atoms: C_22  and  C_23
REMARK   11  A    between atoms: C_26  and  C_27
REMARK   12  A    between atoms: N_28  and  C_29
REMARK   13  A    between atoms: C_30  and  C_31
REMARK                            x       y       z     vdW  Elec       q    Type
REMARK                         _______ _______ _______ _____ _____    ______ ____
ROOT
ATOM      1  C   UNL     1       0.526  10.245  19.986  0.00  0.00    +0.000 A 
ATOM      2  C   UNL     1      -0.072  11.510  20.353  0.00  0.00    +0.000 A 
ATOM      3  C   UNL     1      -0.377  11.384  21.712  0.00  0.00    +0.000 A 
ATOM      4  C   UNL     1      -0.825  12.411  22.688  0.00  0.00    +0.000 C 
ATOM      5  N   UNL     1      -0.172  10.081  22.097  0.00  0.00    +0.000 N 
ATOM      6  C   UNL     1      -0.397   9.550  23.429  0.00  0.00    +0.000 C 
ATOM      7  C   UNL     1       0.352   9.358  21.053  0.00  0.00    +0.000 A 
ATOM      8  C   UNL     1       0.654   7.895  21.165  0.00  0.00    +0.000 C 
ENDROOT
BRANCH   2   9
ATOM      9  C   UNL     1      -0.196  12.763  19.568  0.00  0.00    +0.000 C 
ATOM     10  O   UNL     1      -1.141  12.900  18.791  0.00  0.00    +0.000 OA
ATOM     11  N   UNL     1       0.827  13.737  19.660  0.00  0.00    +0.000 N 
ATOM     12  C   UNL     1       0.761  14.942  18.836  0.00  0.00    +0.000 C 
ATOM     13  C   UNL     1       2.104  15.253  18.160  0.00  0.00    +0.000 C 
ATOM     14  C   UNL     1       3.354  15.085  19.044  0.00  0.00    +0.000 C 
ATOM     15  C   UNL     1       4.580  14.805  18.151  0.00  0.00    +0.000 C 
ATOM     16  C   UNL     1       3.238  13.977  20.100  0.00  0.00    +0.000 C 
ATOM     17  C   UNL     1       1.841  13.827  20.705  0.00  0.00    +0.000 C 
ENDBRANCH   2   9
BRANCH   1  18
ATOM     18  S   UNL     1       1.329   9.845  18.492  0.00  0.00    +0.000 S 
ATOM     19  O   UNL     1       2.228  10.923  18.202  0.00  0.00    +0.000 OA
ATOM     20  O   UNL     1       0.261   9.505  17.572  0.00  0.00    +0.000 OA
BRANCH  18  21
ATOM     21  N   UNL     1       2.258   8.435  18.733  0.00  0.00    +0.000 NA
ATOM     22  H   UNL     1       2.965   8.629  19.449  0.00  0.00    +0.000 HD
BRANCH  21  23
ATOM     23  C   UNL     1       2.843   7.837  17.509  0.00  0.00    +0.000 C 
BRANCH  23  28
ATOM     24  C   UNL     1       6.105   5.949  16.905  0.00  0.00    +0.000 A 
ATOM     25  C   UNL     1       6.139   5.069  17.981  0.00  0.00    +0.000 A 
ATOM     26  C   UNL     1       5.126   5.095  18.940  0.00  0.00    +0.000 A 
ATOM     27  C   UNL     1       4.052   5.991  18.834  0.00  0.00    +0.000 A 
ATOM     28  C   UNL     1       3.982   6.865  17.732  0.00  0.00    +0.000 A 
ATOM     29  C   UNL     1       5.048   6.855  16.802  0.00  0.00    +0.000 A 
BRANCH  24  31
ATOM     30  C   UNL     1       7.020   4.789  15.043  0.00  0.00    +0.000 C 
ATOM     31  O   UNL     1       7.139   5.819  16.019  0.00  0.00    +0.000 OA
ENDBRANCH  24  31
BRANCH  27  32
ATOM     32  O   UNL     1       3.102   5.800  19.802  0.00  0.00    +0.000 OA
ATOM     33  C   UNL     1       2.480   4.525  19.898  0.00  0.00    +0.000 C 
ENDBRANCH  27  32
ENDBRANCH  23  28
ENDBRANCH  21  23
ENDBRANCH  18  21
ENDBRANCH   1  18
TORSDOF 7
ENDMDL
MODEL 2
REMARK VINA RESULT:      -7.1      1.088      2.388
REMARK  Name = 
REMARK  13 active torsions:
REMARK  status: ('A' for Active; 'I' for Inactive)
REMARK    1  A    between atoms: C_1  and  O_2
REMARK    2  A    between atoms: O_2  and  C_3
REMARK    3  A    between atoms: C_6  and  O_7
REMARK    4  A    between atoms: O_7  and  C_8
REMARK    5  A    between atoms: C_9  and  C_10
REMARK    6  A    between atoms: C_10  and  N_11
REMARK    7  A    between atoms: N_11  and  S_12
REMARK    8  A    between atoms: S_12  and  C_15
REMARK    9  A    between atoms: C_16  and  C_17
REMARK   10  A    between atoms: C_22  and  C_23
REMARK   11  A    between atoms: C_26  and  C_27
REMARK   12  A    between atoms: N_28  and  C_29
REMARK   13  A    between atoms: C_30  and  C_31
REMARK                            x       y       z     vdW  Elec       q    Type
REMARK                         _______ _______ _______ _____ _____    ______ ____
ROOT
ATOM      1  C   UNL     1       0.534  10.180  19.974  0.00  0.00    +0.000 A 
ATOM      2  C   UNL     1      -0.036  11.464  20.322  0.00  0.00    +0.000 A 
ATOM      3  C   UNL     1      -0.337  11.367  21.684  0.00  0.00    +0.000 A 
ATOM      4  C   UNL     1      -0.758  12.419  22.645  0.00  0.00    +0.000 C 
ATOM      5  N   UNL     1      -0.156  10.066  22.090  0.00  0.00    +0.000 N 
ATOM      6  C   UNL     1      -0.386   9.563  23.432  0.00  0.00    +0.000 C 
ATOM      7  C   UNL     1       0.347   9.315  21.056  0.00  0.00    +0.000 A 
ATOM      8  C   UNL     1       0.619   7.849  21.191  0.00  0.00    +0.000 C 
ENDROOT
BRANCH   2   9
ATOM      9  C   UNL     1      -0.138  12.705  19.517  0.00  0.00    +0.000 C 
ATOM     10  O   UNL     1      -1.067  12.835  18.719  0.00  0.00    +0.000 OA
ATOM     11  N   UNL     1       0.887  13.676  19.615  0.00  0.00    +0.000 N 
ATOM     12  C   UNL     1       0.843  14.869  18.772  0.00  0.00    +0.000 C 
ATOM     13  C   UNL     1       2.201  15.164  18.119  0.00  0.00    +0.000 C 
ATOM     14  C   UNL     1       3.433  15.003  19.030  0.00  0.00    +0.000 C 
ATOM     15  C   UNL     1       4.675  14.704  18.166  0.00  0.00    +0.000 C 
ATOM     16  C   UNL     1       3.290  13.911  20.099  0.00  0.00    +0.000 C 
ATOM     17  C   UNL     1       1.881  13.777  20.679  0.00  0.00    +0.000 C 
ENDBRANCH   2   9
BRANCH   1  18
ATOM     18  S   UNL     1       1.320   9.739  18.483  0.00  0.00    +0.000 S 
ATOM     19  O   UNL     1       2.304  10.747  18.218  0.00  0.00    +0.000 OA
ATOM     20  O   UNL     1       0.240   9.495  17.547  0.00  0.00    +0.000 OA
BRANCH  18  21
ATOM     21  N   UNL     1       2.135   8.257  18.715  0.00  0.00    +0.000 NA
ATOM     22  H   UNL     1       2.423   8.194  19.695  0.00  0.00    +0.000 HD
BRANCH  21  23
ATOM     23  C   UNL     1       3.253   7.990  17.779  0.00  0.00    +0.000 C 
BRANCH  23  28
ATOM     24  C   UNL     1       2.818   4.197  17.753  0.00  0.00    +0.000 A 
ATOM     25  C   UNL     1       3.983   3.772  17.123  0.00  0.00    +0.000 A 
ATOM     26  C   UNL     1       4.913   4.706  16.664  0.00  0.00    +0.000 A 
ATOM     27  C   UNL     1       4.703   6.081  16.838  0.00  0.00    +0.000 A 
ATOM     28  C   UNL     1       3.547   6.529  17.507  0.00  0.00    +0.000 A 
ATOM     29  C   UNL     1       2.595   5.566  17.916  0.00  0.00    +0.000 A 
BRANCH  24  31
ATOM     30  C   UNL     1       1.691   3.158  19.569  0.00  0.00    +0.000 C 
ATOM     31  O   UNL     1       1.992   3.193  18.178  0.00  0.00    +0.000 OA
ENDBRANCH  24  31
BRANCH  27  32
ATOM     32  O   UNL     1       5.767   6.839  16.425  0.00  0.00    +0.000 OA
ATOM     33  C   UNL     1       6.880   6.977  17.297  0.00  0.00    +0.000 C 
ENDBRANCH  27  32
ENDBRANCH  23  28
ENDBRANCH  21  23
ENDBRANCH  18  21
ENDBRANCH   1  18
TORSDOF 7
ENDMDL
MODEL 3
REMARK VINA RESULT:      -7.0      2.053      4.259
REMARK  Name = 
REMARK  13 active torsions:
REMARK  status: ('A' for Active; 'I' for Inactive)
REMARK    1  A    between atoms: C_1  and  O_2
REMARK    2  A    between atoms: O_2  and  C_3
REMARK    3  A    between atoms: C_6  and  O_7
REMARK    4  A    between atoms: O_7  and  C_8
REMARK    5  A    between atoms: C_9  and  C_10
REMARK    6  A    between atoms: C_10  and  N_11
REMARK    7  A    between atoms: N_11  and  S_12
REMARK    8  A    between atoms: S_12  and  C_15
REMARK    9  A    between atoms: C_16  and  C_17
REMARK   10  A    between atoms: C_22  and  C_23
REMARK   11  A    between atoms: C_26  and  C_27
REMARK   12  A    between atoms: N_28  and  C_29
REMARK   13  A    between atoms: C_30  and  C_31
REMARK                            x       y       z     vdW  Elec       q    Type
REMARK                         _______ _______ _______ _____ _____    ______ ____
ROOT
ATOM      1  C   UNL     1       0.003  11.975  19.093  0.00  0.00    +0.000 A 
ATOM      2  C   UNL     1      -0.870  12.915  19.763  0.00  0.00    +0.000 A 
ATOM      3  C   UNL     1      -0.282  14.166  19.553  0.00  0.00    +0.000 A 
ATOM      4  C   UNL     1      -0.810  15.526  19.829  0.00  0.00    +0.000 C 
ATOM      5  N   UNL     1       0.955  13.988  18.978  0.00  0.00    +0.000 N 
ATOM      6  C   UNL     1       1.881  15.048  18.625  0.00  0.00    +0.000 C 
ATOM      7  C   UNL     1       1.164  12.656  18.714  0.00  0.00    +0.000 A 
ATOM      8  C   UNL     1       2.440  12.151  18.115  0.00  0.00    +0.000 C 
ENDROOT
BRANCH   2   9
ATOM      9  C   UNL     1      -2.196  12.696  20.390  0.00  0.00    +0.000 C 
ATOM     10  O   UNL     1      -3.173  12.463  19.676  0.00  0.00    +0.000 OA
ATOM     11  N   UNL     1      -2.331  12.850  21.790  0.00  0.00    +0.000 N 
ATOM     12  C   UNL     1      -3.645  12.714  22.415  0.00  0.00    +0.000 C 
ATOM     13  C   UNL     1      -3.927  13.844  23.416  0.00  0.00    +0.000 C 
ATOM     14  C   UNL     1      -2.756  14.229  24.340  0.00  0.00    +0.000 C 
ATOM     15  C   UNL     1      -2.927  15.690  24.804  0.00  0.00    +0.000 C 
ATOM     16  C   UNL     1      -1.368  14.064  23.705  0.00  0.00    +0.000 C 
ATOM     17  C   UNL     1      -1.245  12.863  22.765  0.00  0.00    +0.000 C 
ENDBRANCH   2   9
BRANCH   1  18
ATOM     18  S   UNL     1      -0.292  10.284  18.790  0.00  0.00    +0.000 S 
ATOM     19  O   UNL     1      -1.133  10.210  17.632  0.00  0.00    +0.000 OA
ATOM     20  O   UNL     1      -0.735   9.747  20.062  0.00  0.00    +0.000 OA
BRANCH  18  21
ATOM     21  N   UNL     1       1.192   9.532  18.411  0.00  0.00    +0.000 NA
ATOM     22  H   UNL     1       1.116   9.111  17.480  0.00  0.00    +0.000 HD
BRANCH  21  23
ATOM     23  C   UNL     1       1.700   8.576  19.423  0.00  0.00    +0.000 C 
BRANCH  23  28
ATOM     24  C   UNL     1       4.136   6.663  17.192  0.00  0.00    +0.000 A 
ATOM     25  C   UNL     1       4.094   5.384  17.738  0.00  0.00    +0.000 A 
ATOM     26  C   UNL     1       3.303   5.127  18.859  0.00  0.00    +0.000 A 
ATOM     27  C   UNL     1       2.530   6.139  19.447  0.00  0.00    +0.000 A 
ATOM     28  C   UNL     1       2.532   7.430  18.886  0.00  0.00    +0.000 A 
ATOM     29  C   UNL     1       3.382   7.678  17.782  0.00  0.00    +0.000 A 
BRANCH  24  31
ATOM     30  C   UNL     1       5.466   5.590  15.540  0.00  0.00    +0.000 C 
ATOM     31  O   UNL     1       4.929   6.791  16.085  0.00  0.00    +0.000 OA
ENDBRANCH  24  31
BRANCH  27  32
ATOM     32  O   UNL     1       1.738   5.680  20.466  0.00  0.00    +0.000 OA
ATOM     33  C   UNL     1       1.886   4.329  20.884  0.00  0.00    +0.000 C 
ENDBRANCH  27  32
ENDBRANCH  23  28
ENDBRANCH  21  23
ENDBRANCH  18  21
ENDBRANCH   1  18
TORSDOF 7
ENDMDL
MODEL 4
REMARK VINA RESULT:      -6.9      2.141      4.932
REMARK  Name = 
REMARK  13 active torsions:
REMARK  status: ('A' for Active; 'I' for Inactive)
REMARK    1  A    between atoms: C_1  and  O_2
REMARK    2  A    between atoms: O_2  and  C_3
REMARK    3  A    between atoms: C_6  and  O_7
REMARK    4  A    between atoms: O_7  and  C_8
REMARK    5  A    between atoms: C_9  and  C_10
REMARK    6  A    between atoms: C_10  and  N_11
REMARK    7  A    between atoms: N_11  and  S_12
REMARK    8  A    between atoms: S_12  and  C_15
REMARK    9  A    between atoms: C_16  and  C_17
REMARK   10  A    between atoms: C_22  and  C_23
REMARK   11  A    between atoms: C_26  and  C_27
REMARK   12  A    between atoms: N_28  and  C_29
REMARK   13  A    between atoms: C_30  and  C_31
REMARK                            x       y       z     vdW  Elec       q    Type
REMARK                         _______ _______ _______ _____ _____    ______ ____
ROOT
ATOM      1  C   UNL     1       0.096  11.880  19.142  0.00  0.00    +0.000 A 
ATOM      2  C   UNL     1      -0.789  12.829  19.781  0.00  0.00    +0.000 A 
ATOM      3  C   UNL     1      -0.226  14.081  19.518  0.00  0.00    +0.000 A 
ATOM      4  C   UNL     1      -0.777  15.442  19.745  0.00  0.00    +0.000 C 
ATOM      5  N   UNL     1       1.009  13.903  18.941  0.00  0.00    +0.000 N 
ATOM      6  C   UNL     1       1.913  14.966  18.540  0.00  0.00    +0.000 C 
ATOM      7  C   UNL     1       1.241  12.566  18.728  0.00  0.00    +0.000 A 
ATOM      8  C   UNL     1       2.522  12.061  18.139  0.00  0.00    +0.000 C 
ENDROOT
BRANCH   2   9
ATOM      9  C   UNL     1      -2.108  12.611  20.426  0.00  0.00    +0.000 C 
ATOM     10  O   UNL     1      -3.085  12.334  19.730  0.00  0.00    +0.000 OA
ATOM     11  N   UNL     1      -2.235  12.818  21.821  0.00  0.00    +0.000 N 
ATOM     12  C   UNL     1      -3.541  12.683  22.460  0.00  0.00    +0.000 C 
ATOM     13  C   UNL     1      -3.837  13.845  23.419  0.00  0.00    +0.000 C 
ATOM     14  C   UNL     1      -2.667  14.287  24.318  0.00  0.00    +0.000 C 
ATOM     15  C   UNL     1      -2.862  15.762  24.726  0.00  0.00    +0.000 C 
ATOM     16  C   UNL     1      -1.281  14.122  23.680  0.00  0.00    +0.000 C 
ATOM     17  C   UNL     1      -1.142  12.888  22.786  0.00  0.00    +0.000 C 
ENDBRANCH   2   9
BRANCH   1  18
ATOM     18  S   UNL     1      -0.171  10.173  18.908  0.00  0.00    +0.000 S 
ATOM     19  O   UNL     1      -0.856  10.028  17.658  0.00  0.00    +0.000 OA
ATOM     20  O   UNL     1      -0.778   9.716  20.143  0.00  0.00    +0.000 OA
BRANCH  18  21
ATOM     21  N   UNL     1       1.344   9.400  18.770  0.00  0.00    +0.000 NA
ATOM     22  H   UNL     1       1.350   8.846  17.909  0.00  0.00    +0.000 HD
BRANCH  21  23
ATOM     23  C   UNL     1       1.769   8.612  19.951  0.00  0.00    +0.000 C 
BRANCH  23  28
ATOM     24  C   UNL     1       1.906   4.832  20.460  0.00  0.00    +0.000 A 
ATOM     25  C   UNL     1       2.656   4.414  19.367  0.00  0.00    +0.000 A 
ATOM     26  C   UNL     1       3.102   5.344  18.426  0.00  0.00    +0.000 A 
ATOM     27  C   UNL     1       2.817   6.710  18.569  0.00  0.00    +0.000 A 
ATOM     28  C   UNL     1       2.089   7.155  19.689  0.00  0.00    +0.000 A 
ATOM     29  C   UNL     1       1.605   6.187  20.600  0.00  0.00    +0.000 A 
BRANCH  24  31
ATOM     30  C   UNL     1       2.460   2.759  21.483  0.00  0.00    +0.000 C 
ATOM     31  O   UNL     1       1.542   3.836  21.325  0.00  0.00    +0.000 OA
ENDBRANCH  24  31
BRANCH  27  32
ATOM     32  O   UNL     1       3.424   7.483  17.614  0.00  0.00    +0.000 OA
ATOM     33  C   UNL     1       4.664   7.044  17.075  0.00  0.00    +0.000 C 
ENDBRANCH  27  32
ENDBRANCH  23  28
ENDBRANCH  21  23
ENDBRANCH  18  21
ENDBRANCH   1  18
TORSDOF 7
ENDMDL
MODEL 5
REMARK VINA RESULT:      -6.8      2.881      4.013
REMARK  Name = 
REMARK  13 active torsions:
REMARK  status: ('A' for Active; 'I' for Inactive)
REMARK    1  A    between atoms: C_1  and  O_2
REMARK    2  A    between atoms: O_2  and  C_3
REMARK    3  A    between atoms: C_6  and  O_7
REMARK    4  A    between atoms: O_7  and  C_8
REMARK    5  A    between atoms: C_9  and  C_10
REMARK    6  A    between atoms: C_10  and  N_11
REMARK    7  A    between atoms: N_11  and  S_12
REMARK    8  A    between atoms: S_12  and  C_15
REMARK    9  A    between atoms: C_16  and  C_17
REMARK   10  A    between atoms: C_22  and  C_23
REMARK   11  A    between atoms: C_26  and  C_27
REMARK   12  A    between atoms: N_28  and  C_29
REMARK   13  A    between atoms: C_30  and  C_31
REMARK                            x       y       z     vdW  Elec       q    Type
REMARK                         _______ _______ _______ _____ _____    ______ ____
ROOT
ATOM      1  C   UNL     1      -0.568  10.539  20.482  0.00  0.00    +0.000 A 
ATOM      2  C   UNL     1      -1.369  11.639  20.974  0.00  0.00    +0.000 A 
ATOM      3  C   UNL     1      -2.150  12.033  19.884  0.00  0.00    +0.000 A 
ATOM      4  C   UNL     1      -3.296  12.976  19.822  0.00  0.00    +0.000 C 
ATOM      5  N   UNL     1      -1.718  11.367  18.762  0.00  0.00    +0.000 N 
ATOM      6  C   UNL     1      -2.267  11.521  17.427  0.00  0.00    +0.000 C 
ATOM      7  C   UNL     1      -0.733  10.470  19.096  0.00  0.00    +0.000 A 
ATOM      8  C   UNL     1      -0.047   9.618  18.073  0.00  0.00    +0.000 C 
ENDROOT
BRANCH   2   9
ATOM      9  C   UNL     1      -1.516  12.162  22.356  0.00  0.00    +0.000 C 
ATOM     10  O   UNL     1      -2.031  11.452  23.220  0.00  0.00    +0.000 OA
ATOM     11  N   UNL     1      -1.144  13.500  22.629  0.00  0.00    +0.000 N 
ATOM     12  C   UNL     1      -1.353  14.055  23.964  0.00  0.00    +0.000 C 
ATOM     13  C   UNL     1      -1.994  15.450  23.915  0.00  0.00    +0.000 C 
ATOM     14  C   UNL     1      -1.435  16.407  22.845  0.00  0.00    +0.000 C 
ATOM     15  C   UNL     1      -2.510  17.452  22.479  0.00  0.00    +0.000 C 
ATOM     16  C   UNL     1      -0.954  15.712  21.564  0.00  0.00    +0.000 C 
ATOM     17  C   UNL     1      -0.300  14.348  21.794  0.00  0.00    +0.000 C 
ENDBRANCH   2   9
BRANCH   1  18
ATOM     18  S   UNL     1       0.442   9.464  21.411  0.00  0.00    +0.000 S 
ATOM     19  O   UNL     1      -0.432   8.548  22.081  0.00  0.00    +0.000 OA
ATOM     20  O   UNL     1       1.321  10.335  22.166  0.00  0.00    +0.000 OA
BRANCH  18  21
ATOM     21  N   UNL     1       1.417   8.569  20.334  0.00  0.00    +0.000 NA
ATOM     22  H   UNL     1       1.007   8.626  19.398  0.00  0.00    +0.000 HD
BRANCH  21  23
ATOM     23  C   UNL     1       1.702   7.172  20.741  0.00  0.00    +0.000 C 
BRANCH  23  28
ATOM     24  C   UNL     1       3.687   6.093  17.665  0.00  0.00    +0.000 A 
ATOM     25  C   UNL     1       3.356   4.746  17.558  0.00  0.00    +0.000 A 
ATOM     26  C   UNL     1       2.513   4.155  18.500  0.00  0.00    +0.000 A 
ATOM     27  C   UNL     1       1.974   4.902  19.558  0.00  0.00    +0.000 A 
ATOM     28  C   UNL     1       2.269   6.275  19.661  0.00  0.00    +0.000 A 
ATOM     29  C   UNL     1       3.167   6.838  18.724  0.00  0.00    +0.000 A 
BRANCH  24  31
ATOM     30  C   UNL     1       5.353   5.618  16.038  0.00  0.00    +0.000 C 
ATOM     31  O   UNL     1       4.504   6.566  16.675  0.00  0.00    +0.000 OA
ENDBRANCH  24  31
BRANCH  27  32
ATOM     32  O   UNL     1       1.086   4.186  20.316  0.00  0.00    +0.000 OA
ATOM     33  C   UNL     1       1.597   3.310  21.312  0.00  0.00    +0.000 C 
ENDBRANCH  27  32
ENDBRANCH  23  28
ENDBRANCH  21  23
ENDBRANCH  18  21
ENDBRANCH   1  18
TORSDOF 7
ENDMDL
MODEL 6
REMARK VINA RESULT:      -6.8      2.414      3.972
REMARK  Name = 
REMARK  13 active torsions:
REMARK  status: ('A' for Active; 'I' for Inactive)
REMARK    1  A    between atoms: C_1  and  O_2
REMARK    2  A    between atoms: O_2  and  C_3
REMARK    3  A    between atoms: C_6  and  O_7
REMARK    4  A    between atoms: O_7  and  C_8
REMARK    5  A    between atoms: C_9  and  C_10
REMARK    6  A    between atoms: C_10  and  N_11
REMARK    7  A    between atoms: N_11  and  S_12
REMARK    8  A    between atoms: S_12  and  C_15
REMARK    9  A    between atoms: C_16  and  C_17
REMARK   10  A    between atoms: C_22  and  C_23
REMARK   11  A    between atoms: C_26  and  C_27
REMARK   12  A    between atoms: N_28  and  C_29
REMARK   13  A    between atoms: C_30  and  C_31
REMARK                            x       y       z     vdW  Elec       q    Type
REMARK                         _______ _______ _______ _____ _____    ______ ____
ROOT
ATOM      1  C   UNL     1      -0.740  11.219  19.130  0.00  0.00    +0.000 A 
ATOM      2  C   UNL     1      -1.307  12.270  19.948  0.00  0.00    +0.000 A 
ATOM      3  C   UNL     1      -2.675  12.254  19.658  0.00  0.00    +0.000 A 
ATOM      4  C   UNL     1      -3.799  12.963  20.322  0.00  0.00    +0.000 C 
ATOM      5  N   UNL     1      -2.898  11.404  18.601  0.00  0.00    +0.000 N 
ATOM      6  C   UNL     1      -4.189  11.134  17.994  0.00  0.00    +0.000 C 
ATOM      7  C   UNL     1      -1.727  10.781  18.241  0.00  0.00    +0.000 A 
ATOM      8  C   UNL     1      -1.652   9.818  17.097  0.00  0.00    +0.000 C 
ENDROOT
BRANCH   2   9
ATOM      9  C   UNL     1      -0.674  13.091  21.009  0.00  0.00    +0.000 C 
ATOM     10  O   UNL     1      -0.689  12.691  22.174  0.00  0.00    +0.000 OA
ATOM     11  N   UNL     1      -0.148  14.361  20.675  0.00  0.00    +0.000 N 
ATOM     12  C   UNL     1       0.409  15.216  21.721  0.00  0.00    +0.000 C 
ATOM     13  C   UNL     1      -0.090  16.664  21.609  0.00  0.00    +0.000 C 
ATOM     14  C   UNL     1      -0.134  17.250  20.185  0.00  0.00    +0.000 C 
ATOM     15  C   UNL     1      -1.186  18.377  20.126  0.00  0.00    +0.000 C 
ATOM     16  C   UNL     1      -0.440  16.222  19.087  0.00  0.00    +0.000 C 
ATOM     17  C   UNL     1       0.168  14.839  19.333  0.00  0.00    +0.000 C 
ENDBRANCH   2   9
BRANCH   1  18
ATOM     18  S   UNL     1       0.879  10.579  19.199  0.00  0.00    +0.000 S 
ATOM     19  O   UNL     1       1.087  10.116  20.539  0.00  0.00    +0.000 OA
ATOM     20  O   UNL     1       1.718  11.620  18.637  0.00  0.00    +0.000 OA
BRANCH  18  21
ATOM     21  N   UNL     1       0.977   9.231  18.157  0.00  0.00    +0.000 NA
ATOM     22  H   UNL     1       0.441   8.461  18.568  0.00  0.00    +0.000 HD
BRANCH  21  23
ATOM     23  C   UNL     1       2.347   8.822  17.769  0.00  0.00    +0.000 C 
BRANCH  23  28
ATOM     24  C   UNL     1       2.562   5.709  19.968  0.00  0.00    +0.000 A 
ATOM     25  C   UNL     1       3.553   4.968  19.333  0.00  0.00    +0.000 A 
ATOM     26  C   UNL     1       4.145   5.446  18.163  0.00  0.00    +0.000 A 
ATOM     27  C   UNL     1       3.766   6.679  17.613  0.00  0.00    +0.000 A 
ATOM     28  C   UNL     1       2.791   7.460  18.262  0.00  0.00    +0.000 A 
ATOM     29  C   UNL     1       2.170   6.930  19.417  0.00  0.00    +0.000 A 
BRANCH  24  31
ATOM     30  C   UNL     1       1.736   3.769  21.063  0.00  0.00    +0.000 C 
ATOM     31  O   UNL     1       2.071   5.152  21.116  0.00  0.00    +0.000 OA
ENDBRANCH  24  31
BRANCH  27  32
ATOM     32  O   UNL     1       4.526   7.035  16.530  0.00  0.00    +0.000 OA
ATOM     33  C   UNL     1       5.345   6.045  15.922  0.00  0.00    +0.000 C 
ENDBRANCH  27  32
ENDBRANCH  23  28
ENDBRANCH  21  23
ENDBRANCH  18  21
ENDBRANCH   1  18
TORSDOF 7
ENDMDL
MODEL 7
REMARK VINA RESULT:      -6.7      3.232      8.578
REMARK  Name = 
REMARK  13 active torsions:
REMARK  status: ('A' for Active; 'I' for Inactive)
REMARK    1  A    between atoms: C_1  and  O_2
REMARK    2  A    between atoms: O_2  and  C_3
REMARK    3  A    between atoms: C_6  and  O_7
REMARK    4  A    between atoms: O_7  and  C_8
REMARK    5  A    between atoms: C_9  and  C_10
REMARK    6  A    between atoms: C_10  and  N_11
REMARK    7  A    between atoms: N_11  and  S_12
REMARK    8  A    between atoms: S_12  and  C_15
REMARK    9  A    between atoms: C_16  and  C_17
REMARK   10  A    between atoms: C_22  and  C_23
REMARK   11  A    between atoms: C_26  and  C_27
REMARK   12  A    between atoms: N_28  and  C_29
REMARK   13  A    between atoms: C_30  and  C_31
REMARK                            x       y       z     vdW  Elec       q    Type
REMARK                         _______ _______ _______ _____ _____    ______ ____
ROOT
ATOM      1  C   UNL     1       3.108   5.002  19.414  0.00  0.00    +0.000 A 
ATOM      2  C   UNL     1       4.360   4.313  19.639  0.00  0.00    +0.000 A 
ATOM      3  C   UNL     1       4.015   3.161  20.352  0.00  0.00    +0.000 A 
ATOM      4  C   UNL     1       4.835   1.972  20.699  0.00  0.00    +0.000 C 
ATOM      5  N   UNL     1       2.690   3.238  20.711  0.00  0.00    +0.000 N 
ATOM      6  C   UNL     1       1.965   2.242  21.479  0.00  0.00    +0.000 C 
ATOM      7  C   UNL     1       2.122   4.369  20.175  0.00  0.00    +0.000 A 
ATOM      8  C   UNL     1       0.691   4.738  20.422  0.00  0.00    +0.000 C 
ENDROOT
BRANCH   2   9
ATOM      9  C   UNL     1       5.713   4.607  19.106  0.00  0.00    +0.000 C 
ATOM     10  O   UNL     1       6.502   5.267  19.784  0.00  0.00    +0.000 OA
ATOM     11  N   UNL     1       6.038   4.202  17.790  0.00  0.00    +0.000 N 
ATOM     12  C   UNL     1       7.337   4.551  17.220  0.00  0.00    +0.000 C 
ATOM     13  C   UNL     1       7.212   5.103  15.793  0.00  0.00    +0.000 C 
ATOM     14  C   UNL     1       6.227   4.361  14.870  0.00  0.00    +0.000 C 
ATOM     15  C   UNL     1       5.731   5.321  13.770  0.00  0.00    +0.000 C 
ATOM     16  C   UNL     1       5.016   3.757  15.593  0.00  0.00    +0.000 C 
ATOM     17  C   UNL     1       5.322   3.213  16.990  0.00  0.00    +0.000 C 
ENDBRANCH   2   9
BRANCH   1  18
ATOM     18  S   UNL     1       2.827   6.384  18.389  0.00  0.00    +0.000 S 
ATOM     19  O   UNL     1       1.794   6.015  17.468  0.00  0.00    +0.000 OA
ATOM     20  O   UNL     1       4.141   6.769  17.912  0.00  0.00    +0.000 OA
BRANCH  18  21
ATOM     21  N   UNL     1       2.242   7.665  19.352  0.00  0.00    +0.000 NA
ATOM     22  H   UNL     1       1.390   7.353  19.827  0.00  0.00    +0.000 HD
BRANCH  21  23
ATOM     23  C   UNL     1       2.055   8.957  18.650  0.00  0.00    +0.000 C 
BRANCH  23  28
ATOM     24  C   UNL     1      -1.224  10.859  18.198  0.00  0.00    +0.000 A 
ATOM     25  C   UNL     1      -1.549  11.202  19.506  0.00  0.00    +0.000 A 
ATOM     26  C   UNL     1      -0.731  10.794  20.561  0.00  0.00    +0.000 A 
ATOM     27  C   UNL     1       0.433  10.047  20.327  0.00  0.00    +0.000 A 
ATOM     28  C   UNL     1       0.797   9.722  19.006  0.00  0.00    +0.000 A 
ATOM     29  C   UNL     1      -0.076  10.103  17.959  0.00  0.00    +0.000 A 
BRANCH  24  31
ATOM     30  C   UNL     1      -2.859  10.360  16.546  0.00  0.00    +0.000 C 
ATOM     31  O   UNL     1      -2.087  11.330  17.247  0.00  0.00    +0.000 OA
ENDBRANCH  24  31
BRANCH  27  32
ATOM     32  O   UNL     1       1.165   9.831  21.465  0.00  0.00    +0.000 OA
ATOM     33  C   UNL     1       0.502   9.308  22.608  0.00  0.00    +0.000 C 
ENDBRANCH  27  32
ENDBRANCH  23  28
ENDBRANCH  21  23
ENDBRANCH  18  21
ENDBRANCH   1  18
TORSDOF 7
ENDMDL
MODEL 8
REMARK VINA RESULT:      -6.7      4.226      8.324
REMARK  Name = 
REMARK  13 active torsions:
REMARK  status: ('A' for Active; 'I' for Inactive)
REMARK    1  A    between atoms: C_1  and  O_2
REMARK    2  A    between atoms: O_2  and  C_3
REMARK    3  A    between atoms: C_6  and  O_7
REMARK    4  A    between atoms: O_7  and  C_8
REMARK    5  A    between atoms: C_9  and  C_10
REMARK    6  A    between atoms: C_10  and  N_11
REMARK    7  A    between atoms: N_11  and  S_12
REMARK    8  A    between atoms: S_12  and  C_15
REMARK    9  A    between atoms: C_16  and  C_17
REMARK   10  A    between atoms: C_22  and  C_23
REMARK   11  A    between atoms: C_26  and  C_27
REMARK   12  A    between atoms: N_28  and  C_29
REMARK   13  A    between atoms: C_30  and  C_31
REMARK                            x       y       z     vdW  Elec       q    Type
REMARK                         _______ _______ _______ _____ _____    ______ ____
ROOT
ATOM      1  C   UNL     1      -0.485  11.495  21.618  0.00  0.00    +0.000 A 
ATOM      2  C   UNL     1       0.143  11.872  20.370  0.00  0.00    +0.000 A 
ATOM      3  C   UNL     1       0.771  10.708  19.917  0.00  0.00    +0.000 A 
ATOM      4  C   UNL     1       1.407  10.416  18.607  0.00  0.00    +0.000 C 
ATOM      5  N   UNL     1       0.706   9.752  20.903  0.00  0.00    +0.000 N 
ATOM      6  C   UNL     1       1.264   8.415  20.818  0.00  0.00    +0.000 C 
ATOM      7  C   UNL     1      -0.030  10.219  21.965  0.00  0.00    +0.000 A 
ATOM      8  C   UNL     1      -0.249   9.409  23.205  0.00  0.00    +0.000 C 
ENDROOT
BRANCH   2   9
ATOM      9  C   UNL     1       0.033  13.133  19.597  0.00  0.00    +0.000 C 
ATOM     10  O   UNL     1      -0.916  13.292  18.827  0.00  0.00    +0.000 OA
ATOM     11  N   UNL     1       1.072  14.090  19.688  0.00  0.00    +0.000 N 
ATOM     12  C   UNL     1       1.019  15.303  18.875  0.00  0.00    +0.000 C 
ATOM     13  C   UNL     1       2.362  15.598  18.191  0.00  0.00    +0.000 C 
ATOM     14  C   UNL     1       3.616  15.403  19.064  0.00  0.00    +0.000 C 
ATOM     15  C   UNL     1       4.831  15.110  18.160  0.00  0.00    +0.000 C 
ATOM     16  C   UNL     1       3.490  14.288  20.112  0.00  0.00    +0.000 C 
ATOM     17  C   UNL     1       2.096  14.155  20.726  0.00  0.00    +0.000 C 
ENDBRANCH   2   9
BRANCH   1  18
ATOM     18  S   UNL     1      -1.611  12.431  22.563  0.00  0.00    +0.000 S 
ATOM     19  O   UNL     1      -0.868  13.505  23.153  0.00  0.00    +0.000 OA
ATOM     20  O   UNL     1      -2.298  11.462  23.395  0.00  0.00    +0.000 OA
BRANCH  18  21
ATOM     21  N   UNL     1      -2.772  13.110  21.512  0.00  0.00    +0.000 NA
ATOM     22  H   UNL     1      -2.401  13.991  21.144  0.00  0.00    +0.000 HD
BRANCH  21  23
ATOM     23  C   UNL     1      -4.134  13.262  22.076  0.00  0.00    +0.000 C 
BRANCH  23  28
ATOM     24  C   UNL     1      -6.124  12.268  18.974  0.00  0.00    +0.000 A 
ATOM     25  C   UNL     1      -7.297  11.765  19.526  0.00  0.00    +0.000 A 
ATOM     26  C   UNL     1      -7.451  11.706  20.912  0.00  0.00    +0.000 A 
ATOM     27  C   UNL     1      -6.441  12.161  21.772  0.00  0.00    +0.000 A 
ATOM     28  C   UNL     1      -5.261  12.707  21.231  0.00  0.00    +0.000 A 
ATOM     29  C   UNL     1      -5.108  12.708  19.824  0.00  0.00    +0.000 A 
BRANCH  24  31
ATOM     30  C   UNL     1      -6.600  13.469  16.980  0.00  0.00    +0.000 C 
ATOM     31  O   UNL     1      -6.094  12.295  17.607  0.00  0.00    +0.000 OA
ENDBRANCH  24  31
BRANCH  27  32
ATOM     32  O   UNL     1      -6.809  12.127  23.091  0.00  0.00    +0.000 OA
ATOM     33  C   UNL     1      -7.699  13.125  23.572  0.00  0.00    +0.000 C 
ENDBRANCH  27  32
ENDBRANCH  23  28
ENDBRANCH  21  23
ENDBRANCH  18  21
ENDBRANCH   1  18
TORSDOF 7
ENDMDL
MODEL 9
REMARK VINA RESULT:      -6.6      2.748      4.164
REMARK  Name = 
REMARK  13 active torsions:
REMARK  status: ('A' for Active; 'I' for Inactive)
REMARK    1  A    between atoms: C_1  and  O_2
REMARK    2  A    between atoms: O_2  and  C_3
REMARK    3  A    between atoms: C_6  and  O_7
REMARK    4  A    between atoms: O_7  and  C_8
REMARK    5  A    between atoms: C_9  and  C_10
REMARK    6  A    between atoms: C_10  and  N_11
REMARK    7  A    between atoms: N_11  and  S_12
REMARK    8  A    between atoms: S_12  and  C_15
REMARK    9  A    between atoms: C_16  and  C_17
REMARK   10  A    between atoms: C_22  and  C_23
REMARK   11  A    between atoms: C_26  and  C_27
REMARK   12  A    between atoms: N_28  and  C_29
REMARK   13  A    between atoms: C_30  and  C_31
REMARK                            x       y       z     vdW  Elec       q    Type
REMARK                         _______ _______ _______ _____ _____    ______ ____
ROOT
ATOM      1  C   UNL     1       0.523   9.796  19.561  0.00  0.00    +0.000 A 
ATOM      2  C   UNL     1      -0.594  10.716  19.544  0.00  0.00    +0.000 A 
ATOM      3  C   UNL     1      -0.912  10.923  20.889  0.00  0.00    +0.000 A 
ATOM      4  C   UNL     1      -1.834  11.909  21.511  0.00  0.00    +0.000 C 
ATOM      5  N   UNL     1      -0.185  10.047  21.660  0.00  0.00    +0.000 N 
ATOM      6  C   UNL     1      -0.252   9.941  23.106  0.00  0.00    +0.000 C 
ATOM      7  C   UNL     1       0.677   9.327  20.869  0.00  0.00    +0.000 A 
ATOM      8  C   UNL     1       1.579   8.270  21.426  0.00  0.00    +0.000 C 
ENDROOT
BRANCH   2   9
ATOM      9  C   UNL     1      -1.196  11.455  18.406  0.00  0.00    +0.000 C 
ATOM     10  O   UNL     1      -0.689  12.515  18.036  0.00  0.00    +0.000 OA
ATOM     11  N   UNL     1      -2.396  10.974  17.831  0.00  0.00    +0.000 N 
ATOM     12  C   UNL     1      -3.045  11.730  16.761  0.00  0.00    +0.000 C 
ATOM     13  C   UNL     1      -4.556  11.871  16.990  0.00  0.00    +0.000 C 
ATOM     14  C   UNL     1      -5.281  10.604  17.482  0.00  0.00    +0.000 C 
ATOM     15  C   UNL     1      -6.559  11.007  18.246  0.00  0.00    +0.000 C 
ATOM     16  C   UNL     1      -4.428   9.694  18.376  0.00  0.00    +0.000 C 
ATOM     17  C   UNL     1      -2.950   9.633  17.986  0.00  0.00    +0.000 C 
ENDBRANCH   2   9
BRANCH   1  18
ATOM     18  S   UNL     1       1.527   9.321  18.218  0.00  0.00    +0.000 S 
ATOM     19  O   UNL     1       2.371  10.439  17.915  0.00  0.00    +0.000 OA
ATOM     20  O   UNL     1       0.605   8.800  17.227  0.00  0.00    +0.000 OA
BRANCH  18  21
ATOM     21  N   UNL     1       2.523   8.028  18.714  0.00  0.00    +0.000 NA
ATOM     22  H   UNL     1       3.501   8.317  18.624  0.00  0.00    +0.000 HD
BRANCH  21  23
ATOM     23  C   UNL     1       2.256   6.727  18.055  0.00  0.00    +0.000 C 
BRANCH  23  28
ATOM     24  C   UNL     1       5.349   4.627  18.827  0.00  0.00    +0.000 A 
ATOM     25  C   UNL     1       4.792   3.456  19.331  0.00  0.00    +0.000 A 
ATOM     26  C   UNL     1       3.407   3.340  19.463  0.00  0.00    +0.000 A 
ATOM     27  C   UNL     1       2.553   4.384  19.081  0.00  0.00    +0.000 A 
ATOM     28  C   UNL     1       3.097   5.563  18.535  0.00  0.00    +0.000 A 
ATOM     29  C   UNL     1       4.505   5.677  18.460  0.00  0.00    +0.000 A 
BRANCH  24  31
ATOM     30  C   UNL     1       7.375   5.867  18.905  0.00  0.00    +0.000 C 
ATOM     31  O   UNL     1       6.713   4.619  18.724  0.00  0.00    +0.000 OA
ENDBRANCH  24  31
BRANCH  27  32
ATOM     32  O   UNL     1       1.228   4.052  19.179  0.00  0.00    +0.000 OA
ATOM     33  C   UNL     1       0.812   3.238  20.267  0.00  0.00    +0.000 C 
ENDBRANCH  27  32
ENDBRANCH  23  28
ENDBRANCH  21  23
ENDBRANCH  18  21
ENDBRANCH   1  18
TORSDOF 7
ENDMDL
