MODEL 1
REMARK VINA RESULT:      -6.6      0.000      0.000
REMARK  Name = 
REMARK  10 active torsions:
REMARK  status: ('A' for Active; 'I' for Inactive)
REMARK    1  A    between atoms: C_1  and  C_2
REMARK    2  A    between atoms: C_2  and  C_3
REMARK    3  A    between atoms: C_3  and  C_4
REMARK    4  A    between atoms: C_3  and  N_6
REMARK    5  A    between atoms: C_4  and  C_5
REMARK    6  A    between atoms: N_6  and  C_7
REMARK    7  A    between atoms: C_11  and  O_12
REMARK    8  A    between atoms: O_12  and  C_13
REMARK    9  A    between atoms: C_14  and  O_15
REMARK   10  A    between atoms: O_15  and  C_16
REMARK                            x       y       z     vdW  Elec       q    Type
REMARK                         _______ _______ _______ _____ _____    ______ ____
ROOT
ATOM      1  C   UNL     1       4.342   3.307  19.554  0.00  0.00    +0.000 C 
ATOM      2  C   UNL     1       4.134   3.141  18.030  0.00  0.00    +0.000 C 
ATOM      3  C   UNL     1       5.141   4.080  17.452  0.00  0.00    +0.000 A 
ATOM      4  C   UNL     1       5.502   4.202  16.117  0.00  0.00    +0.000 A 
ATOM      5  C   UNL     1       6.410   5.204  15.732  0.00  0.00    +0.000 A 
ATOM      6  C   UNL     1       6.932   6.080  16.715  0.00  0.00    +0.000 A 
ATOM      7  C   UNL     1       6.548   5.932  18.061  0.00  0.00    +0.000 A 
ATOM      8  C   UNL     1       5.659   4.932  18.417  0.00  0.00    +0.000 A 
ATOM      9  C   UNL     1       5.071   4.662  19.766  0.00  0.00    +0.000 C 
ENDROOT
BRANCH   1  10
ATOM     10  N   UNL     1       3.095   3.219  20.339  0.00  0.00    +0.000 NA
ATOM     11  H   UNL     1       2.806   2.245  20.410  0.00  0.00    +0.000 HD
BRANCH  10  12
ATOM     12  C   UNL     1       1.979   4.037  19.831  0.00  0.00    +0.000 C 
BRANCH  12  14
ATOM     13  C   UNL     1       0.644   2.160  18.686  0.00  0.00    +0.000 C 
ATOM     14  C   UNL     1       0.666   3.230  19.766  0.00  0.00    +0.000 C 
ENDBRANCH  12  14
BRANCH  12  15
ATOM     15  C   UNL     1       1.867   5.337  20.663  0.00  0.00    +0.000 C 
ATOM     16  C   UNL     1       2.147   6.634  19.911  0.00  0.00    +0.000 C 
ENDBRANCH  12  15
ENDBRANCH  10  12
ENDBRANCH   1  10
BRANCH   5  17
ATOM     17  O   UNL     1       6.807   5.374  14.431  0.00  0.00    +0.000 OA
ATOM     18  C   UNL     1       6.564   4.323  13.506  0.00  0.00    +0.000 C 
ENDBRANCH   5  17
BRANCH   6  19
ATOM     19  O   UNL     1       7.811   7.122  16.550  0.00  0.00    +0.000 OA
ATOM     20  C   UNL     1       7.864   8.139  17.536  0.00  0.00    +0.000 C 
ENDBRANCH   6  19
TORSDOF 6
ENDMDL
MODEL 2
REMARK VINA RESULT:      -6.4      1.494      3.311
REMARK  Name = 
REMARK  10 active torsions:
REMARK  status: ('A' for Active; 'I' for Inactive)
REMARK    1  A    between atoms: C_1  and  C_2
REMARK    2  A    between atoms: C_2  and  C_3
REMARK    3  A    between atoms: C_3  and  C_4
REMARK    4  A    between atoms: C_3  and  N_6
REMARK    5  A    between atoms: C_4  and  C_5
REMARK    6  A    between atoms: N_6  and  C_7
REMARK    7  A    between atoms: C_11  and  O_12
REMARK    8  A    between atoms: O_12  and  C_13
REMARK    9  A    between atoms: C_14  and  O_15
REMARK   10  A    between atoms: O_15  and  C_16
REMARK                            x       y       z     vdW  Elec       q    Type
REMARK                         _______ _______ _______ _____ _____    ______ ____
ROOT
ATOM      1  C   UNL     1       2.339   4.991  17.848  0.00  0.00    +0.000 C 
ATOM      2  C   UNL     1       3.345   5.921  18.567  0.00  0.00    +0.000 C 
ATOM      3  C   UNL     1       4.523   5.911  17.648  0.00  0.00    +0.000 A 
ATOM      4  C   UNL     1       5.651   6.716  17.725  0.00  0.00    +0.000 A 
ATOM      5  C   UNL     1       6.711   6.515  16.824  0.00  0.00    +0.000 A 
ATOM      6  C   UNL     1       6.613   5.482  15.859  0.00  0.00    +0.000 A 
ATOM      7  C   UNL     1       5.456   4.681  15.805  0.00  0.00    +0.000 A 
ATOM      8  C   UNL     1       4.422   4.905  16.698  0.00  0.00    +0.000 A 
ATOM      9  C   UNL     1       3.156   4.122  16.854  0.00  0.00    +0.000 C 
ENDROOT
BRANCH   1  10
ATOM     10  N   UNL     1       1.526   4.170  18.765  0.00  0.00    +0.000 NA
ATOM     11  H   UNL     1       0.845   4.761  19.238  0.00  0.00    +0.000 HD
BRANCH  10  12
ATOM     12  C   UNL     1       2.295   3.398  19.758  0.00  0.00    +0.000 C 
BRANCH  12  14
ATOM     13  C   UNL     1       1.520   2.429  22.012  0.00  0.00    +0.000 C 
ATOM     14  C   UNL     1       1.809   3.678  21.196  0.00  0.00    +0.000 C 
ENDBRANCH  12  14
BRANCH  12  15
ATOM     15  C   UNL     1       2.275   1.898  19.379  0.00  0.00    +0.000 C 
ATOM     16  C   UNL     1       3.565   1.346  18.784  0.00  0.00    +0.000 C 
ENDBRANCH  12  15
ENDBRANCH  10  12
ENDBRANCH   1  10
BRANCH   5  17
ATOM     17  O   UNL     1       7.849   7.278  16.847  0.00  0.00    +0.000 OA
ATOM     18  C   UNL     1       7.903   8.386  17.736  0.00  0.00    +0.000 C 
ENDBRANCH   5  17
BRANCH   6  19
ATOM     19  O   UNL     1       7.530   5.113  14.907  0.00  0.00    +0.000 OA
ATOM     20  C   UNL     1       7.067   4.642  13.653  0.00  0.00    +0.000 C 
ENDBRANCH   6  19
TORSDOF 6
ENDMDL
MODEL 3
REMARK VINA RESULT:      -6.4      1.049      1.440
REMARK  Name = 
REMARK  10 active torsions:
REMARK  status: ('A' for Active; 'I' for Inactive)
REMARK    1  A    between atoms: C_1  and  C_2
REMARK    2  A    between atoms: C_2  and  C_3
REMARK    3  A    between atoms: C_3  and  C_4
REMARK    4  A    between atoms: C_3  and  N_6
REMARK    5  A    between atoms: C_4  and  C_5
REMARK    6  A    between atoms: N_6  and  C_7
REMARK    7  A    between atoms: C_11  and  O_12
REMARK    8  A    between atoms: O_12  and  C_13
REMARK    9  A    between atoms: C_14  and  O_15
REMARK   10  A    between atoms: O_15  and  C_16
REMARK                            x       y       z     vdW  Elec       q    Type
REMARK                         _______ _______ _______ _____ _____    ______ ____
ROOT
ATOM      1  C   UNL     1       4.428   2.892  19.025  0.00  0.00    +0.000 C 
ATOM      2  C   UNL     1       4.507   2.721  17.489  0.00  0.00    +0.000 C 
ATOM      3  C   UNL     1       5.460   3.797  17.083  0.00  0.00    +0.000 A 
ATOM      4  C   UNL     1       6.023   3.986  15.828  0.00  0.00    +0.000 A 
ATOM      5  C   UNL     1       6.838   5.107  15.594  0.00  0.00    +0.000 A 
ATOM      6  C   UNL     1       7.061   6.032  16.643  0.00  0.00    +0.000 A 
ATOM      7  C   UNL     1       6.477   5.814  17.906  0.00  0.00    +0.000 A 
ATOM      8  C   UNL     1       5.685   4.697  18.114  0.00  0.00    +0.000 A 
ATOM      9  C   UNL     1       4.919   4.331  19.345  0.00  0.00    +0.000 C 
ENDROOT
BRANCH   1  10
ATOM     10  N   UNL     1       3.090   2.624  19.586  0.00  0.00    +0.000 NA
ATOM     11  H   UNL     1       2.606   1.944  19.002  0.00  0.00    +0.000 HD
BRANCH  10  12
ATOM     12  C   UNL     1       2.242   3.815  19.775  0.00  0.00    +0.000 C 
BRANCH  12  14
ATOM     13  C   UNL     1       1.572   4.746  17.473  0.00  0.00    +0.000 C 
ATOM     14  C   UNL     1       1.160   3.922  18.681  0.00  0.00    +0.000 C 
ENDBRANCH  12  14
BRANCH  12  15
ATOM     15  C   UNL     1       1.672   3.825  21.214  0.00  0.00    +0.000 C 
ATOM     16  C   UNL     1       1.705   2.490  21.951  0.00  0.00    +0.000 C 
ENDBRANCH  12  15
ENDBRANCH  10  12
ENDBRANCH   1  10
BRANCH   5  17
ATOM     17  O   UNL     1       7.424   5.348  14.379  0.00  0.00    +0.000 OA
ATOM     18  C   UNL     1       7.005   4.577  13.261  0.00  0.00    +0.000 C 
ENDBRANCH   5  17
BRANCH   6  19
ATOM     19  O   UNL     1       7.804   7.186  16.621  0.00  0.00    +0.000 OA
ATOM     20  C   UNL     1       7.776   8.043  17.749  0.00  0.00    +0.000 C 
ENDBRANCH   6  19
TORSDOF 6
ENDMDL
MODEL 4
REMARK VINA RESULT:      -6.2      1.220      1.376
REMARK  Name = 
REMARK  10 active torsions:
REMARK  status: ('A' for Active; 'I' for Inactive)
REMARK    1  A    between atoms: C_1  and  C_2
REMARK    2  A    between atoms: C_2  and  C_3
REMARK    3  A    between atoms: C_3  and  C_4
REMARK    4  A    between atoms: C_3  and  N_6
REMARK    5  A    between atoms: C_4  and  C_5
REMARK    6  A    between atoms: N_6  and  C_7
REMARK    7  A    between atoms: C_11  and  O_12
REMARK    8  A    between atoms: O_12  and  C_13
REMARK    9  A    between atoms: C_14  and  O_15
REMARK   10  A    between atoms: O_15  and  C_16
REMARK                            x       y       z     vdW  Elec       q    Type
REMARK                         _______ _______ _______ _____ _____    ______ ____
ROOT
ATOM      1  C   UNL     1       3.009   4.223  18.458  0.00  0.00    +0.000 C 
ATOM      2  C   UNL     1       3.390   3.810  17.017  0.00  0.00    +0.000 C 
ATOM      3  C   UNL     1       4.665   4.551  16.783  0.00  0.00    +0.000 A 
ATOM      4  C   UNL     1       5.530   4.409  15.707  0.00  0.00    +0.000 A 
ATOM      5  C   UNL     1       6.650   5.252  15.599  0.00  0.00    +0.000 A 
ATOM      6  C   UNL     1       6.867   6.243  16.588  0.00  0.00    +0.000 A 
ATOM      7  C   UNL     1       5.972   6.364  17.669  0.00  0.00    +0.000 A 
ATOM      8  C   UNL     1       4.882   5.515  17.757  0.00  0.00    +0.000 A 
ATOM      9  C   UNL     1       3.784   5.532  18.773  0.00  0.00    +0.000 C 
ENDROOT
BRANCH   1  10
ATOM     10  N   UNL     1       1.557   4.372  18.672  0.00  0.00    +0.000 NA
ATOM     11  H   UNL     1       1.246   5.262  18.288  0.00  0.00    +0.000 HD
BRANCH  10  12
ATOM     12  C   UNL     1       1.117   4.249  20.073  0.00  0.00    +0.000 C 
BRANCH  12  14
ATOM     13  C   UNL     1       2.274   2.652  21.725  0.00  0.00    +0.000 C 
ATOM     14  C   UNL     1       1.271   2.805  20.593  0.00  0.00    +0.000 C 
ENDBRANCH  12  14
BRANCH  12  15
ATOM     15  C   UNL     1       1.847   5.301  20.942  0.00  0.00    +0.000 C 
ATOM     16  C   UNL     1       1.291   6.719  20.875  0.00  0.00    +0.000 C 
ENDBRANCH  12  15
ENDBRANCH  10  12
ENDBRANCH   1  10
BRANCH   5  17
ATOM     17  O   UNL     1       7.542   5.160  14.563  0.00  0.00    +0.000 OA
ATOM     18  C   UNL     1       7.128   4.508  13.370  0.00  0.00    +0.000 C 
ENDBRANCH   5  17
BRANCH   6  19
ATOM     19  O   UNL     1       7.880   7.167  16.663  0.00  0.00    +0.000 OA
ATOM     20  C   UNL     1       7.810   8.185  17.647  0.00  0.00    +0.000 C 
ENDBRANCH   6  19
TORSDOF 6
ENDMDL
MODEL 5
REMARK VINA RESULT:      -6.2      1.229      1.515
REMARK  Name = 
REMARK  10 active torsions:
REMARK  status: ('A' for Active; 'I' for Inactive)
REMARK    1  A    between atoms: C_1  and  C_2
REMARK    2  A    between atoms: C_2  and  C_3
REMARK    3  A    between atoms: C_3  and  C_4
REMARK    4  A    between atoms: C_3  and  N_6
REMARK    5  A    between atoms: C_4  and  C_5
REMARK    6  A    between atoms: N_6  and  C_7
REMARK    7  A    between atoms: C_11  and  O_12
REMARK    8  A    between atoms: O_12  and  C_13
REMARK    9  A    between atoms: C_14  and  O_15
REMARK   10  A    between atoms: O_15  and  C_16
REMARK                            x       y       z     vdW  Elec       q    Type
REMARK                         _______ _______ _______ _____ _____    ______ ____
ROOT
ATOM      1  C   UNL     1       3.038   4.592  18.772  0.00  0.00    +0.000 C 
ATOM      2  C   UNL     1       3.381   4.089  17.350  0.00  0.00    +0.000 C 
ATOM      3  C   UNL     1       4.662   4.794  17.046  0.00  0.00    +0.000 A 
ATOM      4  C   UNL     1       5.501   4.575  15.963  0.00  0.00    +0.000 A 
ATOM      5  C   UNL     1       6.631   5.393  15.782  0.00  0.00    +0.000 A 
ATOM      6  C   UNL     1       6.884   6.437  16.705  0.00  0.00    +0.000 A 
ATOM      7  C   UNL     1       6.015   6.635  17.795  0.00  0.00    +0.000 A 
ATOM      8  C   UNL     1       4.915   5.810  17.957  0.00  0.00    +0.000 A 
ATOM      9  C   UNL     1       3.839   5.905  18.992  0.00  0.00    +0.000 C 
ENDROOT
BRANCH   1  10
ATOM     10  N   UNL     1       1.593   4.777  19.007  0.00  0.00    +0.000 NA
ATOM     11  H   UNL     1       1.372   5.771  19.000  0.00  0.00    +0.000 HD
BRANCH  10  12
ATOM     12  C   UNL     1       1.077   4.157  20.241  0.00  0.00    +0.000 C 
BRANCH  12  14
ATOM     13  C   UNL     1       0.649   2.254  18.564  0.00  0.00    +0.000 C 
ATOM     14  C   UNL     1       0.380   2.811  19.952  0.00  0.00    +0.000 C 
ENDBRANCH  12  14
BRANCH  12  15
ATOM     15  C   UNL     1       2.214   4.054  21.285  0.00  0.00    +0.000 C 
ATOM     16  C   UNL     1       2.574   2.644  21.740  0.00  0.00    +0.000 C 
ENDBRANCH  12  15
ENDBRANCH  10  12
ENDBRANCH   1  10
BRANCH   5  17
ATOM     17  O   UNL     1       7.499   5.226  14.735  0.00  0.00    +0.000 OA
ATOM     18  C   UNL     1       7.050   4.507  13.593  0.00  0.00    +0.000 C 
ENDBRANCH   5  17
BRANCH   6  19
ATOM     19  O   UNL     1       7.912   7.347  16.704  0.00  0.00    +0.000 OA
ATOM     20  C   UNL     1       7.901   8.397  17.656  0.00  0.00    +0.000 C 
ENDBRANCH   6  19
TORSDOF 6
ENDMDL
MODEL 6
REMARK VINA RESULT:      -6.2      3.085      6.525
REMARK  Name = 
REMARK  10 active torsions:
REMARK  status: ('A' for Active; 'I' for Inactive)
REMARK    1  A    between atoms: C_1  and  C_2
REMARK    2  A    between atoms: C_2  and  C_3
REMARK    3  A    between atoms: C_3  and  C_4
REMARK    4  A    between atoms: C_3  and  N_6
REMARK    5  A    between atoms: C_4  and  C_5
REMARK    6  A    between atoms: N_6  and  C_7
REMARK    7  A    between atoms: C_11  and  O_12
REMARK    8  A    between atoms: O_12  and  C_13
REMARK    9  A    between atoms: C_14  and  O_15
REMARK   10  A    between atoms: O_15  and  C_16
REMARK                            x       y       z     vdW  Elec       q    Type
REMARK                         _______ _______ _______ _____ _____    ______ ____
ROOT
ATOM      1  C   UNL     1       5.779   4.245  16.177  0.00  0.00    +0.000 C 
ATOM      2  C   UNL     1       5.238   5.671  15.916  0.00  0.00    +0.000 C 
ATOM      3  C   UNL     1       4.329   5.901  17.078  0.00  0.00    +0.000 A 
ATOM      4  C   UNL     1       3.711   7.092  17.434  0.00  0.00    +0.000 A 
ATOM      5  C   UNL     1       2.813   7.112  18.516  0.00  0.00    +0.000 A 
ATOM      6  C   UNL     1       2.545   5.910  19.216  0.00  0.00    +0.000 A 
ATOM      7  C   UNL     1       3.188   4.718  18.832  0.00  0.00    +0.000 A 
ATOM      8  C   UNL     1       4.075   4.725  17.770  0.00  0.00    +0.000 A 
ATOM      9  C   UNL     1       4.792   3.561  17.163  0.00  0.00    +0.000 C 
ENDROOT
BRANCH   1  10
ATOM     10  N   UNL     1       5.980   3.450  14.951  0.00  0.00    +0.000 NA
ATOM     11  H   UNL     1       6.762   2.812  15.083  0.00  0.00    +0.000 HD
BRANCH  10  12
ATOM     12  C   UNL     1       6.179   4.239  13.722  0.00  0.00    +0.000 C 
BRANCH  12  14
ATOM     13  C   UNL     1       7.962   5.527  12.388  0.00  0.00    +0.000 C 
ATOM     14  C   UNL     1       7.525   4.992  13.742  0.00  0.00    +0.000 C 
ENDBRANCH  12  14
BRANCH  12  15
ATOM     15  C   UNL     1       5.997   3.328  12.484  0.00  0.00    +0.000 C 
ATOM     16  C   UNL     1       4.634   3.395  11.804  0.00  0.00    +0.000 C 
ENDBRANCH  12  15
ENDBRANCH  10  12
ENDBRANCH   1  10
BRANCH   5  17
ATOM     17  O   UNL     1       2.173   8.256  18.917  0.00  0.00    +0.000 OA
ATOM     18  C   UNL     1       1.625   9.110  17.922  0.00  0.00    +0.000 C 
ENDBRANCH   5  17
BRANCH   6  19
ATOM     19  O   UNL     1       1.701   5.712  20.280  0.00  0.00    +0.000 OA
ATOM     20  C   UNL     1       1.239   4.401  20.556  0.00  0.00    +0.000 C 
ENDBRANCH   6  19
TORSDOF 6
ENDMDL
MODEL 7
REMARK VINA RESULT:      -6.1      3.443      6.248
REMARK  Name = 
REMARK  10 active torsions:
REMARK  status: ('A' for Active; 'I' for Inactive)
REMARK    1  A    between atoms: C_1  and  C_2
REMARK    2  A    between atoms: C_2  and  C_3
REMARK    3  A    between atoms: C_3  and  C_4
REMARK    4  A    between atoms: C_3  and  N_6
REMARK    5  A    between atoms: C_4  and  C_5
REMARK    6  A    between atoms: N_6  and  C_7
REMARK    7  A    between atoms: C_11  and  O_12
REMARK    8  A    between atoms: O_12  and  C_13
REMARK    9  A    between atoms: C_14  and  O_15
REMARK   10  A    between atoms: O_15  and  C_16
REMARK                            x       y       z     vdW  Elec       q    Type
REMARK                         _______ _______ _______ _____ _____    ______ ____
ROOT
ATOM      1  C   UNL     1       4.564   5.999  16.470  0.00  0.00    +0.000 C 
ATOM      2  C   UNL     1       4.165   4.647  17.108  0.00  0.00    +0.000 C 
ATOM      3  C   UNL     1       3.240   5.056  18.207  0.00  0.00    +0.000 A 
ATOM      4  C   UNL     1       2.455   4.225  18.992  0.00  0.00    +0.000 A 
ATOM      5  C   UNL     1       1.702   4.772  20.046  0.00  0.00    +0.000 A 
ATOM      6  C   UNL     1       1.769   6.165  20.295  0.00  0.00    +0.000 A 
ATOM      7  C   UNL     1       2.574   6.984  19.480  0.00  0.00    +0.000 A 
ATOM      8  C   UNL     1       3.299   6.422  18.442  0.00  0.00    +0.000 A 
ATOM      9  C   UNL     1       4.264   7.101  17.522  0.00  0.00    +0.000 C 
ENDROOT
BRANCH   1  10
ATOM     10  N   UNL     1       5.961   6.046  15.998  0.00  0.00    +0.000 NA
ATOM     11  H   UNL     1       6.002   6.534  15.105  0.00  0.00    +0.000 HD
BRANCH  10  12
ATOM     12  C   UNL     1       6.625   4.735  15.884  0.00  0.00    +0.000 C 
BRANCH  12  14
ATOM     13  C   UNL     1       6.155   3.846  13.516  0.00  0.00    +0.000 C 
ATOM     14  C   UNL     1       7.159   4.491  14.457  0.00  0.00    +0.000 C 
ENDBRANCH  12  14
BRANCH  12  15
ATOM     15  C   UNL     1       7.708   4.603  16.981  0.00  0.00    +0.000 C 
ATOM     16  C   UNL     1       7.554   5.531  18.182  0.00  0.00    +0.000 C 
ENDBRANCH  12  15
ENDBRANCH  10  12
ENDBRANCH   1  10
BRANCH   5  17
ATOM     17  O   UNL     1       0.906   4.004  20.856  0.00  0.00    +0.000 OA
ATOM     18  C   UNL     1       1.407   2.753  21.308  0.00  0.00    +0.000 C 
ENDBRANCH   5  17
BRANCH   6  19
ATOM     19  O   UNL     1       1.131   6.890  21.270  0.00  0.00    +0.000 OA
ATOM     20  C   UNL     1       1.066   8.301  21.146  0.00  0.00    +0.000 C 
ENDBRANCH   6  19
TORSDOF 6
ENDMDL
MODEL 8
REMARK VINA RESULT:      -6.1      1.509      2.311
REMARK  Name = 
REMARK  10 active torsions:
REMARK  status: ('A' for Active; 'I' for Inactive)
REMARK    1  A    between atoms: C_1  and  C_2
REMARK    2  A    between atoms: C_2  and  C_3
REMARK    3  A    between atoms: C_3  and  C_4
REMARK    4  A    between atoms: C_3  and  N_6
REMARK    5  A    between atoms: C_4  and  C_5
REMARK    6  A    between atoms: N_6  and  C_7
REMARK    7  A    between atoms: C_11  and  O_12
REMARK    8  A    between atoms: O_12  and  C_13
REMARK    9  A    between atoms: C_14  and  O_15
REMARK   10  A    between atoms: O_15  and  C_16
REMARK                            x       y       z     vdW  Elec       q    Type
REMARK                         _______ _______ _______ _____ _____    ______ ____
ROOT
ATOM      1  C   UNL     1       4.861   4.798  19.036  0.00  0.00    +0.000 C 
ATOM      2  C   UNL     1       4.158   4.141  17.824  0.00  0.00    +0.000 C 
ATOM      3  C   UNL     1       5.169   4.287  16.734  0.00  0.00    +0.000 A 
ATOM      4  C   UNL     1       5.124   3.715  15.470  0.00  0.00    +0.000 A 
ATOM      5  C   UNL     1       6.122   4.028  14.531  0.00  0.00    +0.000 A 
ATOM      6  C   UNL     1       7.152   4.933  14.889  0.00  0.00    +0.000 A 
ATOM      7  C   UNL     1       7.171   5.496  16.179  0.00  0.00    +0.000 A 
ATOM      8  C   UNL     1       6.182   5.166  17.090  0.00  0.00    +0.000 A 
ATOM      9  C   UNL     1       5.982   5.711  18.469  0.00  0.00    +0.000 C 
ENDROOT
BRANCH   1  10
ATOM     10  N   UNL     1       3.944   5.534  19.929  0.00  0.00    +0.000 NA
ATOM     11  H   UNL     1       3.909   5.072  20.835  0.00  0.00    +0.000 HD
BRANCH  10  12
ATOM     12  C   UNL     1       2.579   5.718  19.406  0.00  0.00    +0.000 C 
BRANCH  12  14
ATOM     13  C   UNL     1       1.123   3.687  20.016  0.00  0.00    +0.000 C 
ATOM     14  C   UNL     1       1.521   5.114  20.353  0.00  0.00    +0.000 C 
ENDBRANCH  12  14
BRANCH  12  15
ATOM     15  C   UNL     1       2.341   7.213  19.085  0.00  0.00    +0.000 C 
ATOM     16  C   UNL     1       3.001   7.733  17.813  0.00  0.00    +0.000 C 
ENDBRANCH  12  15
ENDBRANCH  10  12
ENDBRANCH   1  10
BRANCH   5  17
ATOM     17  O   UNL     1       6.135   3.495  13.268  0.00  0.00    +0.000 OA
ATOM     18  C   UNL     1       4.938   3.538  12.503  0.00  0.00    +0.000 C 
ENDBRANCH   5  17
BRANCH   6  19
ATOM     19  O   UNL     1       8.202   5.377  14.125  0.00  0.00    +0.000 OA
ATOM     20  C   UNL     1       7.984   5.661  12.754  0.00  0.00    +0.000 C 
ENDBRANCH   6  19
TORSDOF 6
ENDMDL
MODEL 9
REMARK VINA RESULT:      -6.1      3.550      6.746
REMARK  Name = 
REMARK  10 active torsions:
REMARK  status: ('A' for Active; 'I' for Inactive)
REMARK    1  A    between atoms: C_1  and  C_2
REMARK    2  A    between atoms: C_2  and  C_3
REMARK    3  A    between atoms: C_3  and  C_4
REMARK    4  A    between atoms: C_3  and  N_6
REMARK    5  A    between atoms: C_4  and  C_5
REMARK    6  A    between atoms: N_6  and  C_7
REMARK    7  A    between atoms: C_11  and  O_12
REMARK    8  A    between atoms: O_12  and  C_13
REMARK    9  A    between atoms: C_14  and  O_15
REMARK   10  A    between atoms: O_15  and  C_16
REMARK                            x       y       z     vdW  Elec       q    Type
REMARK                         _______ _______ _______ _____ _____    ______ ____
ROOT
ATOM      1  C   UNL     1       4.120   5.377  17.895  0.00  0.00    +0.000 C 
ATOM      2  C   UNL     1       3.670   5.507  19.370  0.00  0.00    +0.000 C 
ATOM      3  C   UNL     1       2.785   6.710  19.344  0.00  0.00    +0.000 A 
ATOM      4  C   UNL     1       1.976   7.176  20.371  0.00  0.00    +0.000 A 
ATOM      5  C   UNL     1       1.269   8.380  20.206  0.00  0.00    +0.000 A 
ATOM      6  C   UNL     1       1.406   9.104  18.996  0.00  0.00    +0.000 A 
ATOM      7  C   UNL     1       2.234   8.606  17.972  0.00  0.00    +0.000 A 
ATOM      8  C   UNL     1       2.913   7.413  18.154  0.00  0.00    +0.000 A 
ATOM      9  C   UNL     1       3.892   6.761  17.229  0.00  0.00    +0.000 C 
ENDROOT
BRANCH   1  10
ATOM     10  N   UNL     1       5.509   4.906  17.736  0.00  0.00    +0.000 NA
ATOM     11  H   UNL     1       5.957   4.853  18.648  0.00  0.00    +0.000 HD
BRANCH  10  12
ATOM     12  C   UNL     1       6.337   5.706  16.816  0.00  0.00    +0.000 C 
BRANCH  12  14
ATOM     13  C   UNL     1       7.721   5.979  18.967  0.00  0.00    +0.000 C 
ATOM     14  C   UNL     1       7.419   6.504  17.573  0.00  0.00    +0.000 C 
ENDBRANCH  12  14
BRANCH  12  15
ATOM     15  C   UNL     1       6.906   4.795  15.702  0.00  0.00    +0.000 C 
ATOM     16  C   UNL     1       5.921   4.382  14.614  0.00  0.00    +0.000 C 
ENDBRANCH  12  15
ENDBRANCH  10  12
ENDBRANCH   1  10
BRANCH   5  17
ATOM     17  O   UNL     1       0.453   8.892  21.181  0.00  0.00    +0.000 OA
ATOM     18  C   UNL     1       1.033   9.254  22.427  0.00  0.00    +0.000 C 
ENDBRANCH   5  17
BRANCH   6  19
ATOM     19  O   UNL     1       0.821  10.294  18.642  0.00  0.00    +0.000 OA
ATOM     20  C   UNL     1      -0.525  10.293  18.200  0.00  0.00    +0.000 C 
ENDBRANCH   6  19
TORSDOF 6
ENDMDL
