MODEL 1
REMARK VINA RESULT:      -8.4      0.000      0.000
REMARK  Name = 
REMARK  8 active torsions:
REMARK  status: ('A' for Active; 'I' for Inactive)
REMARK    1  A    between atoms: C_1  and  C_2
REMARK    2  A    between atoms: C_2  and  C_3
REMARK    3  A    between atoms: C_3  and  C_4
REMARK    4  A    between atoms: C_4  and  C_5
REMARK    5  A    between atoms: C_5  and  C_6
REMARK    6  A    between atoms: C_6  and  C_7
REMARK    7  A    between atoms: C_7  and  C_8
REMARK    8  A    between atoms: C_8  and  N_9
REMARK                            x       y       z     vdW  Elec       q    Type
REMARK                         _______ _______ _______ _____ _____    ______ ____
ROOT
ATOM      1  N   UNL     1       6.215   4.158  15.824  0.00  0.00    +0.000 NA
ATOM      2  C   UNL     1       6.980   4.656  16.994  0.00  0.00    +0.000 C 
ATOM      3  C   UNL     1       6.240   5.803  17.713  0.00  0.00    +0.000 C 
ATOM      4  C   UNL     1       4.836   5.344  18.165  0.00  0.00    +0.000 C 
ATOM      5  C   UNL     1       4.076   4.772  16.934  0.00  0.00    +0.000 C 
ATOM      6  C   UNL     1       4.880   3.674  16.226  0.00  0.00    +0.000 C 
ATOM      7  C   UNL     1       4.968   4.306  19.319  0.00  0.00    +0.000 C 
ATOM      8  C   UNL     1       3.619   3.972  19.888  0.00  0.00    +0.000 A 
ATOM      9  C   UNL     1       3.371   2.708  20.434  0.00  0.00    +0.000 A 
ATOM     10  C   UNL     1       2.119   2.417  20.975  0.00  0.00    +0.000 A 
ATOM     11  C   UNL     1       1.109   3.384  20.967  0.00  0.00    +0.000 A 
ATOM     12  C   UNL     1       1.349   4.652  20.424  0.00  0.00    +0.000 A 
ATOM     13  C   UNL     1       2.606   4.952  19.882  0.00  0.00    +0.000 A 
ATOM     14  C   UNL     1       2.929   6.274  19.286  0.00  0.00    +0.000 C 
ATOM     15  O   UNL     1       2.151   7.211  19.366  0.00  0.00    +0.000 OA
ATOM     16  O   UNL     1       4.120   6.435  18.646  0.00  0.00    +0.000 OA
ENDROOT
BRANCH   1  17
ATOM     17  C   UNL     1       6.150   5.098  14.678  0.00  0.00    +0.000 C 
BRANCH  17  18
ATOM     18  C   UNL     1       7.062   4.656  13.532  0.00  0.00    +0.000 C 
BRANCH  18  19
ATOM     19  C   UNL     1       6.428   3.488  12.774  0.00  0.00    +0.000 C 
BRANCH  19  20
ATOM     20  C   UNL     1       4.970   3.784  12.466  0.00  0.00    +0.000 C 
BRANCH  20  21
ATOM     21  C   UNL     1       4.545   3.057  11.193  0.00  0.00    +0.000 C 
BRANCH  21  22
ATOM     22  C   UNL     1       3.144   3.505  10.794  0.00  0.00    +0.000 C 
BRANCH  22  24
ATOM     23  C   UNL     1       2.177   5.030   9.068  0.00  0.00    +0.000 C 
ATOM     24  C   UNL     1       3.069   3.817   9.301  0.00  0.00    +0.000 C 
ENDBRANCH  22  24
ENDBRANCH  21  22
ENDBRANCH  20  21
ENDBRANCH  19  20
ENDBRANCH  18  19
ENDBRANCH  17  18
ENDBRANCH   1  17
TORSDOF 7
ENDMDL
MODEL 2
REMARK VINA RESULT:      -7.8      3.645      6.870
REMARK  Name = 
REMARK  8 active torsions:
REMARK  status: ('A' for Active; 'I' for Inactive)
REMARK    1  A    between atoms: C_1  and  C_2
REMARK    2  A    between atoms: C_2  and  C_3
REMARK    3  A    between atoms: C_3  and  C_4
REMARK    4  A    between atoms: C_4  and  C_5
REMARK    5  A    between atoms: C_5  and  C_6
REMARK    6  A    between atoms: C_6  and  C_7
REMARK    7  A    between atoms: C_7  and  C_8
REMARK    8  A    between atoms: C_8  and  N_9
REMARK                            x       y       z     vdW  Elec       q    Type
REMARK                         _______ _______ _______ _____ _____    ______ ____
ROOT
ATOM      1  N   UNL     1       5.763   6.344  16.622  0.00  0.00    +0.000 NA
ATOM      2  C   UNL     1       5.335   5.165  15.827  0.00  0.00    +0.000 C 
ATOM      3  C   UNL     1       5.592   3.844  16.581  0.00  0.00    +0.000 C 
ATOM      4  C   UNL     1       4.863   3.847  17.944  0.00  0.00    +0.000 C 
ATOM      5  C   UNL     1       5.284   5.120  18.733  0.00  0.00    +0.000 C 
ATOM      6  C   UNL     1       5.057   6.398  17.916  0.00  0.00    +0.000 C 
ATOM      7  C   UNL     1       3.325   3.765  17.718  0.00  0.00    +0.000 C 
ATOM      8  C   UNL     1       2.606   3.597  19.025  0.00  0.00    +0.000 A 
ATOM      9  C   UNL     1       1.313   4.104  19.197  0.00  0.00    +0.000 A 
ATOM     10  C   UNL     1       0.650   3.925  20.410  0.00  0.00    +0.000 A 
ATOM     11  C   UNL     1       1.276   3.245  21.459  0.00  0.00    +0.000 A 
ATOM     12  C   UNL     1       2.569   2.732  21.296  0.00  0.00    +0.000 A 
ATOM     13  C   UNL     1       3.240   2.906  20.077  0.00  0.00    +0.000 A 
ATOM     14  C   UNL     1       4.613   2.392  19.835  0.00  0.00    +0.000 C 
ATOM     15  O   UNL     1       5.171   1.671  20.647  0.00  0.00    +0.000 OA
ATOM     16  O   UNL     1       5.251   2.734  18.682  0.00  0.00    +0.000 OA
ENDROOT
BRANCH   1  17
ATOM     17  C   UNL     1       7.232   6.489  16.776  0.00  0.00    +0.000 C 
BRANCH  17  18
ATOM     18  C   UNL     1       7.592   7.308  18.016  0.00  0.00    +0.000 C 
BRANCH  18  19
ATOM     19  C   UNL     1       8.010   8.723  17.610  0.00  0.00    +0.000 C 
BRANCH  19  20
ATOM     20  C   UNL     1       8.780   9.393  18.735  0.00  0.00    +0.000 C 
BRANCH  20  21
ATOM     21  C   UNL     1       9.196  10.801  18.320  0.00  0.00    +0.000 C 
BRANCH  21  22
ATOM     22  C   UNL     1      10.327  11.284  19.220  0.00  0.00    +0.000 C 
BRANCH  22  24
ATOM     23  C   UNL     1      10.209  12.955  21.073  0.00  0.00    +0.000 C 
ATOM     24  C   UNL     1       9.829  11.545  20.640  0.00  0.00    +0.000 C 
ENDBRANCH  22  24
ENDBRANCH  21  22
ENDBRANCH  20  21
ENDBRANCH  19  20
ENDBRANCH  18  19
ENDBRANCH  17  18
ENDBRANCH   1  17
TORSDOF 7
ENDMDL
MODEL 3
REMARK VINA RESULT:      -7.6      4.227      7.175
REMARK  Name = 
REMARK  8 active torsions:
REMARK  status: ('A' for Active; 'I' for Inactive)
REMARK    1  A    between atoms: C_1  and  C_2
REMARK    2  A    between atoms: C_2  and  C_3
REMARK    3  A    between atoms: C_3  and  C_4
REMARK    4  A    between atoms: C_4  and  C_5
REMARK    5  A    between atoms: C_5  and  C_6
REMARK    6  A    between atoms: C_6  and  C_7
REMARK    7  A    between atoms: C_7  and  C_8
REMARK    8  A    between atoms: C_8  and  N_9
REMARK                            x       y       z     vdW  Elec       q    Type
REMARK                         _______ _______ _______ _____ _____    ______ ____
ROOT
ATOM      1  N   UNL     1       6.494   6.869  17.024  0.00  0.00    +0.000 NA
ATOM      2  C   UNL     1       6.724   5.608  16.275  0.00  0.00    +0.000 C 
ATOM      3  C   UNL     1       6.825   4.393  17.221  0.00  0.00    +0.000 C 
ATOM      4  C   UNL     1       5.544   4.265  18.077  0.00  0.00    +0.000 C 
ATOM      5  C   UNL     1       5.293   5.617  18.806  0.00  0.00    +0.000 C 
ATOM      6  C   UNL     1       5.257   6.796  17.825  0.00  0.00    +0.000 C 
ATOM      7  C   UNL     1       4.348   3.842  17.175  0.00  0.00    +0.000 C 
ATOM      8  C   UNL     1       3.134   3.548  18.008  0.00  0.00    +0.000 A 
ATOM      9  C   UNL     1       1.850   3.762  17.496  0.00  0.00    +0.000 A 
ATOM     10  C   UNL     1       0.732   3.468  18.274  0.00  0.00    +0.000 A 
ATOM     11  C   UNL     1       0.890   2.965  19.569  0.00  0.00    +0.000 A 
ATOM     12  C   UNL     1       2.171   2.747  20.091  0.00  0.00    +0.000 A 
ATOM     13  C   UNL     1       3.300   3.037  19.312  0.00  0.00    +0.000 A 
ATOM     14  C   UNL     1       4.688   2.834  19.801  0.00  0.00    +0.000 C 
ATOM     15  O   UNL     1       4.908   2.272  20.862  0.00  0.00    +0.000 OA
ATOM     16  O   UNL     1       5.726   3.282  19.043  0.00  0.00    +0.000 OA
ENDROOT
BRANCH   1  17
ATOM     17  C   UNL     1       7.653   7.338  17.823  0.00  0.00    +0.000 C 
BRANCH  17  18
ATOM     18  C   UNL     1       7.933   8.825  17.596  0.00  0.00    +0.000 C 
BRANCH  18  19
ATOM     19  C   UNL     1       8.883   9.353  18.673  0.00  0.00    +0.000 C 
BRANCH  19  20
ATOM     20  C   UNL     1       9.026  10.861  18.561  0.00  0.00    +0.000 C 
BRANCH  20  21
ATOM     21  C   UNL     1      10.482  11.231  18.294  0.00  0.00    +0.000 C 
BRANCH  21  22
ATOM     22  C   UNL     1      11.128  11.725  19.583  0.00  0.00    +0.000 C 
BRANCH  22  24
ATOM     23  C   UNL     1      11.319  13.825  18.246  0.00  0.00    +0.000 C 
ATOM     24  C   UNL     1      11.140  13.250  19.645  0.00  0.00    +0.000 C 
ENDBRANCH  22  24
ENDBRANCH  21  22
ENDBRANCH  20  21
ENDBRANCH  19  20
ENDBRANCH  18  19
ENDBRANCH  17  18
ENDBRANCH   1  17
TORSDOF 7
ENDMDL
MODEL 4
REMARK VINA RESULT:      -7.5      1.506      2.095
REMARK  Name = 
REMARK  8 active torsions:
REMARK  status: ('A' for Active; 'I' for Inactive)
REMARK    1  A    between atoms: C_1  and  C_2
REMARK    2  A    between atoms: C_2  and  C_3
REMARK    3  A    between atoms: C_3  and  C_4
REMARK    4  A    between atoms: C_4  and  C_5
REMARK    5  A    between atoms: C_5  and  C_6
REMARK    6  A    between atoms: C_6  and  C_7
REMARK    7  A    between atoms: C_7  and  C_8
REMARK    8  A    between atoms: C_8  and  N_9
REMARK                            x       y       z     vdW  Elec       q    Type
REMARK                         _______ _______ _______ _____ _____    ______ ____
ROOT
ATOM      1  N   UNL     1       6.663   4.161  16.343  0.00  0.00    +0.000 NA
ATOM      2  C   UNL     1       7.277   4.621  17.613  0.00  0.00    +0.000 C 
ATOM      3  C   UNL     1       6.459   5.754  18.266  0.00  0.00    +0.000 C 
ATOM      4  C   UNL     1       5.007   5.294  18.526  0.00  0.00    +0.000 C 
ATOM      5  C   UNL     1       4.405   4.763  17.192  0.00  0.00    +0.000 C 
ATOM      6  C   UNL     1       5.286   3.679  16.560  0.00  0.00    +0.000 C 
ATOM      7  C   UNL     1       4.988   4.224  19.657  0.00  0.00    +0.000 C 
ATOM      8  C   UNL     1       3.577   3.886  20.042  0.00  0.00    +0.000 A 
ATOM      9  C   UNL     1       3.255   2.610  20.517  0.00  0.00    +0.000 A 
ATOM     10  C   UNL     1       1.944   2.315  20.888  0.00  0.00    +0.000 A 
ATOM     11  C   UNL     1       0.948   3.289  20.782  0.00  0.00    +0.000 A 
ATOM     12  C   UNL     1       1.260   4.570  20.309  0.00  0.00    +0.000 A 
ATOM     13  C   UNL     1       2.578   4.875  19.937  0.00  0.00    +0.000 A 
ATOM     14  C   UNL     1       2.980   6.209  19.425  0.00  0.00    +0.000 C 
ATOM     15  O   UNL     1       2.202   7.151  19.433  0.00  0.00    +0.000 OA
ATOM     16  O   UNL     1       4.242   6.377  18.943  0.00  0.00    +0.000 OA
ENDROOT
BRANCH   1  17
ATOM     17  C   UNL     1       6.747   5.133  15.224  0.00  0.00    +0.000 C 
BRANCH  17  18
ATOM     18  C   UNL     1       6.810   4.430  13.867  0.00  0.00    +0.000 C 
BRANCH  18  19
ATOM     19  C   UNL     1       5.398   4.231  13.311  0.00  0.00    +0.000 C 
BRANCH  19  20
ATOM     20  C   UNL     1       5.375   3.081  12.320  0.00  0.00    +0.000 C 
BRANCH  20  21
ATOM     21  C   UNL     1       6.667   3.061  11.509  0.00  0.00    +0.000 C 
BRANCH  21  22
ATOM     22  C   UNL     1       7.130   1.621  11.322  0.00  0.00    +0.000 C 
BRANCH  22  24
ATOM     23  C   UNL     1       6.237  -0.711  11.340  0.00  0.00    +0.000 C 
ATOM     24  C   UNL     1       5.974   0.721  10.893  0.00  0.00    +0.000 C 
ENDBRANCH  22  24
ENDBRANCH  21  22
ENDBRANCH  20  21
ENDBRANCH  19  20
ENDBRANCH  18  19
ENDBRANCH  17  18
ENDBRANCH   1  17
TORSDOF 7
ENDMDL
MODEL 5
REMARK VINA RESULT:      -7.5      3.728      6.612
REMARK  Name = 
REMARK  8 active torsions:
REMARK  status: ('A' for Active; 'I' for Inactive)
REMARK    1  A    between atoms: C_1  and  C_2
REMARK    2  A    between atoms: C_2  and  C_3
REMARK    3  A    between atoms: C_3  and  C_4
REMARK    4  A    between atoms: C_4  and  C_5
REMARK    5  A    between atoms: C_5  and  C_6
REMARK    6  A    between atoms: C_6  and  C_7
REMARK    7  A    between atoms: C_7  and  C_8
REMARK    8  A    between atoms: C_8  and  N_9
REMARK                            x       y       z     vdW  Elec       q    Type
REMARK                         _______ _______ _______ _____ _____    ______ ____
ROOT
ATOM      1  N   UNL     1       6.867   5.902  17.001  0.00  0.00    +0.000 NA
ATOM      2  C   UNL     1       7.322   5.215  18.236  0.00  0.00    +0.000 C 
ATOM      3  C   UNL     1       6.408   5.534  19.437  0.00  0.00    +0.000 C 
ATOM      4  C   UNL     1       4.947   5.135  19.127  0.00  0.00    +0.000 C 
ATOM      5  C   UNL     1       4.513   5.820  17.799  0.00  0.00    +0.000 C 
ATOM      6  C   UNL     1       5.486   5.514  16.654  0.00  0.00    +0.000 C 
ATOM      7  C   UNL     1       4.828   3.584  19.066  0.00  0.00    +0.000 C 
ATOM      8  C   UNL     1       3.391   3.168  18.934  0.00  0.00    +0.000 A 
ATOM      9  C   UNL     1       3.050   1.991  18.259  0.00  0.00    +0.000 A 
ATOM     10  C   UNL     1       1.713   1.608  18.159  0.00  0.00    +0.000 A 
ATOM     11  C   UNL     1       0.711   2.401  18.727  0.00  0.00    +0.000 A 
ATOM     12  C   UNL     1       1.043   3.580  19.405  0.00  0.00    +0.000 A 
ATOM     13  C   UNL     1       2.386   3.969  19.512  0.00  0.00    +0.000 A 
ATOM     14  C   UNL     1       2.810   5.208  20.214  0.00  0.00    +0.000 C 
ATOM     15  O   UNL     1       2.013   5.878  20.852  0.00  0.00    +0.000 OA
ATOM     16  O   UNL     1       4.114   5.593  20.141  0.00  0.00    +0.000 OA
ENDROOT
BRANCH   1  17
ATOM     17  C   UNL     1       7.052   7.374  17.004  0.00  0.00    +0.000 C 
BRANCH  17  18
ATOM     18  C   UNL     1       8.124   7.807  18.005  0.00  0.00    +0.000 C 
BRANCH  18  19
ATOM     19  C   UNL     1       8.277   9.329  17.989  0.00  0.00    +0.000 C 
BRANCH  19  20
ATOM     20  C   UNL     1       9.100   9.793  19.179  0.00  0.00    +0.000 C 
BRANCH  20  21
ATOM     21  C   UNL     1       9.414  11.281  19.051  0.00  0.00    +0.000 C 
BRANCH  21  22
ATOM     22  C   UNL     1      10.310  11.511  17.840  0.00  0.00    +0.000 C 
BRANCH  22  24
ATOM     23  C   UNL     1      11.949  12.344  19.530  0.00  0.00    +0.000 C 
ATOM     24  C   UNL     1      11.782  11.549  18.242  0.00  0.00    +0.000 C 
ENDBRANCH  22  24
ENDBRANCH  21  22
ENDBRANCH  20  21
ENDBRANCH  19  20
ENDBRANCH  18  19
ENDBRANCH  17  18
ENDBRANCH   1  17
TORSDOF 7
ENDMDL
MODEL 6
REMARK VINA RESULT:      -7.4      1.542      1.825
REMARK  Name = 
REMARK  8 active torsions:
REMARK  status: ('A' for Active; 'I' for Inactive)
REMARK    1  A    between atoms: C_1  and  C_2
REMARK    2  A    between atoms: C_2  and  C_3
REMARK    3  A    between atoms: C_3  and  C_4
REMARK    4  A    between atoms: C_4  and  C_5
REMARK    5  A    between atoms: C_5  and  C_6
REMARK    6  A    between atoms: C_6  and  C_7
REMARK    7  A    between atoms: C_7  and  C_8
REMARK    8  A    between atoms: C_8  and  N_9
REMARK                            x       y       z     vdW  Elec       q    Type
REMARK                         _______ _______ _______ _____ _____    ______ ____
ROOT
ATOM      1  N   UNL     1       6.704   5.722  17.334  0.00  0.00    +0.000 NA
ATOM      2  C   UNL     1       5.966   6.950  17.723  0.00  0.00    +0.000 C 
ATOM      3  C   UNL     1       4.494   6.900  17.267  0.00  0.00    +0.000 C 
ATOM      4  C   UNL     1       3.786   5.658  17.856  0.00  0.00    +0.000 C 
ATOM      5  C   UNL     1       4.609   4.391  17.485  0.00  0.00    +0.000 C 
ATOM      6  C   UNL     1       6.076   4.518  17.912  0.00  0.00    +0.000 C 
ATOM      7  C   UNL     1       3.615   5.830  19.394  0.00  0.00    +0.000 C 
ATOM      8  C   UNL     1       2.783   4.717  19.962  0.00  0.00    +0.000 A 
ATOM      9  C   UNL     1       2.985   4.276  21.274  0.00  0.00    +0.000 A 
ATOM     10  C   UNL     1       2.193   3.254  21.795  0.00  0.00    +0.000 A 
ATOM     11  C   UNL     1       1.201   2.663  21.007  0.00  0.00    +0.000 A 
ATOM     12  C   UNL     1       0.990   3.098  19.693  0.00  0.00    +0.000 A 
ATOM     13  C   UNL     1       1.781   4.129  19.164  0.00  0.00    +0.000 A 
ATOM     14  C   UNL     1       1.616   4.638  17.778  0.00  0.00    +0.000 C 
ATOM     15  O   UNL     1       0.686   4.273  17.077  0.00  0.00    +0.000 OA
ATOM     16  O   UNL     1       2.521   5.531  17.292  0.00  0.00    +0.000 OA
ENDROOT
BRANCH   1  17
ATOM     17  C   UNL     1       6.954   5.581  15.878  0.00  0.00    +0.000 C 
BRANCH  17  18
ATOM     18  C   UNL     1       6.708   4.150  15.398  0.00  0.00    +0.000 C 
BRANCH  18  19
ATOM     19  C   UNL     1       6.670   4.106  13.869  0.00  0.00    +0.000 C 
BRANCH  19  20
ATOM     20  C   UNL     1       5.276   3.753  13.381  0.00  0.00    +0.000 C 
BRANCH  20  21
ATOM     21  C   UNL     1       5.336   3.245  11.944  0.00  0.00    +0.000 C 
BRANCH  21  22
ATOM     22  C   UNL     1       3.936   3.261  11.340  0.00  0.00    +0.000 C 
BRANCH  22  24
ATOM     23  C   UNL     1       2.503   4.224   9.536  0.00  0.00    +0.000 C 
ATOM     24  C   UNL     1       3.934   3.941   9.972  0.00  0.00    +0.000 C 
ENDBRANCH  22  24
ENDBRANCH  21  22
ENDBRANCH  20  21
ENDBRANCH  19  20
ENDBRANCH  18  19
ENDBRANCH  17  18
ENDBRANCH   1  17
TORSDOF 7
ENDMDL
MODEL 7
REMARK VINA RESULT:      -7.2      0.830      1.360
REMARK  Name = 
REMARK  8 active torsions:
REMARK  status: ('A' for Active; 'I' for Inactive)
REMARK    1  A    between atoms: C_1  and  C_2
REMARK    2  A    between atoms: C_2  and  C_3
REMARK    3  A    between atoms: C_3  and  C_4
REMARK    4  A    between atoms: C_4  and  C_5
REMARK    5  A    between atoms: C_5  and  C_6
REMARK    6  A    between atoms: C_6  and  C_7
REMARK    7  A    between atoms: C_7  and  C_8
REMARK    8  A    between atoms: C_8  and  N_9
REMARK                            x       y       z     vdW  Elec       q    Type
REMARK                         _______ _______ _______ _____ _____    ______ ____
ROOT
ATOM      1  N   UNL     1       6.515   4.024  15.855  0.00  0.00    +0.000 NA
ATOM      2  C   UNL     1       7.232   4.552  17.043  0.00  0.00    +0.000 C 
ATOM      3  C   UNL     1       6.491   5.752  17.669  0.00  0.00    +0.000 C 
ATOM      4  C   UNL     1       5.050   5.353  18.063  0.00  0.00    +0.000 C 
ATOM      5  C   UNL     1       4.340   4.749  16.817  0.00  0.00    +0.000 C 
ATOM      6  C   UNL     1       5.147   3.598  16.203  0.00  0.00    +0.000 C 
ATOM      7  C   UNL     1       5.088   4.366  19.266  0.00  0.00    +0.000 C 
ATOM      8  C   UNL     1       3.701   4.096  19.774  0.00  0.00    +0.000 A 
ATOM      9  C   UNL     1       3.384   2.866  20.360  0.00  0.00    +0.000 A 
ATOM     10  C   UNL     1       2.097   2.636  20.844  0.00  0.00    +0.000 A 
ATOM     11  C   UNL     1       1.119   3.630  20.738  0.00  0.00    +0.000 A 
ATOM     12  C   UNL     1       1.427   4.865  20.155  0.00  0.00    +0.000 A 
ATOM     13  C   UNL     1       2.721   5.104  19.670  0.00  0.00    +0.000 A 
ATOM     14  C   UNL     1       3.117   6.388  19.036  0.00  0.00    +0.000 C 
ATOM     15  O   UNL     1       2.365   7.350  19.032  0.00  0.00    +0.000 OA
ATOM     16  O   UNL     1       4.344   6.485  18.455  0.00  0.00    +0.000 OA
ENDROOT
BRANCH   1  17
ATOM     17  C   UNL     1       6.542   4.913  14.667  0.00  0.00    +0.000 C 
BRANCH  17  18
ATOM     18  C   UNL     1       7.949   5.031  14.080  0.00  0.00    +0.000 C 
BRANCH  18  19
ATOM     19  C   UNL     1       7.873   5.425  12.604  0.00  0.00    +0.000 C 
BRANCH  19  20
ATOM     20  C   UNL     1       6.727   4.701  11.919  0.00  0.00    +0.000 C 
BRANCH  20  21
ATOM     21  C   UNL     1       7.021   3.206  11.842  0.00  0.00    +0.000 C 
BRANCH  21  22
ATOM     22  C   UNL     1       5.724   2.443  11.603  0.00  0.00    +0.000 C 
BRANCH  22  24
ATOM     23  C   UNL     1       3.487   3.053  10.674  0.00  0.00    +0.000 C 
ATOM     24  C   UNL     1       4.509   3.355  11.762  0.00  0.00    +0.000 C 
ENDBRANCH  22  24
ENDBRANCH  21  22
ENDBRANCH  20  21
ENDBRANCH  19  20
ENDBRANCH  18  19
ENDBRANCH  17  18
ENDBRANCH   1  17
TORSDOF 7
ENDMDL
MODEL 8
REMARK VINA RESULT:      -7.2      4.033      7.157
REMARK  Name = 
REMARK  8 active torsions:
REMARK  status: ('A' for Active; 'I' for Inactive)
REMARK    1  A    between atoms: C_1  and  C_2
REMARK    2  A    between atoms: C_2  and  C_3
REMARK    3  A    between atoms: C_3  and  C_4
REMARK    4  A    between atoms: C_4  and  C_5
REMARK    5  A    between atoms: C_5  and  C_6
REMARK    6  A    between atoms: C_6  and  C_7
REMARK    7  A    between atoms: C_7  and  C_8
REMARK    8  A    between atoms: C_8  and  N_9
REMARK                            x       y       z     vdW  Elec       q    Type
REMARK                         _______ _______ _______ _____ _____    ______ ____
ROOT
ATOM      1  N   UNL     1       6.554   6.962  16.869  0.00  0.00    +0.000 NA
ATOM      2  C   UNL     1       6.806   5.682  16.161  0.00  0.00    +0.000 C 
ATOM      3  C   UNL     1       6.914   4.498  17.143  0.00  0.00    +0.000 C 
ATOM      4  C   UNL     1       5.628   4.380  17.993  0.00  0.00    +0.000 C 
ATOM      5  C   UNL     1       5.354   5.750  18.678  0.00  0.00    +0.000 C 
ATOM      6  C   UNL     1       5.312   6.898  17.661  0.00  0.00    +0.000 C 
ATOM      7  C   UNL     1       4.445   3.914  17.094  0.00  0.00    +0.000 C 
ATOM      8  C   UNL     1       3.227   3.631  17.927  0.00  0.00    +0.000 A 
ATOM      9  C   UNL     1       1.945   3.813  17.397  0.00  0.00    +0.000 A 
ATOM     10  C   UNL     1       0.824   3.529  18.175  0.00  0.00    +0.000 A 
ATOM     11  C   UNL     1       0.977   3.068  19.486  0.00  0.00    +0.000 A 
ATOM     12  C   UNL     1       2.256   2.881  20.025  0.00  0.00    +0.000 A 
ATOM     13  C   UNL     1       3.388   3.162  19.246  0.00  0.00    +0.000 A 
ATOM     14  C   UNL     1       4.774   2.991  19.753  0.00  0.00    +0.000 C 
ATOM     15  O   UNL     1       4.992   2.464  20.832  0.00  0.00    +0.000 OA
ATOM     16  O   UNL     1       5.813   3.429  18.990  0.00  0.00    +0.000 OA
ENDROOT
BRANCH   1  17
ATOM     17  C   UNL     1       7.701   7.469  17.663  0.00  0.00    +0.000 C 
BRANCH  17  18
ATOM     18  C   UNL     1       7.699   8.996  17.748  0.00  0.00    +0.000 C 
BRANCH  18  19
ATOM     19  C   UNL     1       8.816   9.475  18.677  0.00  0.00    +0.000 C 
BRANCH  19  20
ATOM     20  C   UNL     1       9.626  10.574  18.012  0.00  0.00    +0.000 C 
BRANCH  20  21
ATOM     21  C   UNL     1       8.965  11.928  18.248  0.00  0.00    +0.000 C 
BRANCH  21  22
ATOM     22  C   UNL     1       9.711  12.676  19.347  0.00  0.00    +0.000 C 
BRANCH  22  24
ATOM     23  C   UNL     1       9.507  12.577  21.834  0.00  0.00    +0.000 C 
ATOM     24  C   UNL     1       8.801  12.957  20.540  0.00  0.00    +0.000 C 
ENDBRANCH  22  24
ENDBRANCH  21  22
ENDBRANCH  20  21
ENDBRANCH  19  20
ENDBRANCH  18  19
ENDBRANCH  17  18
ENDBRANCH   1  17
TORSDOF 7
ENDMDL
MODEL 9
REMARK VINA RESULT:      -7.1      3.739      6.677
REMARK  Name = 
REMARK  8 active torsions:
REMARK  status: ('A' for Active; 'I' for Inactive)
REMARK    1  A    between atoms: C_1  and  C_2
REMARK    2  A    between atoms: C_2  and  C_3
REMARK    3  A    between atoms: C_3  and  C_4
REMARK    4  A    between atoms: C_4  and  C_5
REMARK    5  A    between atoms: C_5  and  C_6
REMARK    6  A    between atoms: C_6  and  C_7
REMARK    7  A    between atoms: C_7  and  C_8
REMARK    8  A    between atoms: C_8  and  N_9
REMARK                            x       y       z     vdW  Elec       q    Type
REMARK                         _______ _______ _______ _____ _____    ______ ____
ROOT
ATOM      1  N   UNL     1       5.891   6.796  17.205  0.00  0.00    +0.000 NA
ATOM      2  C   UNL     1       4.997   6.407  16.086  0.00  0.00    +0.000 C 
ATOM      3  C   UNL     1       4.856   4.874  15.975  0.00  0.00    +0.000 C 
ATOM      4  C   UNL     1       4.324   4.281  17.299  0.00  0.00    +0.000 C 
ATOM      5  C   UNL     1       5.243   4.752  18.463  0.00  0.00    +0.000 C 
ATOM      6  C   UNL     1       5.391   6.278  18.492  0.00  0.00    +0.000 C 
ATOM      7  C   UNL     1       2.839   4.702  17.503  0.00  0.00    +0.000 C 
ATOM      8  C   UNL     1       2.249   4.003  18.694  0.00  0.00    +0.000 A 
ATOM      9  C   UNL     1       1.241   4.610  19.449  0.00  0.00    +0.000 A 
ATOM     10  C   UNL     1       0.690   3.942  20.542  0.00  0.00    +0.000 A 
ATOM     11  C   UNL     1       1.147   2.667  20.889  0.00  0.00    +0.000 A 
ATOM     12  C   UNL     1       2.155   2.050  20.138  0.00  0.00    +0.000 A 
ATOM     13  C   UNL     1       2.711   2.715  19.036  0.00  0.00    +0.000 A 
ATOM     14  C   UNL     1       3.785   2.123  18.197  0.00  0.00    +0.000 C 
ATOM     15  O   UNL     1       4.140   0.965  18.349  0.00  0.00    +0.000 OA
ATOM     16  O   UNL     1       4.375   2.893  17.242  0.00  0.00    +0.000 OA
ENDROOT
BRANCH   1  17
ATOM     17  C   UNL     1       7.326   6.482  16.992  0.00  0.00    +0.000 C 
BRANCH  17  18
ATOM     18  C   UNL     1       8.223   7.253  17.962  0.00  0.00    +0.000 C 
BRANCH  18  19
ATOM     19  C   UNL     1       8.164   8.752  17.658  0.00  0.00    +0.000 C 
BRANCH  19  20
ATOM     20  C   UNL     1       8.616   9.557  18.863  0.00  0.00    +0.000 C 
BRANCH  20  21
ATOM     21  C   UNL     1       9.253  10.867  18.410  0.00  0.00    +0.000 C 
BRANCH  21  22
ATOM     22  C   UNL     1      10.561  11.085  19.162  0.00  0.00    +0.000 C 
BRANCH  22  24
ATOM     23  C   UNL     1      10.788  12.583  17.177  0.00  0.00    +0.000 C 
ATOM     24  C   UNL     1      11.519  11.963  18.360  0.00  0.00    +0.000 C 
ENDBRANCH  22  24
ENDBRANCH  21  22
ENDBRANCH  20  21
ENDBRANCH  19  20
ENDBRANCH  18  19
ENDBRANCH  17  18
ENDBRANCH   1  17
TORSDOF 7
ENDMDL
