MODEL 1
REMARK VINA RESULT:      -8.5      0.000      0.000
REMARK  Name = 
REMARK  10 active torsions:
REMARK  status: ('A' for Active; 'I' for Inactive)
REMARK    1  A    between atoms: C_1  and  O_2
REMARK    2  A    between atoms: O_2  and  C_3
REMARK    3  A    between atoms: C_6  and  C_7
REMARK    4  A    between atoms: C_11  and  C_12
REMARK    5  A    between atoms: N_14  and  C_15
REMARK    6  A    between atoms: C_15  and  C_16
REMARK    7  A    between atoms: C_15  and  C_20
REMARK    8  A    between atoms: C_16  and  C_17
REMARK    9  A    between atoms: C_17  and  O_19
REMARK   10  A    between atoms: C_25  and  C_26
REMARK                            x       y       z     vdW  Elec       q    Type
REMARK                         _______ _______ _______ _____ _____    ______ ____
ROOT
ATOM      1  C   UNL     1       2.784   6.381  19.011  0.00  0.00    +0.000 C 
ATOM      2  O   UNL     1       3.195   5.965  20.089  0.00  0.00    +0.000 OA
ATOM      3  N   UNL     1       2.860   5.631  17.855  0.00  0.00    +0.000 N 
ATOM      4  H   UNL     1       2.662   6.049  16.955  0.00  0.00    +0.000 HD
ENDROOT
BRANCH   1   9
ATOM      5  C   UNL     1       0.834   9.610  19.778  0.00  0.00    +0.000 A 
ATOM      6  C   UNL     1       1.222  10.284  18.615  0.00  0.00    +0.000 A 
ATOM      7  N   UNL     1       1.997   9.767  17.633  0.00  0.00    +0.000 NA
ATOM      8  C   UNL     1       2.445   8.505  17.821  0.00  0.00    +0.000 A 
ATOM      9  C   UNL     1       2.155   7.731  18.940  0.00  0.00    +0.000 A 
ATOM     10  C   UNL     1       1.325   8.295  19.919  0.00  0.00    +0.000 A 
BRANCH   5  14
ATOM     11  C   UNL     1      -1.515  11.622  22.800  0.00  0.00    +0.000 A 
ATOM     12  C   UNL     1      -1.423  12.142  21.513  0.00  0.00    +0.000 A 
ATOM     13  C   UNL     1      -0.698  11.466  20.525  0.00  0.00    +0.000 A 
ATOM     14  C   UNL     1      -0.007  10.272  20.803  0.00  0.00    +0.000 A 
ATOM     15  C   UNL     1      -0.115   9.768  22.111  0.00  0.00    +0.000 A 
ATOM     16  C   UNL     1      -0.862  10.430  23.096  0.00  0.00    +0.000 A 
BRANCH  11  18
ATOM     17  C   UNL     1      -3.603  12.548  23.410  0.00  0.00    +0.000 C 
ATOM     18  O   UNL     1      -2.217  12.387  23.690  0.00  0.00    +0.000 OA
ENDBRANCH  11  18
ENDBRANCH   5  14
ENDBRANCH   1   9
BRANCH   3  19
ATOM     19  C   UNL     1       3.603   4.368  17.812  0.00  0.00    +0.000 C 
BRANCH  19  20
ATOM     20  C   UNL     1       4.895   4.471  16.998  0.00  0.00    +0.000 A 
ATOM     21  C   UNL     1       4.867   4.230  15.609  0.00  0.00    +0.000 A 
ATOM     22  C   UNL     1       6.022   4.285  14.832  0.00  0.00    +0.000 A 
ATOM     23  C   UNL     1       7.240   4.577  15.428  0.00  0.00    +0.000 A 
ATOM     24  C   UNL     1       7.298   4.823  16.799  0.00  0.00    +0.000 A 
ATOM     25  C   UNL     1       6.141   4.774  17.598  0.00  0.00    +0.000 A 
ATOM     26  C   UNL     1       6.286   5.106  19.060  0.00  0.00    +0.000 C 
ENDBRANCH  19  20
BRANCH  19  27
ATOM     27  C   UNL     1       2.706   3.208  17.349  0.00  0.00    +0.000 C 
BRANCH  27  28
ATOM     28  C   UNL     1       1.764   2.709  18.415  0.00  0.00    +0.000 C 
ATOM     29  O   UNL     1       0.990   3.416  19.044  0.00  0.00    +0.000 OA
BRANCH  28  30
ATOM     30  O   UNL     1       1.931   1.396  18.698  0.00  0.00    +0.000 OA
ATOM     31  H   UNL     1       1.565   0.782  18.033  0.00  0.00    +0.000 HD
ENDBRANCH  28  30
ENDBRANCH  27  28
ENDBRANCH  19  27
ENDBRANCH   3  19
TORSDOF 8
ENDMDL
MODEL 2
REMARK VINA RESULT:      -8.3      0.448      1.038
REMARK  Name = 
REMARK  10 active torsions:
REMARK  status: ('A' for Active; 'I' for Inactive)
REMARK    1  A    between atoms: C_1  and  O_2
REMARK    2  A    between atoms: O_2  and  C_3
REMARK    3  A    between atoms: C_6  and  C_7
REMARK    4  A    between atoms: C_11  and  C_12
REMARK    5  A    between atoms: N_14  and  C_15
REMARK    6  A    between atoms: C_15  and  C_16
REMARK    7  A    between atoms: C_15  and  C_20
REMARK    8  A    between atoms: C_16  and  C_17
REMARK    9  A    between atoms: C_17  and  O_19
REMARK   10  A    between atoms: C_25  and  C_26
REMARK                            x       y       z     vdW  Elec       q    Type
REMARK                         _______ _______ _______ _____ _____    ______ ____
ROOT
ATOM      1  C   UNL     1       2.773   6.365  19.057  0.00  0.00    +0.000 C 
ATOM      2  O   UNL     1       3.149   5.948  20.147  0.00  0.00    +0.000 OA
ATOM      3  N   UNL     1       2.872   5.611  17.906  0.00  0.00    +0.000 N 
ATOM      4  H   UNL     1       2.704   6.029  16.999  0.00  0.00    +0.000 HD
ENDROOT
BRANCH   1   9
ATOM      5  C   UNL     1       0.905   9.650  19.792  0.00  0.00    +0.000 A 
ATOM      6  C   UNL     1       1.250  10.276  18.589  0.00  0.00    +0.000 A 
ATOM      7  N   UNL     1       1.972   9.712  17.593  0.00  0.00    +0.000 NA
ATOM      8  C   UNL     1       2.410   8.450  17.807  0.00  0.00    +0.000 A 
ATOM      9  C   UNL     1       2.160   7.721  18.965  0.00  0.00    +0.000 A 
ATOM     10  C   UNL     1       1.383   8.333  19.959  0.00  0.00    +0.000 A 
BRANCH   5  14
ATOM     11  C   UNL     1      -1.493  11.657  22.779  0.00  0.00    +0.000 A 
ATOM     12  C   UNL     1      -0.924  10.417  23.046  0.00  0.00    +0.000 A 
ATOM     13  C   UNL     1      -0.112   9.789  22.093  0.00  0.00    +0.000 A 
ATOM     14  C   UNL     1       0.121  10.362  20.829  0.00  0.00    +0.000 A 
ATOM     15  C   UNL     1      -0.467  11.614  20.584  0.00  0.00    +0.000 A 
ATOM     16  C   UNL     1      -1.260  12.257  21.546  0.00  0.00    +0.000 A 
BRANCH  11  18
ATOM     17  C   UNL     1      -3.602  12.552  23.360  0.00  0.00    +0.000 C 
ATOM     18  O   UNL     1      -2.298  12.155  23.766  0.00  0.00    +0.000 OA
ENDBRANCH  11  18
ENDBRANCH   5  14
ENDBRANCH   1   9
BRANCH   3  19
ATOM     19  C   UNL     1       3.603   4.341  17.886  0.00  0.00    +0.000 C 
BRANCH  19  20
ATOM     20  C   UNL     1       4.901   4.418  17.078  0.00  0.00    +0.000 A 
ATOM     21  C   UNL     1       4.881   4.133  15.697  0.00  0.00    +0.000 A 
ATOM     22  C   UNL     1       6.042   4.164  14.927  0.00  0.00    +0.000 A 
ATOM     23  C   UNL     1       7.256   4.474  15.521  0.00  0.00    +0.000 A 
ATOM     24  C   UNL     1       7.305   4.763  16.884  0.00  0.00    +0.000 A 
ATOM     25  C   UNL     1       6.143   4.740  17.677  0.00  0.00    +0.000 A 
ATOM     26  C   UNL     1       6.277   5.118  19.128  0.00  0.00    +0.000 C 
ENDBRANCH  19  20
BRANCH  19  27
ATOM     27  C   UNL     1       2.697   3.182  17.437  0.00  0.00    +0.000 C 
BRANCH  27  28
ATOM     28  C   UNL     1       2.685   2.017  18.393  0.00  0.00    +0.000 C 
ATOM     29  O   UNL     1       1.891   1.880  19.312  0.00  0.00    +0.000 OA
BRANCH  28  30
ATOM     30  O   UNL     1       3.724   1.169  18.208  0.00  0.00    +0.000 OA
ATOM     31  H   UNL     1       4.532   1.395  18.709  0.00  0.00    +0.000 HD
ENDBRANCH  28  30
ENDBRANCH  27  28
ENDBRANCH  19  27
ENDBRANCH   3  19
TORSDOF 8
ENDMDL
MODEL 3
REMARK VINA RESULT:      -8.1      0.712      1.192
REMARK  Name = 
REMARK  10 active torsions:
REMARK  status: ('A' for Active; 'I' for Inactive)
REMARK    1  A    between atoms: C_1  and  O_2
REMARK    2  A    between atoms: O_2  and  C_3
REMARK    3  A    between atoms: C_6  and  C_7
REMARK    4  A    between atoms: C_11  and  C_12
REMARK    5  A    between atoms: N_14  and  C_15
REMARK    6  A    between atoms: C_15  and  C_16
REMARK    7  A    between atoms: C_15  and  C_20
REMARK    8  A    between atoms: C_16  and  C_17
REMARK    9  A    between atoms: C_17  and  O_19
REMARK   10  A    between atoms: C_25  and  C_26
REMARK                            x       y       z     vdW  Elec       q    Type
REMARK                         _______ _______ _______ _____ _____    ______ ____
ROOT
ATOM      1  C   UNL     1       2.676   6.523  19.378  0.00  0.00    +0.000 C 
ATOM      2  O   UNL     1       2.761   6.047  20.506  0.00  0.00    +0.000 OA
ATOM      3  N   UNL     1       3.123   5.851  18.260  0.00  0.00    +0.000 N 
ATOM      4  H   UNL     1       3.187   6.322  17.366  0.00  0.00    +0.000 HD
ENDROOT
BRANCH   1   9
ATOM      5  C   UNL     1       0.720   9.801  19.876  0.00  0.00    +0.000 A 
ATOM      6  C   UNL     1       1.104  10.376  18.659  0.00  0.00    +0.000 A 
ATOM      7  N   UNL     1       1.878   9.780  17.722  0.00  0.00    +0.000 NA
ATOM      8  C   UNL     1       2.329   8.539  18.015  0.00  0.00    +0.000 A 
ATOM      9  C   UNL     1       2.043   7.861  19.195  0.00  0.00    +0.000 A 
ATOM     10  C   UNL     1       1.214   8.504  20.126  0.00  0.00    +0.000 A 
BRANCH   5  14
ATOM     11  C   UNL     1      -1.834  11.886  22.674  0.00  0.00    +0.000 A 
ATOM     12  C   UNL     1      -1.105  10.773  23.077  0.00  0.00    +0.000 A 
ATOM     13  C   UNL     1      -0.245  10.126  22.181  0.00  0.00    +0.000 A 
ATOM     14  C   UNL     1      -0.121  10.545  20.844  0.00  0.00    +0.000 A 
ATOM     15  C   UNL     1      -0.869  11.672  20.462  0.00  0.00    +0.000 A 
ATOM     16  C   UNL     1      -1.712  12.337  21.365  0.00  0.00    +0.000 A 
BRANCH  11  18
ATOM     17  C   UNL     1      -2.938  13.803  23.506  0.00  0.00    +0.000 C 
ATOM     18  O   UNL     1      -2.668  12.411  23.622  0.00  0.00    +0.000 OA
ENDBRANCH  11  18
ENDBRANCH   5  14
ENDBRANCH   1   9
BRANCH   3  19
ATOM     19  C   UNL     1       3.895   4.610  18.373  0.00  0.00    +0.000 C 
BRANCH  19  20
ATOM     20  C   UNL     1       5.082   4.562  17.408  0.00  0.00    +0.000 A 
ATOM     21  C   UNL     1       4.885   4.125  16.081  0.00  0.00    +0.000 A 
ATOM     22  C   UNL     1       5.940   4.039  15.174  0.00  0.00    +0.000 A 
ATOM     23  C   UNL     1       7.223   4.382  15.575  0.00  0.00    +0.000 A 
ATOM     24  C   UNL     1       7.447   4.820  16.879  0.00  0.00    +0.000 A 
ATOM     25  C   UNL     1       6.393   4.916  17.807  0.00  0.00    +0.000 A 
ATOM     26  C   UNL     1       6.714   5.450  19.178  0.00  0.00    +0.000 C 
ENDBRANCH  19  20
BRANCH  19  27
ATOM     27  C   UNL     1       2.987   3.374  18.253  0.00  0.00    +0.000 C 
BRANCH  27  28
ATOM     28  C   UNL     1       1.518   3.705  18.206  0.00  0.00    +0.000 C 
ATOM     29  O   UNL     1       0.922   4.082  17.207  0.00  0.00    +0.000 OA
BRANCH  28  30
ATOM     30  O   UNL     1       0.923   3.653  19.421  0.00  0.00    +0.000 OA
ATOM     31  H   UNL     1       0.878   4.507  19.893  0.00  0.00    +0.000 HD
ENDBRANCH  28  30
ENDBRANCH  27  28
ENDBRANCH  19  27
ENDBRANCH   3  19
TORSDOF 8
ENDMDL
MODEL 4
REMARK VINA RESULT:      -7.9      2.891      9.324
REMARK  Name = 
REMARK  10 active torsions:
REMARK  status: ('A' for Active; 'I' for Inactive)
REMARK    1  A    between atoms: C_1  and  O_2
REMARK    2  A    between atoms: O_2  and  C_3
REMARK    3  A    between atoms: C_6  and  C_7
REMARK    4  A    between atoms: C_11  and  C_12
REMARK    5  A    between atoms: N_14  and  C_15
REMARK    6  A    between atoms: C_15  and  C_16
REMARK    7  A    between atoms: C_15  and  C_20
REMARK    8  A    between atoms: C_16  and  C_17
REMARK    9  A    between atoms: C_17  and  O_19
REMARK   10  A    between atoms: C_25  and  C_26
REMARK                            x       y       z     vdW  Elec       q    Type
REMARK                         _______ _______ _______ _____ _____    ______ ____
ROOT
ATOM      1  C   UNL     1       1.346   8.313  20.511  0.00  0.00    +0.000 C 
ATOM      2  O   UNL     1       1.076   8.450  21.700  0.00  0.00    +0.000 OA
ATOM      3  N   UNL     1       1.107   9.306  19.583  0.00  0.00    +0.000 N 
ATOM      4  H   UNL     1       1.190   9.117  18.592  0.00  0.00    +0.000 HD
ENDROOT
BRANCH   1   9
ATOM      5  C   UNL     1       3.327   5.660  18.549  0.00  0.00    +0.000 A 
ATOM      6  C   UNL     1       3.144   4.634  19.483  0.00  0.00    +0.000 A 
ATOM      7  N   UNL     1       2.421   4.734  20.623  0.00  0.00    +0.000 NA
ATOM      8  C   UNL     1       1.859   5.938  20.876  0.00  0.00    +0.000 A 
ATOM      9  C   UNL     1       1.980   7.047  20.046  0.00  0.00    +0.000 A 
ATOM     10  C   UNL     1       2.714   6.891  18.861  0.00  0.00    +0.000 A 
BRANCH   5  14
ATOM     11  C   UNL     1       5.846   5.049  15.088  0.00  0.00    +0.000 A 
ATOM     12  C   UNL     1       5.358   3.964  15.807  0.00  0.00    +0.000 A 
ATOM     13  C   UNL     1       4.507   4.163  16.901  0.00  0.00    +0.000 A 
ATOM     14  C   UNL     1       4.153   5.453  17.335  0.00  0.00    +0.000 A 
ATOM     15  C   UNL     1       4.661   6.533  16.593  0.00  0.00    +0.000 A 
ATOM     16  C   UNL     1       5.492   6.335  15.481  0.00  0.00    +0.000 A 
BRANCH  11  18
ATOM     17  C   UNL     1       6.247   3.723  13.173  0.00  0.00    +0.000 C 
ATOM     18  O   UNL     1       6.698   4.736  14.065  0.00  0.00    +0.000 OA
ENDBRANCH  11  18
ENDBRANCH   5  14
ENDBRANCH   1   9
BRANCH   3  19
ATOM     19  C   UNL     1       0.345  10.509  19.932  0.00  0.00    +0.000 C 
BRANCH  19  20
ATOM     20  C   UNL     1      -0.893  10.700  19.052  0.00  0.00    +0.000 A 
ATOM     21  C   UNL     1      -0.997  10.001  17.832  0.00  0.00    +0.000 A 
ATOM     22  C   UNL     1      -2.092  10.164  16.986  0.00  0.00    +0.000 A 
ATOM     23  C   UNL     1      -3.111  11.038  17.337  0.00  0.00    +0.000 A 
ATOM     24  C   UNL     1      -3.036  11.740  18.538  0.00  0.00    +0.000 A 
ATOM     25  C   UNL     1      -1.939  11.586  19.406  0.00  0.00    +0.000 A 
ATOM     26  C   UNL     1      -1.965  12.341  20.709  0.00  0.00    +0.000 C 
ENDBRANCH  19  20
BRANCH  19  27
ATOM     27  C   UNL     1       1.248  11.754  19.957  0.00  0.00    +0.000 C 
BRANCH  27  28
ATOM     28  C   UNL     1       1.664  12.228  18.589  0.00  0.00    +0.000 C 
ATOM     29  O   UNL     1       1.368  13.314  18.110  0.00  0.00    +0.000 OA
BRANCH  28  30
ATOM     30  O   UNL     1       2.317  11.282  17.875  0.00  0.00    +0.000 OA
ATOM     31  H   UNL     1       2.773  10.605  18.411  0.00  0.00    +0.000 HD
ENDBRANCH  28  30
ENDBRANCH  27  28
ENDBRANCH  19  27
ENDBRANCH   3  19
TORSDOF 8
ENDMDL
MODEL 5
REMARK VINA RESULT:      -7.8      2.865      9.421
REMARK  Name = 
REMARK  10 active torsions:
REMARK  status: ('A' for Active; 'I' for Inactive)
REMARK    1  A    between atoms: C_1  and  O_2
REMARK    2  A    between atoms: O_2  and  C_3
REMARK    3  A    between atoms: C_6  and  C_7
REMARK    4  A    between atoms: C_11  and  C_12
REMARK    5  A    between atoms: N_14  and  C_15
REMARK    6  A    between atoms: C_15  and  C_16
REMARK    7  A    between atoms: C_15  and  C_20
REMARK    8  A    between atoms: C_16  and  C_17
REMARK    9  A    between atoms: C_17  and  O_19
REMARK   10  A    between atoms: C_25  and  C_26
REMARK                            x       y       z     vdW  Elec       q    Type
REMARK                         _______ _______ _______ _____ _____    ______ ____
ROOT
ATOM      1  C   UNL     1       1.377   8.678  20.130  0.00  0.00    +0.000 C 
ATOM      2  O   UNL     1       1.265   9.026  21.301  0.00  0.00    +0.000 OA
ATOM      3  N   UNL     1       0.977   9.481  19.082  0.00  0.00    +0.000 N 
ATOM      4  H   UNL     1       0.933   9.116  18.139  0.00  0.00    +0.000 HD
ENDROOT
BRANCH   1   9
ATOM      5  C   UNL     1       3.390   5.807  18.541  0.00  0.00    +0.000 A 
ATOM      6  C   UNL     1       3.092   4.866  19.533  0.00  0.00    +0.000 A 
ATOM      7  N   UNL     1       2.289   5.082  20.600  0.00  0.00    +0.000 NA
ATOM      8  C   UNL     1       1.761   6.322  20.715  0.00  0.00    +0.000 A 
ATOM      9  C   UNL     1       1.991   7.357  19.815  0.00  0.00    +0.000 A 
ATOM     10  C   UNL     1       2.807   7.081  18.707  0.00  0.00    +0.000 A 
BRANCH   5  14
ATOM     11  C   UNL     1       5.927   4.826  15.179  0.00  0.00    +0.000 A 
ATOM     12  C   UNL     1       5.510   6.136  15.392  0.00  0.00    +0.000 A 
ATOM     13  C   UNL     1       4.725   6.458  16.506  0.00  0.00    +0.000 A 
ATOM     14  C   UNL     1       4.296   5.475  17.416  0.00  0.00    +0.000 A 
ATOM     15  C   UNL     1       4.730   4.160  17.178  0.00  0.00    +0.000 A 
ATOM     16  C   UNL     1       5.538   3.838  16.077  0.00  0.00    +0.000 A 
BRANCH  11  18
ATOM     17  C   UNL     1       6.126   3.668  13.128  0.00  0.00    +0.000 C 
ATOM     18  O   UNL     1       6.656   4.624  14.040  0.00  0.00    +0.000 OA
ENDBRANCH  11  18
ENDBRANCH   5  14
ENDBRANCH   1   9
BRANCH   3  19
ATOM     19  C   UNL     1       0.223  10.718  19.312  0.00  0.00    +0.000 C 
BRANCH  19  20
ATOM     20  C   UNL     1      -1.128  10.728  18.594  0.00  0.00    +0.000 A 
ATOM     21  C   UNL     1      -1.310   9.944  17.436  0.00  0.00    +0.000 A 
ATOM     22  C   UNL     1      -2.514   9.942  16.735  0.00  0.00    +0.000 A 
ATOM     23  C   UNL     1      -3.567  10.733  17.170  0.00  0.00    +0.000 A 
ATOM     24  C   UNL     1      -3.416  11.518  18.312  0.00  0.00    +0.000 A 
ATOM     25  C   UNL     1      -2.209  11.529  19.035  0.00  0.00    +0.000 A 
ATOM     26  C   UNL     1      -2.151  12.363  20.288  0.00  0.00    +0.000 C 
ENDBRANCH  19  20
BRANCH  19  27
ATOM     27  C   UNL     1       1.073  11.958  18.988  0.00  0.00    +0.000 C 
BRANCH  27  28
ATOM     28  C   UNL     1       1.694  12.600  20.201  0.00  0.00    +0.000 C 
ATOM     29  O   UNL     1       1.321  12.419  21.351  0.00  0.00    +0.000 OA
BRANCH  28  30
ATOM     30  O   UNL     1       2.654  13.503  19.891  0.00  0.00    +0.000 OA
ATOM     31  H   UNL     1       2.899  14.107  20.619  0.00  0.00    +0.000 HD
ENDBRANCH  28  30
ENDBRANCH  27  28
ENDBRANCH  19  27
ENDBRANCH   3  19
TORSDOF 8
ENDMDL
MODEL 6
REMARK VINA RESULT:      -7.8      3.119      9.432
REMARK  Name = 
REMARK  10 active torsions:
REMARK  status: ('A' for Active; 'I' for Inactive)
REMARK    1  A    between atoms: C_1  and  O_2
REMARK    2  A    between atoms: O_2  and  C_3
REMARK    3  A    between atoms: C_6  and  C_7
REMARK    4  A    between atoms: C_11  and  C_12
REMARK    5  A    between atoms: N_14  and  C_15
REMARK    6  A    between atoms: C_15  and  C_16
REMARK    7  A    between atoms: C_15  and  C_20
REMARK    8  A    between atoms: C_16  and  C_17
REMARK    9  A    between atoms: C_17  and  O_19
REMARK   10  A    between atoms: C_25  and  C_26
REMARK                            x       y       z     vdW  Elec       q    Type
REMARK                         _______ _______ _______ _____ _____    ______ ____
ROOT
ATOM      1  C   UNL     1       0.936   9.334  20.035  0.00  0.00    +0.000 C 
ATOM      2  O   UNL     1       0.729   9.731  21.177  0.00  0.00    +0.000 OA
ATOM      3  N   UNL     1       0.595  10.077  18.923  0.00  0.00    +0.000 N 
ATOM      4  H   UNL     1       0.630   9.668  17.998  0.00  0.00    +0.000 HD
ENDROOT
BRANCH   1   9
ATOM      5  C   UNL     1       3.025   6.409  18.657  0.00  0.00    +0.000 A 
ATOM      6  C   UNL     1       2.816   5.564  19.751  0.00  0.00    +0.000 A 
ATOM      7  N   UNL     1       2.045   5.852  20.826  0.00  0.00    +0.000 NA
ATOM      8  C   UNL     1       1.460   7.071  20.838  0.00  0.00    +0.000 A 
ATOM      9  C   UNL     1       1.603   8.017  19.828  0.00  0.00    +0.000 A 
ATOM     10  C   UNL     1       2.386   7.665  18.719  0.00  0.00    +0.000 A 
BRANCH   5  14
ATOM     11  C   UNL     1       5.687   5.220  15.463  0.00  0.00    +0.000 A 
ATOM     12  C   UNL     1       5.054   4.263  16.249  0.00  0.00    +0.000 A 
ATOM     13  C   UNL     1       4.159   4.650  17.254  0.00  0.00    +0.000 A 
ATOM     14  C   UNL     1       3.902   6.005  17.532  0.00  0.00    +0.000 A 
ATOM     15  C   UNL     1       4.555   6.951  16.725  0.00  0.00    +0.000 A 
ATOM     16  C   UNL     1       5.433   6.566  15.700  0.00  0.00    +0.000 A 
BRANCH  11  18
ATOM     17  C   UNL     1       6.030   3.799  13.606  0.00  0.00    +0.000 C 
ATOM     18  O   UNL     1       6.568   4.727  14.540  0.00  0.00    +0.000 OA
ENDBRANCH  11  18
ENDBRANCH   5  14
ENDBRANCH   1   9
BRANCH   3  19
ATOM     19  C   UNL     1      -0.202  11.302  19.039  0.00  0.00    +0.000 C 
BRANCH  19  20
ATOM     20  C   UNL     1      -1.635  11.124  18.533  0.00  0.00    +0.000 A 
ATOM     21  C   UNL     1      -1.898  10.219  17.484  0.00  0.00    +0.000 A 
ATOM     22  C   UNL     1      -3.182  10.043  16.972  0.00  0.00    +0.000 A 
ATOM     23  C   UNL     1      -4.238  10.776  17.493  0.00  0.00    +0.000 A 
ATOM     24  C   UNL     1      -4.009  11.677  18.532  0.00  0.00    +0.000 A 
ATOM     25  C   UNL     1      -2.720  11.864  19.064  0.00  0.00    +0.000 A 
ATOM     26  C   UNL     1      -2.571  12.816  20.222  0.00  0.00    +0.000 C 
ENDBRANCH  19  20
BRANCH  19  27
ATOM     27  C   UNL     1       0.511  12.497  18.384  0.00  0.00    +0.000 C 
BRANCH  27  28
ATOM     28  C   UNL     1       2.005  12.489  18.574  0.00  0.00    +0.000 C 
ATOM     29  O   UNL     1       2.591  13.030  19.501  0.00  0.00    +0.000 OA
BRANCH  28  30
ATOM     30  O   UNL     1       2.668  11.909  17.546  0.00  0.00    +0.000 OA
ATOM     31  H   UNL     1       3.450  11.384  17.805  0.00  0.00    +0.000 HD
ENDBRANCH  28  30
ENDBRANCH  27  28
ENDBRANCH  19  27
ENDBRANCH   3  19
TORSDOF 8
ENDMDL
MODEL 7
REMARK VINA RESULT:      -7.7      2.978      9.651
REMARK  Name = 
REMARK  10 active torsions:
REMARK  status: ('A' for Active; 'I' for Inactive)
REMARK    1  A    between atoms: C_1  and  O_2
REMARK    2  A    between atoms: O_2  and  C_3
REMARK    3  A    between atoms: C_6  and  C_7
REMARK    4  A    between atoms: C_11  and  C_12
REMARK    5  A    between atoms: N_14  and  C_15
REMARK    6  A    between atoms: C_15  and  C_16
REMARK    7  A    between atoms: C_15  and  C_20
REMARK    8  A    between atoms: C_16  and  C_17
REMARK    9  A    between atoms: C_17  and  O_19
REMARK   10  A    between atoms: C_25  and  C_26
REMARK                            x       y       z     vdW  Elec       q    Type
REMARK                         _______ _______ _______ _____ _____    ______ ____
ROOT
ATOM      1  C   UNL     1       0.936  10.261  18.874  0.00  0.00    +0.000 C 
ATOM      2  O   UNL     1       1.672  11.162  18.485  0.00  0.00    +0.000 OA
ATOM      3  N   UNL     1      -0.413  10.456  19.093  0.00  0.00    +0.000 N 
ATOM      4  H   UNL     1      -0.967   9.749  19.560  0.00  0.00    +0.000 HD
ENDROOT
BRANCH   1   9
ATOM      5  C   UNL     1       2.782   6.905  18.492  0.00  0.00    +0.000 A 
ATOM      6  C   UNL     1       2.525   6.460  19.794  0.00  0.00    +0.000 A 
ATOM      7  N   UNL     1       1.795   7.124  20.719  0.00  0.00    +0.000 NA
ATOM      8  C   UNL     1       1.302   8.327  20.345  0.00  0.00    +0.000 A 
ATOM      9  C   UNL     1       1.500   8.899  19.093  0.00  0.00    +0.000 A 
ATOM     10  C   UNL     1       2.239   8.163  18.155  0.00  0.00    +0.000 A 
BRANCH   5  14
ATOM     11  C   UNL     1       5.288   4.558  15.864  0.00  0.00    +0.000 A 
ATOM     12  C   UNL     1       4.377   3.938  16.712  0.00  0.00    +0.000 A 
ATOM     13  C   UNL     1       3.536   4.702  17.530  0.00  0.00    +0.000 A 
ATOM     14  C   UNL     1       3.609   6.107  17.557  0.00  0.00    +0.000 A 
ATOM     15  C   UNL     1       4.539   6.708  16.692  0.00  0.00    +0.000 A 
ATOM     16  C   UNL     1       5.364   5.946  15.852  0.00  0.00    +0.000 A 
BRANCH  11  18
ATOM     17  C   UNL     1       6.637   4.252  13.947  0.00  0.00    +0.000 C 
ATOM     18  O   UNL     1       6.082   3.711  15.141  0.00  0.00    +0.000 OA
ENDBRANCH  11  18
ENDBRANCH   5  14
ENDBRANCH   1   9
BRANCH   3  19
ATOM     19  C   UNL     1      -1.007  11.795  19.053  0.00  0.00    +0.000 C 
BRANCH  19  20
ATOM     20  C   UNL     1      -1.000  12.486  20.419  0.00  0.00    +0.000 A 
ATOM     21  C   UNL     1      -1.240  11.730  21.585  0.00  0.00    +0.000 A 
ATOM     22  C   UNL     1      -1.270  12.320  22.847  0.00  0.00    +0.000 A 
ATOM     23  C   UNL     1      -1.067  13.686  22.975  0.00  0.00    +0.000 A 
ATOM     24  C   UNL     1      -0.825  14.458  21.840  0.00  0.00    +0.000 A 
ATOM     25  C   UNL     1      -0.788  13.879  20.558  0.00  0.00    +0.000 A 
ATOM     26  C   UNL     1      -0.465  14.777  19.393  0.00  0.00    +0.000 C 
ENDBRANCH  19  20
BRANCH  19  27
ATOM     27  C   UNL     1      -2.406  11.767  18.414  0.00  0.00    +0.000 C 
BRANCH  27  28
ATOM     28  C   UNL     1      -2.624  10.599  17.487  0.00  0.00    +0.000 C 
ATOM     29  O   UNL     1      -3.228   9.578  17.786  0.00  0.00    +0.000 OA
BRANCH  28  30
ATOM     30  O   UNL     1      -1.985  10.736  16.302  0.00  0.00    +0.000 OA
ATOM     31  H   UNL     1      -2.232  10.077  15.624  0.00  0.00    +0.000 HD
ENDBRANCH  28  30
ENDBRANCH  27  28
ENDBRANCH  19  27
ENDBRANCH   3  19
TORSDOF 8
ENDMDL
MODEL 8
REMARK VINA RESULT:      -7.6      3.047      4.645
REMARK  Name = 
REMARK  10 active torsions:
REMARK  status: ('A' for Active; 'I' for Inactive)
REMARK    1  A    between atoms: C_1  and  O_2
REMARK    2  A    between atoms: O_2  and  C_3
REMARK    3  A    between atoms: C_6  and  C_7
REMARK    4  A    between atoms: C_11  and  C_12
REMARK    5  A    between atoms: N_14  and  C_15
REMARK    6  A    between atoms: C_15  and  C_16
REMARK    7  A    between atoms: C_15  and  C_20
REMARK    8  A    between atoms: C_16  and  C_17
REMARK    9  A    between atoms: C_17  and  O_19
REMARK   10  A    between atoms: C_25  and  C_26
REMARK                            x       y       z     vdW  Elec       q    Type
REMARK                         _______ _______ _______ _____ _____    ______ ____
ROOT
ATOM      1  C   UNL     1       2.506   8.206  17.833  0.00  0.00    +0.000 C 
ATOM      2  O   UNL     1       3.157   8.117  16.797  0.00  0.00    +0.000 OA
ATOM      3  N   UNL     1       2.535   7.229  18.807  0.00  0.00    +0.000 N 
ATOM      4  H   UNL     1       1.876   7.246  19.575  0.00  0.00    +0.000 HD
ENDROOT
BRANCH   1   9
ATOM      5  C   UNL     1      -0.420  10.661  18.316  0.00  0.00    +0.000 A 
ATOM      6  C   UNL     1       0.377  11.755  18.671  0.00  0.00    +0.000 A 
ATOM      7  N   UNL     1       1.730  11.756  18.717  0.00  0.00    +0.000 NA
ATOM      8  C   UNL     1       2.342  10.587  18.418  0.00  0.00    +0.000 A 
ATOM      9  C   UNL     1       1.673   9.419  18.072  0.00  0.00    +0.000 A 
ATOM     10  C   UNL     1       0.272   9.471  18.008  0.00  0.00    +0.000 A 
BRANCH   5  14
ATOM     11  C   UNL     1      -4.727  11.016  18.184  0.00  0.00    +0.000 A 
ATOM     12  C   UNL     1      -4.082   9.986  17.509  0.00  0.00    +0.000 A 
ATOM     13  C   UNL     1      -2.691   9.848  17.589  0.00  0.00    +0.000 A 
ATOM     14  C   UNL     1      -1.899  10.759  18.311  0.00  0.00    +0.000 A 
ATOM     15  C   UNL     1      -2.575  11.791  18.982  0.00  0.00    +0.000 A 
ATOM     16  C   UNL     1      -3.970  11.917  18.925  0.00  0.00    +0.000 A 
BRANCH  11  18
ATOM     17  C   UNL     1      -6.573  12.269  17.403  0.00  0.00    +0.000 C 
ATOM     18  O   UNL     1      -6.081  11.075  18.002  0.00  0.00    +0.000 OA
ENDBRANCH  11  18
ENDBRANCH   5  14
ENDBRANCH   1   9
BRANCH   3  19
ATOM     19  C   UNL     1       3.199   5.942  18.578  0.00  0.00    +0.000 C 
BRANCH  19  20
ATOM     20  C   UNL     1       2.403   4.759  19.131  0.00  0.00    +0.000 A 
ATOM     21  C   UNL     1       1.913   4.803  20.453  0.00  0.00    +0.000 A 
ATOM     22  C   UNL     1       1.205   3.739  21.008  0.00  0.00    +0.000 A 
ATOM     23  C   UNL     1       0.976   2.597  20.256  0.00  0.00    +0.000 A 
ATOM     24  C   UNL     1       1.446   2.525  18.946  0.00  0.00    +0.000 A 
ATOM     25  C   UNL     1       2.159   3.592  18.368  0.00  0.00    +0.000 A 
ATOM     26  C   UNL     1       2.582   3.453  16.929  0.00  0.00    +0.000 C 
ENDBRANCH  19  20
BRANCH  19  27
ATOM     27  C   UNL     1       4.651   5.965  19.087  0.00  0.00    +0.000 C 
BRANCH  27  28
ATOM     28  C   UNL     1       5.582   5.078  18.302  0.00  0.00    +0.000 C 
ATOM     29  O   UNL     1       6.011   5.336  17.186  0.00  0.00    +0.000 OA
BRANCH  28  30
ATOM     30  O   UNL     1       5.821   3.892  18.907  0.00  0.00    +0.000 OA
ATOM     31  H   UNL     1       5.068   3.269  18.903  0.00  0.00    +0.000 HD
ENDBRANCH  28  30
ENDBRANCH  27  28
ENDBRANCH  19  27
ENDBRANCH   3  19
TORSDOF 8
ENDMDL
MODEL 9
REMARK VINA RESULT:      -7.6      2.928      9.193
REMARK  Name = 
REMARK  10 active torsions:
REMARK  status: ('A' for Active; 'I' for Inactive)
REMARK    1  A    between atoms: C_1  and  O_2
REMARK    2  A    between atoms: O_2  and  C_3
REMARK    3  A    between atoms: C_6  and  C_7
REMARK    4  A    between atoms: C_11  and  C_12
REMARK    5  A    between atoms: N_14  and  C_15
REMARK    6  A    between atoms: C_15  and  C_16
REMARK    7  A    between atoms: C_15  and  C_20
REMARK    8  A    between atoms: C_16  and  C_17
REMARK    9  A    between atoms: C_17  and  O_19
REMARK   10  A    between atoms: C_25  and  C_26
REMARK                            x       y       z     vdW  Elec       q    Type
REMARK                         _______ _______ _______ _____ _____    ______ ____
ROOT
ATOM      1  C   UNL     1       1.153   8.574  20.477  0.00  0.00    +0.000 C 
ATOM      2  O   UNL     1       0.532   8.702  21.527  0.00  0.00    +0.000 OA
ATOM      3  N   UNL     1       1.251   9.592  19.551  0.00  0.00    +0.000 N 
ATOM      4  H   UNL     1       1.632   9.416  18.629  0.00  0.00    +0.000 HD
ENDROOT
BRANCH   1   9
ATOM      5  C   UNL     1       3.520   5.861  19.115  0.00  0.00    +0.000 A 
ATOM      6  C   UNL     1       3.056   4.841  19.953  0.00  0.00    +0.000 A 
ATOM      7  N   UNL     1       2.049   4.963  20.849  0.00  0.00    +0.000 NA
ATOM      8  C   UNL     1       1.475   6.184  20.948  0.00  0.00    +0.000 A 
ATOM      9  C   UNL     1       1.854   7.289  20.194  0.00  0.00    +0.000 A 
ATOM     10  C   UNL     1       2.882   7.111  19.256  0.00  0.00    +0.000 A 
BRANCH   5  14
ATOM     11  C   UNL     1       6.742   5.064  16.343  0.00  0.00    +0.000 A 
ATOM     12  C   UNL     1       5.536   5.590  15.893  0.00  0.00    +0.000 A 
ATOM     13  C   UNL     1       4.510   5.888  16.798  0.00  0.00    +0.000 A 
ATOM     14  C   UNL     1       4.642   5.630  18.174  0.00  0.00    +0.000 A 
ATOM     15  C   UNL     1       5.870   5.097  18.603  0.00  0.00    +0.000 A 
ATOM     16  C   UNL     1       6.909   4.822  17.702  0.00  0.00    +0.000 A 
BRANCH  11  18
ATOM     17  C   UNL     1       7.169   4.836  14.029  0.00  0.00    +0.000 C 
ATOM     18  O   UNL     1       7.654   4.777  15.365  0.00  0.00    +0.000 OA
ENDBRANCH  11  18
ENDBRANCH   5  14
ENDBRANCH   1   9
BRANCH   3  19
ATOM     19  C   UNL     1       0.464  10.822  19.682  0.00  0.00    +0.000 C 
BRANCH  19  20
ATOM     20  C   UNL     1      -0.830  10.785  18.865  0.00  0.00    +0.000 A 
ATOM     21  C   UNL     1      -0.916   9.952  17.730  0.00  0.00    +0.000 A 
ATOM     22  C   UNL     1      -2.063   9.906  16.941  0.00  0.00    +0.000 A 
ATOM     23  C   UNL     1      -3.154  10.699  17.264  0.00  0.00    +0.000 A 
ATOM     24  C   UNL     1      -3.099  11.530  18.382  0.00  0.00    +0.000 A 
ATOM     25  C   UNL     1      -1.950  11.587  19.192  0.00  0.00    +0.000 A 
ATOM     26  C   UNL     1      -1.995  12.471  20.411  0.00  0.00    +0.000 C 
ENDBRANCH  19  20
BRANCH  19  27
ATOM     27  C   UNL     1       1.317  12.066  19.379  0.00  0.00    +0.000 C 
BRANCH  27  28
ATOM     28  C   UNL     1       2.192  11.918  18.161  0.00  0.00    +0.000 C 
ATOM     29  O   UNL     1       2.445  10.855  17.612  0.00  0.00    +0.000 OA
BRANCH  28  30
ATOM     30  O   UNL     1       2.774  13.080  17.782  0.00  0.00    +0.000 OA
ATOM     31  H   UNL     1       3.120  13.087  16.869  0.00  0.00    +0.000 HD
ENDBRANCH  28  30
ENDBRANCH  27  28
ENDBRANCH  19  27
ENDBRANCH   3  19
TORSDOF 8
ENDMDL
