MODEL 1
REMARK VINA RESULT:      -7.5      0.000      0.000
REMARK  Name = 
REMARK  10 active torsions:
REMARK  status: ('A' for Active; 'I' for Inactive)
REMARK    1  A    between atoms: CB_1  and  CA_2
REMARK    2  A    between atoms: CA_2  and  N_3
REMARK    3  A    between atoms: CA_2  and  C_22
REMARK    4  A    between atoms: C_4  and  C_6
REMARK    5  A    between atoms: C_6  and  N_7
REMARK    6  A    between atoms: C_6  and  C_8
REMARK    7  A    between atoms: C_8  and  C_9
REMARK    8  A    between atoms: C_12  and  O_13
REMARK    9  A    between atoms: O_13  and  C_14
REMARK   10  A    between atoms: C_22  and  OXT_24
REMARK                            x       y       z     vdW  Elec       q    Type
REMARK                         _______ _______ _______ _____ _____    ______ ____
ROOT
ATOM      1  C   UNK A   1       2.282   4.884  18.916  0.00  0.00    +0.000 C 
ENDROOT
BRANCH   1   3
ATOM      2  N   ALA A   2       4.350   5.056  17.562  0.00  0.00    +0.000 N 
ATOM      3  C   UNK A   1       3.185   4.359  17.773  0.00  0.00    +0.000 C 
ATOM      4  O   UNK A   1       2.861   3.408  17.065  0.00  0.00    +0.000 OA
ATOM      5  H   ALA A   2       4.618   5.780  18.220  0.00  0.00    +0.000 HD
BRANCH   2   7
ATOM      6  CB  ALA A   2       5.382   5.891  15.493  0.00  0.00    +0.000 C 
ATOM      7  CA  ALA A   2       5.300   4.748  16.498  0.00  0.00    +0.000 C 
BRANCH   7   8
ATOM      8  C   ALA A   2       6.663   4.508  17.155  0.00  0.00    +0.000 C 
ATOM      9  O   ALA A   2       7.733   4.703  16.589  0.00  0.00    +0.000 OA
BRANCH   8  10
ATOM     10  OXT ALA A   2       6.598   4.056  18.428  0.00  0.00    +0.000 OA
ATOM     11  HXT ALA A   2       7.463   3.891  18.849  0.00  0.00    +0.000 HD
ENDBRANCH   8  10
ENDBRANCH   7   8
ENDBRANCH   2   7
ENDBRANCH   1   3
BRANCH   1  12
ATOM     12  N   UNK A   1       1.905   3.827  19.883  0.00  0.00    +0.000 NA
ATOM     13  H   UNK A   1       2.139   2.911  19.504  0.00  0.00    +0.000 HD
ATOM     14  H   UNK A   1       0.907   3.865  20.081  0.00  0.00    +0.000 HD
ENDBRANCH   1  12
BRANCH   1  15
ATOM     15  C   UNK A   1       2.922   6.099  19.618  0.00  0.00    +0.000 C 
BRANCH  15  16
ATOM     16  C   UNK A   1       2.261   7.437  19.341  0.00  0.00    +0.000 A 
ATOM     17  C   UNK A   1       1.517   8.089  20.334  0.00  0.00    +0.000 A 
ATOM     18  C   UNK A   1       0.847   9.279  20.063  0.00  0.00    +0.000 A 
ATOM     19  C   UNK A   1       0.967   9.872  18.811  0.00  0.00    +0.000 A 
ATOM     20  C   UNK A   1       1.711   9.241  17.811  0.00  0.00    +0.000 A 
ATOM     21  C   UNK A   1       2.367   8.037  18.080  0.00  0.00    +0.000 A 
BRANCH  19  22
ATOM     22  O   UNK A   1       0.270  11.048  18.636  0.00  0.00    +0.000 OA
BRANCH  22  23
ATOM     23  C   UNK A   1      -1.079  10.996  18.377  0.00  0.00    +0.000 A 
ATOM     24  C   UNK A   1      -1.477  10.036  17.446  0.00  0.00    +0.000 A 
ATOM     25  C   UNK A   1      -2.823   9.905  17.107  0.00  0.00    +0.000 A 
ATOM     26  C   UNK A   1      -3.773  10.738  17.699  0.00  0.00    +0.000 A 
ATOM     27  C   UNK A   1      -3.382  11.672  18.657  0.00  0.00    +0.000 A 
ATOM     28  C   UNK A   1      -2.039  11.784  19.018  0.00  0.00    +0.000 A 
ENDBRANCH  22  23
ENDBRANCH  19  22
ENDBRANCH  15  16
ENDBRANCH   1  15
TORSDOF 9
ENDMDL
MODEL 2
REMARK VINA RESULT:      -7.4      0.948      1.416
REMARK  Name = 
REMARK  10 active torsions:
REMARK  status: ('A' for Active; 'I' for Inactive)
REMARK    1  A    between atoms: CB_1  and  CA_2
REMARK    2  A    between atoms: CA_2  and  N_3
REMARK    3  A    between atoms: CA_2  and  C_22
REMARK    4  A    between atoms: C_4  and  C_6
REMARK    5  A    between atoms: C_6  and  N_7
REMARK    6  A    between atoms: C_6  and  C_8
REMARK    7  A    between atoms: C_8  and  C_9
REMARK    8  A    between atoms: C_12  and  O_13
REMARK    9  A    between atoms: O_13  and  C_14
REMARK   10  A    between atoms: C_22  and  OXT_24
REMARK                            x       y       z     vdW  Elec       q    Type
REMARK                         _______ _______ _______ _____ _____    ______ ____
ROOT
ATOM      1  C   UNK A   1       2.927   4.936  18.010  0.00  0.00    +0.000 C 
ENDROOT
BRANCH   1   3
ATOM      2  N   ALA A   2       4.871   4.687  16.494  0.00  0.00    +0.000 N 
ATOM      3  C   UNK A   1       3.959   4.035  17.288  0.00  0.00    +0.000 C 
ATOM      4  O   UNK A   1       3.937   2.809  17.378  0.00  0.00    +0.000 OA
ATOM      5  H   ALA A   2       4.908   5.701  16.514  0.00  0.00    +0.000 HD
BRANCH   2   7
ATOM      6  CB  ALA A   2       5.568   4.120  14.206  0.00  0.00    +0.000 C 
ATOM      7  CA  ALA A   2       5.884   4.007  15.692  0.00  0.00    +0.000 C 
BRANCH   7   8
ATOM      8  C   ALA A   2       7.233   4.659  16.009  0.00  0.00    +0.000 C 
ATOM      9  O   ALA A   2       7.689   5.612  15.386  0.00  0.00    +0.000 OA
BRANCH   8  10
ATOM     10  OXT ALA A   2       7.898   4.097  17.044  0.00  0.00    +0.000 OA
ATOM     11  HXT ALA A   2       8.394   3.287  16.820  0.00  0.00    +0.000 HD
ENDBRANCH   8  10
ENDBRANCH   7   8
ENDBRANCH   2   7
ENDBRANCH   1   3
BRANCH   1  12
ATOM     12  N   UNK A   1       2.111   4.195  19.001  0.00  0.00    +0.000 NA
ATOM     13  H   UNK A   1       1.786   4.832  19.727  0.00  0.00    +0.000 HD
ATOM     14  H   UNK A   1       2.659   3.449  19.427  0.00  0.00    +0.000 HD
ENDBRANCH   1  12
BRANCH   1  15
ATOM     15  C   UNK A   1       3.608   6.169  18.639  0.00  0.00    +0.000 C 
BRANCH  15  16
ATOM     16  C   UNK A   1       2.723   7.391  18.802  0.00  0.00    +0.000 A 
ATOM     17  C   UNK A   1       1.983   7.589  19.976  0.00  0.00    +0.000 A 
ATOM     18  C   UNK A   1       1.113   8.669  20.101  0.00  0.00    +0.000 A 
ATOM     19  C   UNK A   1       1.021   9.607  19.079  0.00  0.00    +0.000 A 
ATOM     20  C   UNK A   1       1.758   9.431  17.905  0.00  0.00    +0.000 A 
ATOM     21  C   UNK A   1       2.616   8.336  17.774  0.00  0.00    +0.000 A 
BRANCH  19  22
ATOM     22  O   UNK A   1       0.136  10.642  19.293  0.00  0.00    +0.000 OA
BRANCH  22  23
ATOM     23  C   UNK A   1      -1.066  10.644  18.625  0.00  0.00    +0.000 A 
ATOM     24  C   UNK A   1      -2.021  11.542  19.104  0.00  0.00    +0.000 A 
ATOM     25  C   UNK A   1      -3.275  11.618  18.502  0.00  0.00    +0.000 A 
ATOM     26  C   UNK A   1      -3.577  10.793  17.418  0.00  0.00    +0.000 A 
ATOM     27  C   UNK A   1      -2.613   9.921  16.914  0.00  0.00    +0.000 A 
ATOM     28  C   UNK A   1      -1.347   9.865  17.499  0.00  0.00    +0.000 A 
ENDBRANCH  22  23
ENDBRANCH  19  22
ENDBRANCH  15  16
ENDBRANCH   1  15
TORSDOF 9
ENDMDL
MODEL 3
REMARK VINA RESULT:      -7.3      0.582      1.310
REMARK  Name = 
REMARK  10 active torsions:
REMARK  status: ('A' for Active; 'I' for Inactive)
REMARK    1  A    between atoms: CB_1  and  CA_2
REMARK    2  A    between atoms: CA_2  and  N_3
REMARK    3  A    between atoms: CA_2  and  C_22
REMARK    4  A    between atoms: C_4  and  C_6
REMARK    5  A    between atoms: C_6  and  N_7
REMARK    6  A    between atoms: C_6  and  C_8
REMARK    7  A    between atoms: C_8  and  C_9
REMARK    8  A    between atoms: C_12  and  O_13
REMARK    9  A    between atoms: O_13  and  C_14
REMARK   10  A    between atoms: C_22  and  OXT_24
REMARK                            x       y       z     vdW  Elec       q    Type
REMARK                         _______ _______ _______ _____ _____    ______ ____
ROOT
ATOM      1  C   UNK A   1       2.596   4.646  19.005  0.00  0.00    +0.000 C 
ENDROOT
BRANCH   1   3
ATOM      2  N   ALA A   2       4.472   4.663  17.387  0.00  0.00    +0.000 N 
ATOM      3  C   UNK A   1       3.700   3.893  18.223  0.00  0.00    +0.000 C 
ATOM      4  O   UNK A   1       3.848   2.676  18.305  0.00  0.00    +0.000 OA
ATOM      5  H   ALA A   2       4.373   5.672  17.412  0.00  0.00    +0.000 HD
BRANCH   2   7
ATOM      6  CB  ALA A   2       5.381   4.647  15.103  0.00  0.00    +0.000 C 
ATOM      7  CA  ALA A   2       5.523   4.125  16.528  0.00  0.00    +0.000 C 
BRANCH   7   8
ATOM      8  C   ALA A   2       6.867   4.550  17.127  0.00  0.00    +0.000 C 
ATOM      9  O   ALA A   2       7.138   4.455  18.319  0.00  0.00    +0.000 OA
BRANCH   8  10
ATOM     10  OXT ALA A   2       7.749   5.044  16.230  0.00  0.00    +0.000 OA
ATOM     11  HXT ALA A   2       8.451   5.606  16.612  0.00  0.00    +0.000 HD
ENDBRANCH   8  10
ENDBRANCH   7   8
ENDBRANCH   2   7
ENDBRANCH   1   3
BRANCH   1  12
ATOM     12  N   UNK A   1       1.889   3.782  19.979  0.00  0.00    +0.000 NA
ATOM     13  H   UNK A   1       1.342   4.356  20.619  0.00  0.00    +0.000 HD
ATOM     14  H   UNK A   1       2.557   3.227  20.512  0.00  0.00    +0.000 HD
ENDBRANCH   1  12
BRANCH   1  15
ATOM     15  C   UNK A   1       3.156   5.919  19.673  0.00  0.00    +0.000 C 
BRANCH  15  16
ATOM     16  C   UNK A   1       2.403   7.201  19.368  0.00  0.00    +0.000 A 
ATOM     17  C   UNK A   1       2.435   7.763  18.085  0.00  0.00    +0.000 A 
ATOM     18  C   UNK A   1       1.807   8.977  17.818  0.00  0.00    +0.000 A 
ATOM     19  C   UNK A   1       1.080   9.615  18.817  0.00  0.00    +0.000 A 
ATOM     20  C   UNK A   1       1.029   9.065  20.100  0.00  0.00    +0.000 A 
ATOM     21  C   UNK A   1       1.675   7.856  20.370  0.00  0.00    +0.000 A 
BRANCH  19  22
ATOM     22  O   UNK A   1       0.492  10.810  18.460  0.00  0.00    +0.000 OA
BRANCH  22  23
ATOM     23  C   UNK A   1      -0.876  10.873  18.335  0.00  0.00    +0.000 A 
ATOM     24  C   UNK A   1      -1.444   9.956  17.450  0.00  0.00    +0.000 A 
ATOM     25  C   UNK A   1      -2.823   9.941  17.246  0.00  0.00    +0.000 A 
ATOM     26  C   UNK A   1      -3.636  10.846  17.929  0.00  0.00    +0.000 A 
ATOM     27  C   UNK A   1      -3.075  11.738  18.842  0.00  0.00    +0.000 A 
ATOM     28  C   UNK A   1      -1.698  11.734  19.067  0.00  0.00    +0.000 A 
ENDBRANCH  22  23
ENDBRANCH  19  22
ENDBRANCH  15  16
ENDBRANCH   1  15
TORSDOF 9
ENDMDL
MODEL 4
REMARK VINA RESULT:      -7.2      3.956      9.239
REMARK  Name = 
REMARK  10 active torsions:
REMARK  status: ('A' for Active; 'I' for Inactive)
REMARK    1  A    between atoms: CB_1  and  CA_2
REMARK    2  A    between atoms: CA_2  and  N_3
REMARK    3  A    between atoms: CA_2  and  C_22
REMARK    4  A    between atoms: C_4  and  C_6
REMARK    5  A    between atoms: C_6  and  N_7
REMARK    6  A    between atoms: C_6  and  C_8
REMARK    7  A    between atoms: C_8  and  C_9
REMARK    8  A    between atoms: C_12  and  O_13
REMARK    9  A    between atoms: O_13  and  C_14
REMARK   10  A    between atoms: C_22  and  OXT_24
REMARK                            x       y       z     vdW  Elec       q    Type
REMARK                         _______ _______ _______ _____ _____    ______ ____
ROOT
ATOM      1  C   UNK A   1      -1.940  11.277  18.185  0.00  0.00    +0.000 C 
ENDROOT
BRANCH   1   3
ATOM      2  N   ALA A   2      -4.345  11.864  18.295  0.00  0.00    +0.000 N 
ATOM      3  C   UNK A   1      -3.134  11.908  18.942  0.00  0.00    +0.000 C 
ATOM      4  O   UNK A   1      -3.001  12.458  20.034  0.00  0.00    +0.000 OA
ATOM      5  H   ALA A   2      -4.427  11.329  17.437  0.00  0.00    +0.000 HD
BRANCH   2   7
ATOM      6  CB  ALA A   2      -6.354  13.160  17.723  0.00  0.00    +0.000 C 
ATOM      7  CA  ALA A   2      -5.571  12.455  18.824  0.00  0.00    +0.000 C 
BRANCH   7   8
ATOM      8  C   ALA A   2      -6.399  11.322  19.436  0.00  0.00    +0.000 C 
ATOM      9  O   ALA A   2      -6.473  11.110  20.641  0.00  0.00    +0.000 OA
BRANCH   8  10
ATOM     10  OXT ALA A   2      -7.055  10.558  18.534  0.00  0.00    +0.000 OA
ATOM     11  HXT ALA A   2      -6.486  10.142  17.858  0.00  0.00    +0.000 HD
ENDBRANCH   8  10
ENDBRANCH   7   8
ENDBRANCH   2   7
ENDBRANCH   1   3
BRANCH   1  12
ATOM     12  N   UNK A   1      -1.827  11.756  16.788  0.00  0.00    +0.000 NA
ATOM     13  H   UNK A   1      -2.751  11.988  16.426  0.00  0.00    +0.000 HD
ATOM     14  H   UNK A   1      -1.405  11.040  16.199  0.00  0.00    +0.000 HD
ENDBRANCH   1  12
BRANCH   1  15
ATOM     15  C   UNK A   1      -0.622  11.470  18.963  0.00  0.00    +0.000 C 
BRANCH  15  16
ATOM     16  C   UNK A   1       0.239  10.229  19.106  0.00  0.00    +0.000 A 
ATOM     17  C   UNK A   1       0.341   9.565  20.336  0.00  0.00    +0.000 A 
ATOM     18  C   UNK A   1       1.187   8.470  20.492  0.00  0.00    +0.000 A 
ATOM     19  C   UNK A   1       1.894   7.980  19.401  0.00  0.00    +0.000 A 
ATOM     20  C   UNK A   1       1.799   8.623  18.164  0.00  0.00    +0.000 A 
ATOM     21  C   UNK A   1       0.964   9.733  18.015  0.00  0.00    +0.000 A 
BRANCH  19  22
ATOM     22  O   UNK A   1       2.704   6.892  19.650  0.00  0.00    +0.000 OA
BRANCH  22  23
ATOM     23  C   UNK A   1       2.171   5.627  19.565  0.00  0.00    +0.000 A 
ATOM     24  C   UNK A   1       2.160   5.062  18.289  0.00  0.00    +0.000 A 
ATOM     25  C   UNK A   1       1.635   3.786  18.093  0.00  0.00    +0.000 A 
ATOM     26  C   UNK A   1       1.118   3.074  19.176  0.00  0.00    +0.000 A 
ATOM     27  C   UNK A   1       1.162   3.621  20.457  0.00  0.00    +0.000 A 
ATOM     28  C   UNK A   1       1.713   4.886  20.658  0.00  0.00    +0.000 A 
ENDBRANCH  22  23
ENDBRANCH  19  22
ENDBRANCH  15  16
ENDBRANCH   1  15
TORSDOF 9
ENDMDL
MODEL 5
REMARK VINA RESULT:      -7.2      1.270      1.955
REMARK  Name = 
REMARK  10 active torsions:
REMARK  status: ('A' for Active; 'I' for Inactive)
REMARK    1  A    between atoms: CB_1  and  CA_2
REMARK    2  A    between atoms: CA_2  and  N_3
REMARK    3  A    between atoms: CA_2  and  C_22
REMARK    4  A    between atoms: C_4  and  C_6
REMARK    5  A    between atoms: C_6  and  N_7
REMARK    6  A    between atoms: C_6  and  C_8
REMARK    7  A    between atoms: C_8  and  C_9
REMARK    8  A    between atoms: C_12  and  O_13
REMARK    9  A    between atoms: O_13  and  C_14
REMARK   10  A    between atoms: C_22  and  OXT_24
REMARK                            x       y       z     vdW  Elec       q    Type
REMARK                         _______ _______ _______ _____ _____    ______ ____
ROOT
ATOM      1  C   UNK A   1       2.541   4.239  17.872  0.00  0.00    +0.000 C 
ENDROOT
BRANCH   1   3
ATOM      2  N   ALA A   2       4.667   4.391  16.609  0.00  0.00    +0.000 N 
ATOM      3  C   UNK A   1       3.827   3.573  17.324  0.00  0.00    +0.000 C 
ATOM      4  O   UNK A   1       4.061   2.376  17.475  0.00  0.00    +0.000 OA
ATOM      5  H   ALA A   2       4.479   5.388  16.579  0.00  0.00    +0.000 HD
BRANCH   2   7
ATOM      6  CB  ALA A   2       5.837   4.150  14.460  0.00  0.00    +0.000 C 
ATOM      7  CA  ALA A   2       5.896   3.933  15.967  0.00  0.00    +0.000 C 
BRANCH   7   8
ATOM      8  C   ALA A   2       7.056   4.722  16.582  0.00  0.00    +0.000 C 
ATOM      9  O   ALA A   2       7.510   5.751  16.094  0.00  0.00    +0.000 OA
BRANCH   8  10
ATOM     10  OXT ALA A   2       7.550   4.193  17.724  0.00  0.00    +0.000 OA
ATOM     11  HXT ALA A   2       7.112   4.498  18.541  0.00  0.00    +0.000 HD
ENDBRANCH   8  10
ENDBRANCH   7   8
ENDBRANCH   2   7
ENDBRANCH   1   3
BRANCH   1  12
ATOM     12  N   UNK A   1       1.372   3.329  17.862  0.00  0.00    +0.000 NA
ATOM     13  H   UNK A   1       0.598   3.753  18.373  0.00  0.00    +0.000 HD
ATOM     14  H   UNK A   1       1.612   2.438  18.293  0.00  0.00    +0.000 HD
ENDBRANCH   1  12
BRANCH   1  15
ATOM     15  C   UNK A   1       2.781   4.845  19.271  0.00  0.00    +0.000 C 
BRANCH  15  16
ATOM     16  C   UNK A   1       2.284   6.266  19.460  0.00  0.00    +0.000 A 
ATOM     17  C   UNK A   1       2.418   7.215  18.437  0.00  0.00    +0.000 A 
ATOM     18  C   UNK A   1       2.032   8.538  18.632  0.00  0.00    +0.000 A 
ATOM     19  C   UNK A   1       1.442   8.919  19.832  0.00  0.00    +0.000 A 
ATOM     20  C   UNK A   1       1.292   7.985  20.860  0.00  0.00    +0.000 A 
ATOM     21  C   UNK A   1       1.697   6.662  20.669  0.00  0.00    +0.000 A 
BRANCH  19  22
ATOM     22  O   UNK A   1       1.091  10.248  19.932  0.00  0.00    +0.000 OA
BRANCH  22  23
ATOM     23  C   UNK A   1       0.004  10.709  19.226  0.00  0.00    +0.000 A 
ATOM     24  C   UNK A   1       0.057  12.049  18.843  0.00  0.00    +0.000 A 
ATOM     25  C   UNK A   1      -0.997  12.616  18.129  0.00  0.00    +0.000 A 
ATOM     26  C   UNK A   1      -2.109  11.841  17.800  0.00  0.00    +0.000 A 
ATOM     27  C   UNK A   1      -2.149  10.491  18.149  0.00  0.00    +0.000 A 
ATOM     28  C   UNK A   1      -1.081   9.917  18.838  0.00  0.00    +0.000 A 
ENDBRANCH  22  23
ENDBRANCH  19  22
ENDBRANCH  15  16
ENDBRANCH   1  15
TORSDOF 9
ENDMDL
MODEL 6
REMARK VINA RESULT:      -7.2      1.454      2.041
REMARK  Name = 
REMARK  10 active torsions:
REMARK  status: ('A' for Active; 'I' for Inactive)
REMARK    1  A    between atoms: CB_1  and  CA_2
REMARK    2  A    between atoms: CA_2  and  N_3
REMARK    3  A    between atoms: CA_2  and  C_22
REMARK    4  A    between atoms: C_4  and  C_6
REMARK    5  A    between atoms: C_6  and  N_7
REMARK    6  A    between atoms: C_6  and  C_8
REMARK    7  A    between atoms: C_8  and  C_9
REMARK    8  A    between atoms: C_12  and  O_13
REMARK    9  A    between atoms: O_13  and  C_14
REMARK   10  A    between atoms: C_22  and  OXT_24
REMARK                            x       y       z     vdW  Elec       q    Type
REMARK                         _______ _______ _______ _____ _____    ______ ____
ROOT
ATOM      1  C   UNK A   1       3.212   4.349  19.066  0.00  0.00    +0.000 C 
ENDROOT
BRANCH   1   3
ATOM      2  N   ALA A   2       5.488   4.937  18.280  0.00  0.00    +0.000 N 
ATOM      3  C   UNK A   1       4.732   4.055  19.013  0.00  0.00    +0.000 C 
ATOM      4  O   UNK A   1       5.228   3.067  19.552  0.00  0.00    +0.000 OA
ATOM      5  H   ALA A   2       5.053   5.781  17.923  0.00  0.00    +0.000 HD
BRANCH   2   7
ATOM      6  CB  ALA A   2       7.308   5.195  16.648  0.00  0.00    +0.000 C 
ATOM      7  CA  ALA A   2       6.925   4.795  18.068  0.00  0.00    +0.000 C 
BRANCH   7   8
ATOM      8  C   ALA A   2       7.630   5.691  19.090  0.00  0.00    +0.000 C 
ATOM      9  O   ALA A   2       7.803   5.376  20.262  0.00  0.00    +0.000 OA
BRANCH   8  10
ATOM     10  OXT ALA A   2       8.055   6.876  18.597  0.00  0.00    +0.000 OA
ATOM     11  HXT ALA A   2       8.385   6.843  17.679  0.00  0.00    +0.000 HD
ENDBRANCH   8  10
ENDBRANCH   7   8
ENDBRANCH   2   7
ENDBRANCH   1   3
BRANCH   1  12
ATOM     12  N   UNK A   1       2.392   3.121  19.187  0.00  0.00    +0.000 NA
ATOM     13  H   UNK A   1       2.768   2.393  18.582  0.00  0.00    +0.000 HD
ATOM     14  H   UNK A   1       1.426   3.311  18.927  0.00  0.00    +0.000 HD
ENDBRANCH   1  12
BRANCH   1  15
ATOM     15  C   UNK A   1       2.881   5.369  20.175  0.00  0.00    +0.000 C 
BRANCH  15  16
ATOM     16  C   UNK A   1       2.333   6.700  19.695  0.00  0.00    +0.000 A 
ATOM     17  C   UNK A   1       2.510   7.111  18.366  0.00  0.00    +0.000 A 
ATOM     18  C   UNK A   1       2.074   8.362  17.939  0.00  0.00    +0.000 A 
ATOM     19  C   UNK A   1       1.393   9.197  18.818  0.00  0.00    +0.000 A 
ATOM     20  C   UNK A   1       1.199   8.800  20.144  0.00  0.00    +0.000 A 
ATOM     21  C   UNK A   1       1.653   7.551  20.575  0.00  0.00    +0.000 A 
BRANCH  19  22
ATOM     22  O   UNK A   1       0.999  10.414  18.306  0.00  0.00    +0.000 OA
BRANCH  22  23
ATOM     23  C   UNK A   1      -0.285  10.852  18.534  0.00  0.00    +0.000 A 
ATOM     24  C   UNK A   1      -1.260  10.331  17.683  0.00  0.00    +0.000 A 
ATOM     25  C   UNK A   1      -2.592  10.717  17.826  0.00  0.00    +0.000 A 
ATOM     26  C   UNK A   1      -2.949  11.627  18.820  0.00  0.00    +0.000 A 
ATOM     27  C   UNK A   1      -1.982  12.122  19.695  0.00  0.00    +0.000 A 
ATOM     28  C   UNK A   1      -0.654  11.714  19.571  0.00  0.00    +0.000 A 
ENDBRANCH  22  23
ENDBRANCH  19  22
ENDBRANCH  15  16
ENDBRANCH   1  15
TORSDOF 9
ENDMDL
MODEL 7
REMARK VINA RESULT:      -7.1      1.755      3.385
REMARK  Name = 
REMARK  10 active torsions:
REMARK  status: ('A' for Active; 'I' for Inactive)
REMARK    1  A    between atoms: CB_1  and  CA_2
REMARK    2  A    between atoms: CA_2  and  N_3
REMARK    3  A    between atoms: CA_2  and  C_22
REMARK    4  A    between atoms: C_4  and  C_6
REMARK    5  A    between atoms: C_6  and  N_7
REMARK    6  A    between atoms: C_6  and  C_8
REMARK    7  A    between atoms: C_8  and  C_9
REMARK    8  A    between atoms: C_12  and  O_13
REMARK    9  A    between atoms: O_13  and  C_14
REMARK   10  A    between atoms: C_22  and  OXT_24
REMARK                            x       y       z     vdW  Elec       q    Type
REMARK                         _______ _______ _______ _____ _____    ______ ____
ROOT
ATOM      1  C   UNK A   1       4.568   5.549  19.057  0.00  0.00    +0.000 C 
ENDROOT
BRANCH   1   3
ATOM      2  N   ALA A   2       2.822   3.933  19.751  0.00  0.00    +0.000 N 
ATOM      3  C   UNK A   1       4.143   4.103  19.414  0.00  0.00    +0.000 C 
ATOM      4  O   UNK A   1       4.945   3.172  19.443  0.00  0.00    +0.000 OA
ATOM      5  H   ALA A   2       2.178   4.708  19.633  0.00  0.00    +0.000 HD
BRANCH   2   7
ATOM      6  CB  ALA A   2       1.264   2.855  21.317  0.00  0.00    +0.000 C 
ATOM      7  CA  ALA A   2       2.248   2.658  20.171  0.00  0.00    +0.000 C 
BRANCH   7   8
ATOM      8  C   ALA A   2       1.546   2.048  18.954  0.00  0.00    +0.000 C 
ATOM      9  O   ALA A   2       0.328   2.012  18.821  0.00  0.00    +0.000 OA
BRANCH   8  10
ATOM     10  OXT ALA A   2       2.383   1.544  18.019  0.00  0.00    +0.000 OA
ATOM     11  HXT ALA A   2       2.567   0.589  18.107  0.00  0.00    +0.000 HD
ENDBRANCH   8  10
ENDBRANCH   7   8
ENDBRANCH   2   7
ENDBRANCH   1   3
BRANCH   1  12
ATOM     12  N   UNK A   1       5.994   5.650  18.669  0.00  0.00    +0.000 NA
ATOM     13  H   UNK A   1       6.448   4.745  18.779  0.00  0.00    +0.000 HD
ATOM     14  H   UNK A   1       6.472   6.340  19.247  0.00  0.00    +0.000 HD
ENDBRANCH   1  12
BRANCH   1  15
ATOM     15  C   UNK A   1       3.640   6.152  17.982  0.00  0.00    +0.000 C 
BRANCH  15  16
ATOM     16  C   UNK A   1       2.818   7.348  18.426  0.00  0.00    +0.000 A 
ATOM     17  C   UNK A   1       2.204   7.368  19.685  0.00  0.00    +0.000 A 
ATOM     18  C   UNK A   1       1.389   8.430  20.069  0.00  0.00    +0.000 A 
ATOM     19  C   UNK A   1       1.230   9.522  19.223  0.00  0.00    +0.000 A 
ATOM     20  C   UNK A   1       1.843   9.525  17.968  0.00  0.00    +0.000 A 
ATOM     21  C   UNK A   1       2.645   8.449  17.578  0.00  0.00    +0.000 A 
BRANCH  19  22
ATOM     22  O   UNK A   1       0.407  10.526  19.688  0.00  0.00    +0.000 OA
BRANCH  22  23
ATOM     23  C   UNK A   1      -0.797  10.749  19.062  0.00  0.00    +0.000 A 
ATOM     24  C   UNK A   1      -1.051   9.954  17.944  0.00  0.00    +0.000 A 
ATOM     25  C   UNK A   1      -2.241  10.105  17.233  0.00  0.00    +0.000 A 
ATOM     26  C   UNK A   1      -3.177  11.056  17.641  0.00  0.00    +0.000 A 
ATOM     27  C   UNK A   1      -2.942  11.825  18.779  0.00  0.00    +0.000 A 
ATOM     28  C   UNK A   1      -1.764  11.654  19.507  0.00  0.00    +0.000 A 
ENDBRANCH  22  23
ENDBRANCH  19  22
ENDBRANCH  15  16
ENDBRANCH   1  15
TORSDOF 9
ENDMDL
MODEL 8
REMARK VINA RESULT:      -7.1      0.566      1.646
REMARK  Name = 
REMARK  10 active torsions:
REMARK  status: ('A' for Active; 'I' for Inactive)
REMARK    1  A    between atoms: CB_1  and  CA_2
REMARK    2  A    between atoms: CA_2  and  N_3
REMARK    3  A    between atoms: CA_2  and  C_22
REMARK    4  A    between atoms: C_4  and  C_6
REMARK    5  A    between atoms: C_6  and  N_7
REMARK    6  A    between atoms: C_6  and  C_8
REMARK    7  A    between atoms: C_8  and  C_9
REMARK    8  A    between atoms: C_12  and  O_13
REMARK    9  A    between atoms: O_13  and  C_14
REMARK   10  A    between atoms: C_22  and  OXT_24
REMARK                            x       y       z     vdW  Elec       q    Type
REMARK                         _______ _______ _______ _____ _____    ______ ____
ROOT
ATOM      1  C   UNK A   1       2.394   5.104  18.542  0.00  0.00    +0.000 C 
ENDROOT
BRANCH   1   3
ATOM      2  N   ALA A   2       4.488   4.911  17.231  0.00  0.00    +0.000 N 
ATOM      3  C   UNK A   1       3.427   4.236  17.782  0.00  0.00    +0.000 C 
ATOM      4  O   UNK A   1       3.284   3.023  17.638  0.00  0.00    +0.000 OA
ATOM      5  H   ALA A   2       4.611   5.896  17.444  0.00  0.00    +0.000 HD
BRANCH   2   7
ATOM      6  CB  ALA A   2       5.635   4.921  15.057  0.00  0.00    +0.000 C 
ATOM      7  CA  ALA A   2       5.531   4.274  16.433  0.00  0.00    +0.000 C 
BRANCH   7   8
ATOM      8  C   ALA A   2       6.849   4.421  17.200  0.00  0.00    +0.000 C 
ATOM      9  O   ALA A   2       6.923   4.434  18.424  0.00  0.00    +0.000 OA
BRANCH   8  10
ATOM     10  OXT ALA A   2       7.944   4.537  16.415  0.00  0.00    +0.000 OA
ATOM     11  HXT ALA A   2       8.563   5.244  16.677  0.00  0.00    +0.000 HD
ENDBRANCH   8  10
ENDBRANCH   7   8
ENDBRANCH   2   7
ENDBRANCH   1   3
BRANCH   1  12
ATOM     12  N   UNK A   1       1.595   4.327  19.517  0.00  0.00    +0.000 NA
ATOM     13  H   UNK A   1       0.891   3.776  19.028  0.00  0.00    +0.000 HD
ATOM     14  H   UNK A   1       1.135   4.951  20.178  0.00  0.00    +0.000 HD
ENDBRANCH   1  12
BRANCH   1  15
ATOM     15  C   UNK A   1       3.070   6.324  19.201  0.00  0.00    +0.000 C 
BRANCH  15  16
ATOM     16  C   UNK A   1       2.295   7.626  19.112  0.00  0.00    +0.000 A 
ATOM     17  C   UNK A   1       2.312   8.391  17.937  0.00  0.00    +0.000 A 
ATOM     18  C   UNK A   1       1.665   9.623  17.874  0.00  0.00    +0.000 A 
ATOM     19  C   UNK A   1       0.933  10.077  18.965  0.00  0.00    +0.000 A 
ATOM     20  C   UNK A   1       0.896   9.324  20.141  0.00  0.00    +0.000 A 
ATOM     21  C   UNK A   1       1.562   8.098  20.208  0.00  0.00    +0.000 A 
BRANCH  19  22
ATOM     22  O   UNK A   1       0.325  11.304  18.810  0.00  0.00    +0.000 OA
BRANCH  22  23
ATOM     23  C   UNK A   1      -1.045  11.364  18.695  0.00  0.00    +0.000 A 
ATOM     24  C   UNK A   1      -1.692  12.189  19.616  0.00  0.00    +0.000 A 
ATOM     25  C   UNK A   1      -3.080  12.314  19.590  0.00  0.00    +0.000 A 
ATOM     26  C   UNK A   1      -3.822  11.610  18.642  0.00  0.00    +0.000 A 
ATOM     27  C   UNK A   1      -3.176  10.814  17.697  0.00  0.00    +0.000 A 
ATOM     28  C   UNK A   1      -1.785  10.711  17.705  0.00  0.00    +0.000 A 
ENDBRANCH  22  23
ENDBRANCH  19  22
ENDBRANCH  15  16
ENDBRANCH   1  15
TORSDOF 9
ENDMDL
MODEL 9
REMARK VINA RESULT:      -7.1      1.959      2.714
REMARK  Name = 
REMARK  10 active torsions:
REMARK  status: ('A' for Active; 'I' for Inactive)
REMARK    1  A    between atoms: CB_1  and  CA_2
REMARK    2  A    between atoms: CA_2  and  N_3
REMARK    3  A    between atoms: CA_2  and  C_22
REMARK    4  A    between atoms: C_4  and  C_6
REMARK    5  A    between atoms: C_6  and  N_7
REMARK    6  A    between atoms: C_6  and  C_8
REMARK    7  A    between atoms: C_8  and  C_9
REMARK    8  A    between atoms: C_12  and  O_13
REMARK    9  A    between atoms: O_13  and  C_14
REMARK   10  A    between atoms: C_22  and  OXT_24
REMARK                            x       y       z     vdW  Elec       q    Type
REMARK                         _______ _______ _______ _____ _____    ______ ____
ROOT
ATOM      1  C   UNK A   1       3.064   5.388  17.867  0.00  0.00    +0.000 C 
ENDROOT
BRANCH   1   3
ATOM      2  N   ALA A   2       4.846   4.688  16.293  0.00  0.00    +0.000 N 
ATOM      3  C   UNK A   1       4.373   4.611  17.581  0.00  0.00    +0.000 C 
ATOM      4  O   UNK A   1       4.931   3.927  18.437  0.00  0.00    +0.000 OA
ATOM      5  H   ALA A   2       4.403   5.329  15.642  0.00  0.00    +0.000 HD
BRANCH   2   7
ATOM      6  CB  ALA A   2       6.064   3.933  14.296  0.00  0.00    +0.000 C 
ATOM      7  CA  ALA A   2       6.031   3.980  15.818  0.00  0.00    +0.000 C 
BRANCH   7   8
ATOM      8  C   ALA A   2       7.256   4.721  16.363  0.00  0.00    +0.000 C 
ATOM      9  O   ALA A   2       8.053   4.226  17.152  0.00  0.00    +0.000 OA
BRANCH   8  10
ATOM     10  OXT ALA A   2       7.398   5.984  15.900  0.00  0.00    +0.000 OA
ATOM     11  HXT ALA A   2       6.563   6.481  15.803  0.00  0.00    +0.000 HD
ENDBRANCH   8  10
ENDBRANCH   7   8
ENDBRANCH   2   7
ENDBRANCH   1   3
BRANCH   1  12
ATOM     12  N   UNK A   1       1.861   4.525  17.819  0.00  0.00    +0.000 NA
ATOM     13  H   UNK A   1       1.025   5.102  17.739  0.00  0.00    +0.000 HD
ATOM     14  H   UNK A   1       1.798   3.955  18.661  0.00  0.00    +0.000 HD
ENDBRANCH   1  12
BRANCH   1  15
ATOM     15  C   UNK A   1       3.158   6.164  19.197  0.00  0.00    +0.000 C 
BRANCH  15  16
ATOM     16  C   UNK A   1       2.319   7.426  19.277  0.00  0.00    +0.000 A 
ATOM     17  C   UNK A   1       1.712   7.808  20.481  0.00  0.00    +0.000 A 
ATOM     18  C   UNK A   1       0.882   8.925  20.542  0.00  0.00    +0.000 A 
ATOM     19  C   UNK A   1       0.699   9.715  19.413  0.00  0.00    +0.000 A 
ATOM     20  C   UNK A   1       1.304   9.355  18.207  0.00  0.00    +0.000 A 
ATOM     21  C   UNK A   1       2.121   8.224  18.143  0.00  0.00    +0.000 A 
BRANCH  19  22
ATOM     22  O   UNK A   1      -0.138  10.799  19.570  0.00  0.00    +0.000 OA
BRANCH  22  23
ATOM     23  C   UNK A   1       0.379  12.068  19.444  0.00  0.00    +0.000 A 
ATOM     24  C   UNK A   1      -0.408  12.971  18.729  0.00  0.00    +0.000 A 
ATOM     25  C   UNK A   1       0.028  14.282  18.538  0.00  0.00    +0.000 A 
ATOM     26  C   UNK A   1       1.255  14.688  19.062  0.00  0.00    +0.000 A 
ATOM     27  C   UNK A   1       2.026  13.798  19.809  0.00  0.00    +0.000 A 
ATOM     28  C   UNK A   1       1.577  12.495  20.024  0.00  0.00    +0.000 A 
ENDBRANCH  22  23
ENDBRANCH  19  22
ENDBRANCH  15  16
ENDBRANCH   1  15
TORSDOF 9
ENDMDL
