MODEL 1
REMARK VINA RESULT:      -7.5      0.000      0.000
REMARK  Name = 
REMARK  7 active torsions:
REMARK  status: ('A' for Active; 'I' for Inactive)
REMARK    1  A    between atoms: C_1  and  C_2
REMARK    2  A    between atoms: C_4  and  C_5
REMARK    3  A    between atoms: C_5  and  S_6
REMARK    4  A    between atoms: S_6  and  C_8
REMARK    5  A    between atoms: C_8  and  C_9
REMARK    6  A    between atoms: N_11  and  C_12
REMARK    7  A    between atoms: C_12  and  C_13
REMARK                            x       y       z     vdW  Elec       q    Type
REMARK                         _______ _______ _______ _____ _____    ______ ____
ROOT
ATOM      1  C   UNL     1       3.966   6.542  17.441  0.00  0.00    +0.000 C 
ATOM      2  O   UNL     1       3.447   7.542  17.932  0.00  0.00    +0.000 OA
ATOM      3  N   UNL     1       3.329   5.322  17.401  0.00  0.00    +0.000 N 
ATOM      4  H   UNL     1       3.649   4.608  16.761  0.00  0.00    +0.000 HD
ENDROOT
BRANCH   1   5
ATOM      5  C   UNL     1       5.358   6.544  16.864  0.00  0.00    +0.000 C 
BRANCH   5   6
ATOM      6  S   UNL     1       6.623   6.222  18.129  0.00  0.00    +0.000 S 
ATOM      7  O   UNL     1       7.740   7.315  17.931  0.00  0.00    +0.000 OA
BRANCH   6   8
ATOM      8  C   UNL     1       7.234   4.642  17.433  0.00  0.00    +0.000 C 
BRANCH   8  12
ATOM      9  C   UNL     1       5.576   3.619  12.718  0.00  0.00    +0.000 C 
ATOM     10  C   UNL     1       6.217   4.074  13.964  0.00  0.00    +0.000 A 
ATOM     11  C   UNL     1       6.081   3.723  15.281  0.00  0.00    +0.000 A 
ATOM     12  C   UNL     1       6.972   4.577  15.970  0.00  0.00    +0.000 A 
ATOM     13  N   UNL     1       7.637   5.370  15.115  0.00  0.00    +0.000 NA
ATOM     14  O   UNL     1       7.151   5.054  13.856  0.00  0.00    +0.000 OA
ENDBRANCH   8  12
ENDBRANCH   6   8
ENDBRANCH   5   6
ENDBRANCH   1   5
BRANCH   3  15
ATOM     15  C   UNL     1       1.982   5.199  17.916  0.00  0.00    +0.000 C 
BRANCH  15  16
ATOM     16  C   UNL     1       1.935   4.327  19.141  0.00  0.00    +0.000 A 
ATOM     17  C   UNL     1       2.343   4.832  20.384  0.00  0.00    +0.000 A 
ATOM     18  C   UNL     1       2.272   4.036  21.529  0.00  0.00    +0.000 A 
ATOM     19  C   UNL     1       1.804   2.727  21.440  0.00  0.00    +0.000 A 
ATOM     20  C   UNL     1       1.414   2.209  20.206  0.00  0.00    +0.000 A 
ATOM     21  C   UNL     1       1.482   3.003  19.059  0.00  0.00    +0.000 A 
ENDBRANCH  15  16
ENDBRANCH   3  15
TORSDOF 6
ENDMDL
MODEL 2
REMARK VINA RESULT:      -7.4      1.681      2.057
REMARK  Name = 
REMARK  7 active torsions:
REMARK  status: ('A' for Active; 'I' for Inactive)
REMARK    1  A    between atoms: C_1  and  C_2
REMARK    2  A    between atoms: C_4  and  C_5
REMARK    3  A    between atoms: C_5  and  S_6
REMARK    4  A    between atoms: S_6  and  C_8
REMARK    5  A    between atoms: C_8  and  C_9
REMARK    6  A    between atoms: N_11  and  C_12
REMARK    7  A    between atoms: C_12  and  C_13
REMARK                            x       y       z     vdW  Elec       q    Type
REMARK                         _______ _______ _______ _____ _____    ______ ____
ROOT
ATOM      1  C   UNL     1       5.155   4.686  18.593  0.00  0.00    +0.000 C 
ATOM      2  O   UNL     1       4.273   4.850  17.754  0.00  0.00    +0.000 OA
ATOM      3  N   UNL     1       5.315   3.503  19.279  0.00  0.00    +0.000 N 
ATOM      4  H   UNL     1       6.191   3.304  19.742  0.00  0.00    +0.000 HD
ENDROOT
BRANCH   1   5
ATOM      5  C   UNL     1       6.128   5.771  18.976  0.00  0.00    +0.000 C 
BRANCH   5   6
ATOM      6  S   UNL     1       7.163   6.287  17.572  0.00  0.00    +0.000 S 
ATOM      7  O   UNL     1       6.205   7.018  16.558  0.00  0.00    +0.000 OA
BRANCH   6   8
ATOM      8  C   UNL     1       7.513   4.610  16.927  0.00  0.00    +0.000 C 
BRANCH   8  12
ATOM      9  C   UNL     1       5.484   3.500  12.379  0.00  0.00    +0.000 C 
ATOM     10  C   UNL     1       6.227   3.972  13.561  0.00  0.00    +0.000 A 
ATOM     11  C   UNL     1       6.182   3.660  14.893  0.00  0.00    +0.000 A 
ATOM     12  C   UNL     1       7.141   4.512  15.490  0.00  0.00    +0.000 A 
ATOM     13  N   UNL     1       7.757   5.265  14.566  0.00  0.00    +0.000 NA
ATOM     14  O   UNL     1       7.171   4.927  13.356  0.00  0.00    +0.000 OA
ENDBRANCH   8  12
ENDBRANCH   6   8
ENDBRANCH   5   6
ENDBRANCH   1   5
BRANCH   3  15
ATOM     15  C   UNL     1       4.445   2.384  18.989  0.00  0.00    +0.000 C 
BRANCH  15  16
ATOM     16  C   UNL     1       3.068   2.590  19.558  0.00  0.00    +0.000 A 
ATOM     17  C   UNL     1       1.944   2.553  18.720  0.00  0.00    +0.000 A 
ATOM     18  C   UNL     1       0.661   2.713  19.248  0.00  0.00    +0.000 A 
ATOM     19  C   UNL     1       0.492   2.923  20.615  0.00  0.00    +0.000 A 
ATOM     20  C   UNL     1       1.603   2.980  21.454  0.00  0.00    +0.000 A 
ATOM     21  C   UNL     1       2.887   2.819  20.929  0.00  0.00    +0.000 A 
ENDBRANCH  15  16
ENDBRANCH   3  15
TORSDOF 6
ENDMDL
MODEL 3
REMARK VINA RESULT:      -7.2      2.912      4.610
REMARK  Name = 
REMARK  7 active torsions:
REMARK  status: ('A' for Active; 'I' for Inactive)
REMARK    1  A    between atoms: C_1  and  C_2
REMARK    2  A    between atoms: C_4  and  C_5
REMARK    3  A    between atoms: C_5  and  S_6
REMARK    4  A    between atoms: S_6  and  C_8
REMARK    5  A    between atoms: C_8  and  C_9
REMARK    6  A    between atoms: N_11  and  C_12
REMARK    7  A    between atoms: C_12  and  C_13
REMARK                            x       y       z     vdW  Elec       q    Type
REMARK                         _______ _______ _______ _____ _____    ______ ____
ROOT
ATOM      1  C   UNL     1       4.106   4.141  18.462  0.00  0.00    +0.000 C 
ATOM      2  O   UNL     1       4.555   3.690  19.513  0.00  0.00    +0.000 OA
ATOM      3  N   UNL     1       3.308   5.262  18.419  0.00  0.00    +0.000 N 
ATOM      4  H   UNL     1       3.188   5.762  17.549  0.00  0.00    +0.000 HD
ENDROOT
BRANCH   1   5
ATOM      5  C   UNL     1       4.359   3.498  17.123  0.00  0.00    +0.000 C 
BRANCH   5   6
ATOM      6  S   UNL     1       5.502   4.475  16.101  0.00  0.00    +0.000 S 
ATOM      7  O   UNL     1       6.008   3.518  14.958  0.00  0.00    +0.000 OA
BRANCH   6   8
ATOM      8  C   UNL     1       6.832   4.636  17.348  0.00  0.00    +0.000 C 
BRANCH   8  12
ATOM      9  C   UNL     1       8.755   9.136  18.794  0.00  0.00    +0.000 C 
ATOM     10  C   UNL     1       8.102   7.966  18.180  0.00  0.00    +0.000 A 
ATOM     11  C   UNL     1       7.967   6.655  18.550  0.00  0.00    +0.000 A 
ATOM     12  C   UNL     1       7.255   6.056  17.486  0.00  0.00    +0.000 A 
ATOM     13  N   UNL     1       6.942   6.962  16.547  0.00  0.00    +0.000 NA
ATOM     14  O   UNL     1       7.485   8.160  16.985  0.00  0.00    +0.000 OA
ENDBRANCH   8  12
ENDBRANCH   6   8
ENDBRANCH   5   6
ENDBRANCH   1   5
BRANCH   3  15
ATOM     15  C   UNL     1       3.005   5.973  19.643  0.00  0.00    +0.000 C 
BRANCH  15  16
ATOM     16  C   UNL     1       2.305   7.276  19.369  0.00  0.00    +0.000 A 
ATOM     17  C   UNL     1       1.632   7.947  20.400  0.00  0.00    +0.000 A 
ATOM     18  C   UNL     1       1.007   9.172  20.159  0.00  0.00    +0.000 A 
ATOM     19  C   UNL     1       1.040   9.730  18.883  0.00  0.00    +0.000 A 
ATOM     20  C   UNL     1       1.690   9.063  17.846  0.00  0.00    +0.000 A 
ATOM     21  C   UNL     1       2.317   7.838  18.085  0.00  0.00    +0.000 A 
ENDBRANCH  15  16
ENDBRANCH   3  15
TORSDOF 6
ENDMDL
MODEL 4
REMARK VINA RESULT:      -7.2      1.509      1.740
REMARK  Name = 
REMARK  7 active torsions:
REMARK  status: ('A' for Active; 'I' for Inactive)
REMARK    1  A    between atoms: C_1  and  C_2
REMARK    2  A    between atoms: C_4  and  C_5
REMARK    3  A    between atoms: C_5  and  S_6
REMARK    4  A    between atoms: S_6  and  C_8
REMARK    5  A    between atoms: C_8  and  C_9
REMARK    6  A    between atoms: N_11  and  C_12
REMARK    7  A    between atoms: C_12  and  C_13
REMARK                            x       y       z     vdW  Elec       q    Type
REMARK                         _______ _______ _______ _____ _____    ______ ____
ROOT
ATOM      1  C   UNL     1       5.111   4.906  18.908  0.00  0.00    +0.000 C 
ATOM      2  O   UNL     1       4.030   5.489  18.931  0.00  0.00    +0.000 OA
ATOM      3  N   UNL     1       5.227   3.573  18.581  0.00  0.00    +0.000 N 
ATOM      4  H   UNL     1       6.123   3.200  18.303  0.00  0.00    +0.000 HD
ENDROOT
BRANCH   1   5
ATOM      5  C   UNL     1       6.410   5.582  19.262  0.00  0.00    +0.000 C 
BRANCH   5   6
ATOM      6  S   UNL     1       7.410   5.954  17.790  0.00  0.00    +0.000 S 
ATOM      7  O   UNL     1       8.032   7.382  18.022  0.00  0.00    +0.000 OA
BRANCH   6   8
ATOM      8  C   UNL     1       6.018   6.117  16.612  0.00  0.00    +0.000 C 
BRANCH   8  12
ATOM      9  C   UNL     1       5.950   3.256  12.388  0.00  0.00    +0.000 C 
ATOM     10  C   UNL     1       6.213   4.126  13.548  0.00  0.00    +0.000 A 
ATOM     11  C   UNL     1       5.469   4.509  14.631  0.00  0.00    +0.000 A 
ATOM     12  C   UNL     1       6.312   5.390  15.347  0.00  0.00    +0.000 A 
ATOM     13  N   UNL     1       7.510   5.501  14.752  0.00  0.00    +0.000 NA
ATOM     14  O   UNL     1       7.438   4.710  13.616  0.00  0.00    +0.000 OA
ENDBRANCH   8  12
ENDBRANCH   6   8
ENDBRANCH   5   6
ENDBRANCH   1   5
BRANCH   3  15
ATOM     15  C   UNL     1       4.047   2.821  18.212  0.00  0.00    +0.000 C 
BRANCH  15  16
ATOM     16  C   UNL     1       3.031   2.804  19.320  0.00  0.00    +0.000 A 
ATOM     17  C   UNL     1       3.430   2.549  20.640  0.00  0.00    +0.000 A 
ATOM     18  C   UNL     1       2.496   2.562  21.678  0.00  0.00    +0.000 A 
ATOM     19  C   UNL     1       1.154   2.818  21.404  0.00  0.00    +0.000 A 
ATOM     20  C   UNL     1       0.743   3.054  20.093  0.00  0.00    +0.000 A 
ATOM     21  C   UNL     1       1.676   3.043  19.054  0.00  0.00    +0.000 A 
ENDBRANCH  15  16
ENDBRANCH   3  15
TORSDOF 6
ENDMDL
MODEL 5
REMARK VINA RESULT:      -7.1      3.139      6.357
REMARK  Name = 
REMARK  7 active torsions:
REMARK  status: ('A' for Active; 'I' for Inactive)
REMARK    1  A    between atoms: C_1  and  C_2
REMARK    2  A    between atoms: C_4  and  C_5
REMARK    3  A    between atoms: C_5  and  S_6
REMARK    4  A    between atoms: S_6  and  C_8
REMARK    5  A    between atoms: C_8  and  C_9
REMARK    6  A    between atoms: N_11  and  C_12
REMARK    7  A    between atoms: C_12  and  C_13
REMARK                            x       y       z     vdW  Elec       q    Type
REMARK                         _______ _______ _______ _____ _____    ______ ____
ROOT
ATOM      1  C   UNL     1       3.243   2.751  18.069  0.00  0.00    +0.000 C 
ATOM      2  O   UNL     1       2.557   2.820  17.053  0.00  0.00    +0.000 OA
ATOM      3  N   UNL     1       4.524   3.254  18.134  0.00  0.00    +0.000 N 
ATOM      4  H   UNL     1       4.949   3.433  19.032  0.00  0.00    +0.000 HD
ENDROOT
BRANCH   1   5
ATOM      5  C   UNL     1       2.764   2.087  19.334  0.00  0.00    +0.000 C 
BRANCH   5   6
ATOM      6  S   UNL     1       2.914   3.181  20.779  0.00  0.00    +0.000 S 
ATOM      7  O   UNL     1       2.675   2.279  22.047  0.00  0.00    +0.000 OA
BRANCH   6   8
ATOM      8  C   UNL     1       1.396   4.158  20.475  0.00  0.00    +0.000 C 
BRANCH   8  12
ATOM      9  C   UNL     1       2.834   8.307  17.875  0.00  0.00    +0.000 C 
ATOM     10  C   UNL     1       2.387   7.270  18.822  0.00  0.00    +0.000 A 
ATOM     11  C   UNL     1       2.263   5.908  18.744  0.00  0.00    +0.000 A 
ATOM     12  C   UNL     1       1.739   5.527  20.001  0.00  0.00    +0.000 A 
ATOM     13  N   UNL     1       1.593   6.591  20.805  0.00  0.00    +0.000 NA
ATOM     14  O   UNL     1       1.994   7.686  20.054  0.00  0.00    +0.000 OA
ENDBRANCH   8  12
ENDBRANCH   6   8
ENDBRANCH   5   6
ENDBRANCH   1   5
BRANCH   3  15
ATOM     15  C   UNL     1       5.088   3.925  16.982  0.00  0.00    +0.000 C 
BRANCH  15  16
ATOM     16  C   UNL     1       6.012   5.040  17.389  0.00  0.00    +0.000 A 
ATOM     17  C   UNL     1       6.898   4.867  18.462  0.00  0.00    +0.000 A 
ATOM     18  C   UNL     1       7.780   5.888  18.824  0.00  0.00    +0.000 A 
ATOM     19  C   UNL     1       7.775   7.093  18.124  0.00  0.00    +0.000 A 
ATOM     20  C   UNL     1       6.885   7.282  17.068  0.00  0.00    +0.000 A 
ATOM     21  C   UNL     1       6.003   6.263  16.703  0.00  0.00    +0.000 A 
ENDBRANCH  15  16
ENDBRANCH   3  15
TORSDOF 6
ENDMDL
MODEL 6
REMARK VINA RESULT:      -7.1      1.579      1.849
REMARK  Name = 
REMARK  7 active torsions:
REMARK  status: ('A' for Active; 'I' for Inactive)
REMARK    1  A    between atoms: C_1  and  C_2
REMARK    2  A    between atoms: C_4  and  C_5
REMARK    3  A    between atoms: C_5  and  S_6
REMARK    4  A    between atoms: S_6  and  C_8
REMARK    5  A    between atoms: C_8  and  C_9
REMARK    6  A    between atoms: N_11  and  C_12
REMARK    7  A    between atoms: C_12  and  C_13
REMARK                            x       y       z     vdW  Elec       q    Type
REMARK                         _______ _______ _______ _____ _____    ______ ____
ROOT
ATOM      1  C   UNL     1       4.839   6.066  18.615  0.00  0.00    +0.000 C 
ATOM      2  O   UNL     1       5.202   5.504  19.645  0.00  0.00    +0.000 OA
ATOM      3  N   UNL     1       3.550   6.514  18.431  0.00  0.00    +0.000 N 
ATOM      4  H   UNL     1       3.354   7.200  17.716  0.00  0.00    +0.000 HD
ENDROOT
BRANCH   1   5
ATOM      5  C   UNL     1       5.757   6.293  17.442  0.00  0.00    +0.000 C 
BRANCH   5   6
ATOM      6  S   UNL     1       6.564   4.756  16.898  0.00  0.00    +0.000 S 
ATOM      7  O   UNL     1       7.597   4.373  18.023  0.00  0.00    +0.000 OA
BRANCH   6   8
ATOM      8  C   UNL     1       7.487   5.478  15.491  0.00  0.00    +0.000 C 
BRANCH   8  12
ATOM      9  C   UNL     1       5.374   2.692  11.774  0.00  0.00    +0.000 C 
ATOM     10  C   UNL     1       6.140   3.582  12.665  0.00  0.00    +0.000 A 
ATOM     11  C   UNL     1       6.115   3.822  14.013  0.00  0.00    +0.000 A 
ATOM     12  C   UNL     1       7.090   4.826  14.213  0.00  0.00    +0.000 A 
ATOM     13  N   UNL     1       7.697   5.145  13.060  0.00  0.00    +0.000 NA
ATOM     14  O   UNL     1       7.089   4.365  12.088  0.00  0.00    +0.000 OA
ENDBRANCH   8  12
ENDBRANCH   6   8
ENDBRANCH   5   6
ENDBRANCH   1   5
BRANCH   3  15
ATOM     15  C   UNL     1       2.580   6.361  19.493  0.00  0.00    +0.000 C 
BRANCH  15  16
ATOM     16  C   UNL     1       1.990   4.977  19.511  0.00  0.00    +0.000 A 
ATOM     17  C   UNL     1       1.643   4.373  20.727  0.00  0.00    +0.000 A 
ATOM     18  C   UNL     1       1.066   3.101  20.747  0.00  0.00    +0.000 A 
ATOM     19  C   UNL     1       0.842   2.419  19.553  0.00  0.00    +0.000 A 
ATOM     20  C   UNL     1       1.201   3.004  18.339  0.00  0.00    +0.000 A 
ATOM     21  C   UNL     1       1.776   4.275  18.316  0.00  0.00    +0.000 A 
ENDBRANCH  15  16
ENDBRANCH   3  15
TORSDOF 6
ENDMDL
MODEL 7
REMARK VINA RESULT:      -7.1      3.177      4.585
REMARK  Name = 
REMARK  7 active torsions:
REMARK  status: ('A' for Active; 'I' for Inactive)
REMARK    1  A    between atoms: C_1  and  C_2
REMARK    2  A    between atoms: C_4  and  C_5
REMARK    3  A    between atoms: C_5  and  S_6
REMARK    4  A    between atoms: S_6  and  C_8
REMARK    5  A    between atoms: C_8  and  C_9
REMARK    6  A    between atoms: N_11  and  C_12
REMARK    7  A    between atoms: C_12  and  C_13
REMARK                            x       y       z     vdW  Elec       q    Type
REMARK                         _______ _______ _______ _____ _____    ______ ____
ROOT
ATOM      1  C   UNL     1       1.815   4.348  20.487  0.00  0.00    +0.000 C 
ATOM      2  O   UNL     1       0.594   4.214  20.491  0.00  0.00    +0.000 OA
ATOM      3  N   UNL     1       2.428   5.563  20.700  0.00  0.00    +0.000 N 
ATOM      4  H   UNL     1       3.402   5.595  20.965  0.00  0.00    +0.000 HD
ENDROOT
BRANCH   1   5
ATOM      5  C   UNL     1       2.761   3.206  20.221  0.00  0.00    +0.000 C 
BRANCH   5   6
ATOM      6  S   UNL     1       3.484   3.291  18.555  0.00  0.00    +0.000 S 
ATOM      7  O   UNL     1       3.742   1.805  18.103  0.00  0.00    +0.000 OA
BRANCH   6   8
ATOM      8  C   UNL     1       5.086   4.029  19.047  0.00  0.00    +0.000 C 
BRANCH   8  12
ATOM      9  C   UNL     1       6.995   4.880  14.392  0.00  0.00    +0.000 C 
ATOM     10  C   UNL     1       6.687   4.638  15.813  0.00  0.00    +0.000 A 
ATOM     11  C   UNL     1       5.530   4.384  16.500  0.00  0.00    +0.000 A 
ATOM     12  C   UNL     1       5.934   4.289  17.852  0.00  0.00    +0.000 A 
ATOM     13  N   UNL     1       7.263   4.436  17.970  0.00  0.00    +0.000 NA
ATOM     14  O   UNL     1       7.729   4.665  16.684  0.00  0.00    +0.000 OA
ENDBRANCH   8  12
ENDBRANCH   6   8
ENDBRANCH   5   6
ENDBRANCH   1   5
BRANCH   3  15
ATOM     15  C   UNL     1       1.621   6.732  20.978  0.00  0.00    +0.000 C 
BRANCH  15  16
ATOM     16  C   UNL     1       1.737   7.758  19.884  0.00  0.00    +0.000 A 
ATOM     17  C   UNL     1       2.456   7.466  18.716  0.00  0.00    +0.000 A 
ATOM     18  C   UNL     1       2.540   8.402  17.683  0.00  0.00    +0.000 A 
ATOM     19  C   UNL     1       1.918   9.642  17.815  0.00  0.00    +0.000 A 
ATOM     20  C   UNL     1       1.217   9.949  18.980  0.00  0.00    +0.000 A 
ATOM     21  C   UNL     1       1.129   9.014  20.013  0.00  0.00    +0.000 A 
ENDBRANCH  15  16
ENDBRANCH   3  15
TORSDOF 6
ENDMDL
MODEL 8
REMARK VINA RESULT:      -7.1      1.652      2.100
REMARK  Name = 
REMARK  7 active torsions:
REMARK  status: ('A' for Active; 'I' for Inactive)
REMARK    1  A    between atoms: C_1  and  C_2
REMARK    2  A    between atoms: C_4  and  C_5
REMARK    3  A    between atoms: C_5  and  S_6
REMARK    4  A    between atoms: S_6  and  C_8
REMARK    5  A    between atoms: C_8  and  C_9
REMARK    6  A    between atoms: N_11  and  C_12
REMARK    7  A    between atoms: C_12  and  C_13
REMARK                            x       y       z     vdW  Elec       q    Type
REMARK                         _______ _______ _______ _____ _____    ______ ____
ROOT
ATOM      1  C   UNL     1       4.386   4.934  17.315  0.00  0.00    +0.000 C 
ATOM      2  O   UNL     1       4.109   3.863  16.780  0.00  0.00    +0.000 OA
ATOM      3  N   UNL     1       3.443   5.710  17.951  0.00  0.00    +0.000 N 
ATOM      4  H   UNL     1       3.736   6.422  18.605  0.00  0.00    +0.000 HD
ENDROOT
BRANCH   1   5
ATOM      5  C   UNL     1       5.775   5.517  17.301  0.00  0.00    +0.000 C 
BRANCH   5   6
ATOM      6  S   UNL     1       6.992   4.369  16.588  0.00  0.00    +0.000 S 
ATOM      7  O   UNL     1       8.227   4.366  17.564  0.00  0.00    +0.000 OA
BRANCH   6   8
ATOM      8  C   UNL     1       7.418   5.381  15.123  0.00  0.00    +0.000 C 
BRANCH   8  12
ATOM      9  C   UNL     1       5.230   2.538  11.494  0.00  0.00    +0.000 C 
ATOM     10  C   UNL     1       6.029   3.424  12.360  0.00  0.00    +0.000 A 
ATOM     11  C   UNL     1       5.981   3.739  13.692  0.00  0.00    +0.000 A 
ATOM     12  C   UNL     1       7.016   4.686  13.870  0.00  0.00    +0.000 A 
ATOM     13  N   UNL     1       7.676   4.900  12.722  0.00  0.00    +0.000 NA
ATOM     14  O   UNL     1       7.045   4.109  11.773  0.00  0.00    +0.000 OA
ENDBRANCH   8  12
ENDBRANCH   6   8
ENDBRANCH   5   6
ENDBRANCH   1   5
BRANCH   3  15
ATOM     15  C   UNL     1       2.075   5.248  18.037  0.00  0.00    +0.000 C 
BRANCH  15  16
ATOM     16  C   UNL     1       1.855   4.389  19.252  0.00  0.00    +0.000 A 
ATOM     17  C   UNL     1       1.062   3.235  19.168  0.00  0.00    +0.000 A 
ATOM     18  C   UNL     1       0.881   2.417  20.285  0.00  0.00    +0.000 A 
ATOM     19  C   UNL     1       1.480   2.752  21.498  0.00  0.00    +0.000 A 
ATOM     20  C   UNL     1       2.255   3.906  21.597  0.00  0.00    +0.000 A 
ATOM     21  C   UNL     1       2.439   4.725  20.482  0.00  0.00    +0.000 A 
ENDBRANCH  15  16
ENDBRANCH   3  15
TORSDOF 6
ENDMDL
MODEL 9
REMARK VINA RESULT:      -7.1      1.579      2.093
REMARK  Name = 
REMARK  7 active torsions:
REMARK  status: ('A' for Active; 'I' for Inactive)
REMARK    1  A    between atoms: C_1  and  C_2
REMARK    2  A    between atoms: C_4  and  C_5
REMARK    3  A    between atoms: C_5  and  S_6
REMARK    4  A    between atoms: S_6  and  C_8
REMARK    5  A    between atoms: C_8  and  C_9
REMARK    6  A    between atoms: N_11  and  C_12
REMARK    7  A    between atoms: C_12  and  C_13
REMARK                            x       y       z     vdW  Elec       q    Type
REMARK                         _______ _______ _______ _____ _____    ______ ____
ROOT
ATOM      1  C   UNL     1       4.979   6.494  17.158  0.00  0.00    +0.000 C 
ATOM      2  O   UNL     1       4.481   7.095  16.210  0.00  0.00    +0.000 OA
ATOM      3  N   UNL     1       4.227   6.006  18.203  0.00  0.00    +0.000 N 
ATOM      4  H   UNL     1       4.610   5.293  18.808  0.00  0.00    +0.000 HD
ENDROOT
BRANCH   1   5
ATOM      5  C   UNL     1       6.462   6.256  17.286  0.00  0.00    +0.000 C 
BRANCH   5   6
ATOM      6  S   UNL     1       6.965   4.668  16.556  0.00  0.00    +0.000 S 
ATOM      7  O   UNL     1       8.179   4.148  17.413  0.00  0.00    +0.000 OA
BRANCH   6   8
ATOM      8  C   UNL     1       7.617   5.344  14.985  0.00  0.00    +0.000 C 
BRANCH   8  12
ATOM      9  C   UNL     1       4.523   2.972  11.693  0.00  0.00    +0.000 C 
ATOM     10  C   UNL     1       5.591   3.639  12.458  0.00  0.00    +0.000 A 
ATOM     11  C   UNL     1       5.682   4.114  13.739  0.00  0.00    +0.000 A 
ATOM     12  C   UNL     1       6.977   4.675  13.819  0.00  0.00    +0.000 A 
ATOM     13  N   UNL     1       7.644   4.513  12.666  0.00  0.00    +0.000 NA
ATOM     14  O   UNL     1       6.763   3.869  11.811  0.00  0.00    +0.000 OA
ENDBRANCH   8  12
ENDBRANCH   6   8
ENDBRANCH   5   6
ENDBRANCH   1   5
BRANCH   3  15
ATOM     15  C   UNL     1       2.789   6.165  18.185  0.00  0.00    +0.000 C 
BRANCH  15  16
ATOM     16  C   UNL     1       2.095   5.004  18.843  0.00  0.00    +0.000 A 
ATOM     17  C   UNL     1       1.601   3.945  18.068  0.00  0.00    +0.000 A 
ATOM     18  C   UNL     1       0.983   2.850  18.676  0.00  0.00    +0.000 A 
ATOM     19  C   UNL     1       0.844   2.810  20.062  0.00  0.00    +0.000 A 
ATOM     20  C   UNL     1       1.315   3.866  20.840  0.00  0.00    +0.000 A 
ATOM     21  C   UNL     1       1.934   4.961  20.235  0.00  0.00    +0.000 A 
ENDBRANCH  15  16
ENDBRANCH   3  15
TORSDOF 6
ENDMDL
