MODEL 1
REMARK VINA RESULT:      -5.3      0.000      0.000
REMARK  Name = 
REMARK  9 active torsions:
REMARK  status: ('A' for Active; 'I' for Inactive)
REMARK    1  A    between atoms: C_1  and  C_2
REMARK    2  A    between atoms: C_2  and  C_3
REMARK    3  A    between atoms: C_3  and  N_4
REMARK    4  A    between atoms: C_3  and  C_5
REMARK    5  A    between atoms: C_3  and  C_10
REMARK    6  A    between atoms: C_5  and  C_6
REMARK    7  A    between atoms: C_6  and  C_7
REMARK    8  A    between atoms: C_7  and  O_9
REMARK    9  A    between atoms: C_10  and  O_12
REMARK                            x       y       z     vdW  Elec       q    Type
REMARK                         _______ _______ _______ _____ _____    ______ ____
ROOT
ATOM      1  C   UNL     1       4.238   3.996  18.148  0.00  0.00    +0.000 C 
ENDROOT
BRANCH   1   2
ATOM      2  N   UNL     1       5.445   3.557  18.898  0.00  0.00    +0.000 NA
ATOM      3  H   UNL     1       5.754   2.665  18.495  0.00  0.00    +0.000 HD
ATOM      4  H   UNL     1       5.141   3.267  19.834  0.00  0.00    +0.000 HD
ENDBRANCH   1   2
BRANCH   1   6
ATOM      5  C   UNL     1       2.659   6.052  18.354  0.00  0.00    +0.000 C 
ATOM      6  C   UNL     1       3.390   4.914  19.064  0.00  0.00    +0.000 C 
ENDBRANCH   1   6
BRANCH   1   7
ATOM      7  C   UNL     1       3.424   2.730  17.744  0.00  0.00    +0.000 C 
ATOM      8  O   UNL     1       2.340   2.787  17.170  0.00  0.00    +0.000 OA
BRANCH   7   9
ATOM      9  O   UNL     1       3.996   1.544  18.039  0.00  0.00    +0.000 OA
ATOM     10  H   UNL     1       4.775   1.581  18.624  0.00  0.00    +0.000 HD
ENDBRANCH   7   9
ENDBRANCH   1   7
BRANCH   1  11
ATOM     11  C   UNL     1       4.734   4.723  16.872  0.00  0.00    +0.000 C 
BRANCH  11  12
ATOM     12  C   UNL     1       5.727   3.920  16.020  0.00  0.00    +0.000 C 
BRANCH  12  13
ATOM     13  C   UNL     1       7.088   4.571  15.978  0.00  0.00    +0.000 C 
ATOM     14  O   UNL     1       7.446   5.404  15.163  0.00  0.00    +0.000 OA
BRANCH  13  15
ATOM     15  O   UNL     1       7.890   4.148  16.985  0.00  0.00    +0.000 OA
ATOM     16  H   UNL     1       7.555   4.366  17.875  0.00  0.00    +0.000 HD
ENDBRANCH  13  15
ENDBRANCH  12  13
ENDBRANCH  11  12
ENDBRANCH   1  11
TORSDOF 8
ENDMDL
MODEL 2
REMARK VINA RESULT:      -5.2      2.716      4.038
REMARK  Name = 
REMARK  9 active torsions:
REMARK  status: ('A' for Active; 'I' for Inactive)
REMARK    1  A    between atoms: C_1  and  C_2
REMARK    2  A    between atoms: C_2  and  C_3
REMARK    3  A    between atoms: C_3  and  N_4
REMARK    4  A    between atoms: C_3  and  C_5
REMARK    5  A    between atoms: C_3  and  C_10
REMARK    6  A    between atoms: C_5  and  C_6
REMARK    7  A    between atoms: C_6  and  C_7
REMARK    8  A    between atoms: C_7  and  O_9
REMARK    9  A    between atoms: C_10  and  O_12
REMARK                            x       y       z     vdW  Elec       q    Type
REMARK                         _______ _______ _______ _____ _____    ______ ____
ROOT
ATOM      1  C   UNL     1       6.379   4.819  16.250  0.00  0.00    +0.000 C 
ENDROOT
BRANCH   1   2
ATOM      2  N   UNL     1       5.526   3.674  16.668  0.00  0.00    +0.000 NA
ATOM      3  H   UNL     1       6.140   2.861  16.797  0.00  0.00    +0.000 HD
ATOM      4  H   UNL     1       4.971   3.386  15.854  0.00  0.00    +0.000 HD
ENDBRANCH   1   2
BRANCH   1   6
ATOM      5  C   UNL     1       4.216   5.992  17.091  0.00  0.00    +0.000 C 
ATOM      6  C   UNL     1       5.544   6.121  16.346  0.00  0.00    +0.000 C 
ENDBRANCH   1   6
BRANCH   1   7
ATOM      7  C   UNL     1       6.841   4.577  14.782  0.00  0.00    +0.000 C 
ATOM      8  O   UNL     1       7.644   5.305  14.205  0.00  0.00    +0.000 OA
BRANCH   7   9
ATOM      9  O   UNL     1       6.323   3.490  14.174  0.00  0.00    +0.000 OA
ATOM     10  H   UNL     1       5.487   3.629  13.692  0.00  0.00    +0.000 HD
ENDBRANCH   7   9
ENDBRANCH   1   7
BRANCH   1  11
ATOM     11  C   UNL     1       7.613   4.833  17.187  0.00  0.00    +0.000 C 
BRANCH  11  12
ATOM     12  C   UNL     1       7.587   5.922  18.269  0.00  0.00    +0.000 C 
BRANCH  12  13
ATOM     13  C   UNL     1       7.098   5.390  19.593  0.00  0.00    +0.000 C 
ATOM     14  O   UNL     1       6.005   4.888  19.792  0.00  0.00    +0.000 OA
BRANCH  13  15
ATOM     15  O   UNL     1       8.035   5.498  20.566  0.00  0.00    +0.000 OA
ATOM     16  H   UNL     1       7.749   6.029  21.333  0.00  0.00    +0.000 HD
ENDBRANCH  13  15
ENDBRANCH  12  13
ENDBRANCH  11  12
ENDBRANCH   1  11
TORSDOF 8
ENDMDL
MODEL 3
REMARK VINA RESULT:      -5.1      2.596      3.374
REMARK  Name = 
REMARK  9 active torsions:
REMARK  status: ('A' for Active; 'I' for Inactive)
REMARK    1  A    between atoms: C_1  and  C_2
REMARK    2  A    between atoms: C_2  and  C_3
REMARK    3  A    between atoms: C_3  and  N_4
REMARK    4  A    between atoms: C_3  and  C_5
REMARK    5  A    between atoms: C_3  and  C_10
REMARK    6  A    between atoms: C_5  and  C_6
REMARK    7  A    between atoms: C_6  and  C_7
REMARK    8  A    between atoms: C_7  and  O_9
REMARK    9  A    between atoms: C_10  and  O_12
REMARK                            x       y       z     vdW  Elec       q    Type
REMARK                         _______ _______ _______ _____ _____    ______ ____
ROOT
ATOM      1  C   UNL     1       7.144   5.278  17.749  0.00  0.00    +0.000 C 
ENDROOT
BRANCH   1   2
ATOM      2  N   UNL     1       8.114   4.155  17.845  0.00  0.00    +0.000 NA
ATOM      3  H   UNL     1       7.666   3.402  18.380  0.00  0.00    +0.000 HD
ATOM      4  H   UNL     1       8.863   4.444  18.485  0.00  0.00    +0.000 HD
ENDBRANCH   1   2
BRANCH   1   6
ATOM      5  C   UNL     1       7.719   7.812  17.637  0.00  0.00    +0.000 C 
ATOM      6  C   UNL     1       7.750   6.519  18.452  0.00  0.00    +0.000 C 
ENDBRANCH   1   6
BRANCH   1   7
ATOM      7  C   UNL     1       5.822   4.847  18.453  0.00  0.00    +0.000 C 
ATOM      8  O   UNL     1       4.803   5.530  18.437  0.00  0.00    +0.000 OA
BRANCH   7   9
ATOM      9  O   UNL     1       5.850   3.647  19.071  0.00  0.00    +0.000 OA
ATOM     10  H   UNL     1       6.708   3.383  19.450  0.00  0.00    +0.000 HD
ENDBRANCH   7   9
ENDBRANCH   1   7
BRANCH   1  11
ATOM     11  C   UNL     1       6.875   5.519  16.242  0.00  0.00    +0.000 C 
BRANCH  11  12
ATOM     12  C   UNL     1       6.420   4.276  15.464  0.00  0.00    +0.000 C 
BRANCH  12  13
ATOM     13  C   UNL     1       6.671   4.416  13.983  0.00  0.00    +0.000 C 
ATOM     14  O   UNL     1       6.114   3.775  13.109  0.00  0.00    +0.000 OA
BRANCH  13  15
ATOM     15  O   UNL     1       7.585   5.378  13.707  0.00  0.00    +0.000 OA
ATOM     16  H   UNL     1       8.508   5.059  13.708  0.00  0.00    +0.000 HD
ENDBRANCH  13  15
ENDBRANCH  12  13
ENDBRANCH  11  12
ENDBRANCH   1  11
TORSDOF 8
ENDMDL
MODEL 4
REMARK VINA RESULT:      -5.1      0.484      1.220
REMARK  Name = 
REMARK  9 active torsions:
REMARK  status: ('A' for Active; 'I' for Inactive)
REMARK    1  A    between atoms: C_1  and  C_2
REMARK    2  A    between atoms: C_2  and  C_3
REMARK    3  A    between atoms: C_3  and  N_4
REMARK    4  A    between atoms: C_3  and  C_5
REMARK    5  A    between atoms: C_3  and  C_10
REMARK    6  A    between atoms: C_5  and  C_6
REMARK    7  A    between atoms: C_6  and  C_7
REMARK    8  A    between atoms: C_7  and  O_9
REMARK    9  A    between atoms: C_10  and  O_12
REMARK                            x       y       z     vdW  Elec       q    Type
REMARK                         _______ _______ _______ _____ _____    ______ ____
ROOT
ATOM      1  C   UNL     1       4.240   4.036  18.208  0.00  0.00    +0.000 C 
ENDROOT
BRANCH   1   2
ATOM      2  N   UNL     1       5.413   3.500  18.950  0.00  0.00    +0.000 NA
ATOM      3  H   UNL     1       6.043   4.286  19.145  0.00  0.00    +0.000 HD
ATOM      4  H   UNL     1       5.971   2.946  18.291  0.00  0.00    +0.000 HD
ENDBRANCH   1   2
BRANCH   1   6
ATOM      5  C   UNL     1       2.740   4.170  20.328  0.00  0.00    +0.000 C 
ATOM      6  C   UNL     1       3.404   4.916  19.172  0.00  0.00    +0.000 C 
ENDBRANCH   1   6
BRANCH   1   7
ATOM      7  C   UNL     1       3.392   2.834  17.696  0.00  0.00    +0.000 C 
ATOM      8  O   UNL     1       2.345   2.973  17.070  0.00  0.00    +0.000 OA
BRANCH   7   9
ATOM      9  O   UNL     1       3.891   1.608  17.957  0.00  0.00    +0.000 OA
ATOM     10  H   UNL     1       3.235   0.910  18.135  0.00  0.00    +0.000 HD
ENDBRANCH   7   9
ENDBRANCH   1   7
BRANCH   1  11
ATOM     11  C   UNL     1       4.792   4.835  17.001  0.00  0.00    +0.000 C 
BRANCH  11  12
ATOM     12  C   UNL     1       5.757   4.051  16.099  0.00  0.00    +0.000 C 
BRANCH  12  13
ATOM     13  C   UNL     1       7.169   4.574  16.195  0.00  0.00    +0.000 C 
ATOM     14  O   UNL     1       7.981   4.259  17.048  0.00  0.00    +0.000 OA
BRANCH  13  15
ATOM     15  O   UNL     1       7.467   5.433  15.191  0.00  0.00    +0.000 OA
ATOM     16  H   UNL     1       8.046   5.052  14.504  0.00  0.00    +0.000 HD
ENDBRANCH  13  15
ENDBRANCH  12  13
ENDBRANCH  11  12
ENDBRANCH   1  11
TORSDOF 8
ENDMDL
MODEL 5
REMARK VINA RESULT:      -5.1      1.756      2.377
REMARK  Name = 
REMARK  9 active torsions:
REMARK  status: ('A' for Active; 'I' for Inactive)
REMARK    1  A    between atoms: C_1  and  C_2
REMARK    2  A    between atoms: C_2  and  C_3
REMARK    3  A    between atoms: C_3  and  N_4
REMARK    4  A    between atoms: C_3  and  C_5
REMARK    5  A    between atoms: C_3  and  C_10
REMARK    6  A    between atoms: C_5  and  C_6
REMARK    7  A    between atoms: C_6  and  C_7
REMARK    8  A    between atoms: C_7  and  O_9
REMARK    9  A    between atoms: C_10  and  O_12
REMARK                            x       y       z     vdW  Elec       q    Type
REMARK                         _______ _______ _______ _____ _____    ______ ____
ROOT
ATOM      1  C   UNL     1       4.212   4.856  18.199  0.00  0.00    +0.000 C 
ENDROOT
BRANCH   1   2
ATOM      2  N   UNL     1       3.591   6.050  18.835  0.00  0.00    +0.000 NA
ATOM      3  H   UNL     1       2.587   6.027  18.625  0.00  0.00    +0.000 HD
ATOM      4  H   UNL     1       3.894   6.876  18.308  0.00  0.00    +0.000 HD
ENDBRANCH   1   2
BRANCH   1   6
ATOM      5  C   UNL     1       1.711   4.315  17.733  0.00  0.00    +0.000 C 
ATOM      6  C   UNL     1       3.118   3.778  17.994  0.00  0.00    +0.000 C 
ENDBRANCH   1   6
BRANCH   1   7
ATOM      7  C   UNL     1       5.330   4.323  19.143  0.00  0.00    +0.000 C 
ATOM      8  O   UNL     1       6.190   5.047  19.637  0.00  0.00    +0.000 OA
BRANCH   7   9
ATOM      9  O   UNL     1       5.289   3.002  19.417  0.00  0.00    +0.000 OA
ATOM     10  H   UNL     1       4.503   2.693  19.904  0.00  0.00    +0.000 HD
ENDBRANCH   7   9
ENDBRANCH   1   7
BRANCH   1  11
ATOM     11  C   UNL     1       4.840   5.329  16.864  0.00  0.00    +0.000 C 
BRANCH  11  12
ATOM     12  C   UNL     1       5.683   4.269  16.140  0.00  0.00    +0.000 C 
BRANCH  12  13
ATOM     13  C   UNL     1       7.143   4.643  16.098  0.00  0.00    +0.000 C 
ATOM     14  O   UNL     1       7.996   4.247  16.874  0.00  0.00    +0.000 OA
BRANCH  13  15
ATOM     15  O   UNL     1       7.432   5.466  15.060  0.00  0.00    +0.000 OA
ATOM     16  H   UNL     1       6.673   5.998  14.755  0.00  0.00    +0.000 HD
ENDBRANCH  13  15
ENDBRANCH  12  13
ENDBRANCH  11  12
ENDBRANCH   1  11
TORSDOF 8
ENDMDL
MODEL 6
REMARK VINA RESULT:      -5.1      1.488      1.727
REMARK  Name = 
REMARK  9 active torsions:
REMARK  status: ('A' for Active; 'I' for Inactive)
REMARK    1  A    between atoms: C_1  and  C_2
REMARK    2  A    between atoms: C_2  and  C_3
REMARK    3  A    between atoms: C_3  and  N_4
REMARK    4  A    between atoms: C_3  and  C_5
REMARK    5  A    between atoms: C_3  and  C_10
REMARK    6  A    between atoms: C_5  and  C_6
REMARK    7  A    between atoms: C_6  and  C_7
REMARK    8  A    between atoms: C_7  and  O_9
REMARK    9  A    between atoms: C_10  and  O_12
REMARK                            x       y       z     vdW  Elec       q    Type
REMARK                         _______ _______ _______ _____ _____    ______ ____
ROOT
ATOM      1  C   UNL     1       3.531   3.946  18.391  0.00  0.00    +0.000 C 
ENDROOT
BRANCH   1   2
ATOM      2  N   UNL     1       4.045   4.910  19.401  0.00  0.00    +0.000 NA
ATOM      3  H   UNL     1       4.673   5.561  18.917  0.00  0.00    +0.000 HD
ATOM      4  H   UNL     1       4.700   4.404  20.008  0.00  0.00    +0.000 HD
ENDBRANCH   1   2
BRANCH   1   6
ATOM      5  C   UNL     1       1.266   4.066  19.663  0.00  0.00    +0.000 C 
ATOM      6  C   UNL     1       1.989   4.080  18.317  0.00  0.00    +0.000 C 
ENDBRANCH   1   6
BRANCH   1   7
ATOM      7  C   UNL     1       3.931   2.508  18.837  0.00  0.00    +0.000 C 
ATOM      8  O   UNL     1       3.322   1.503  18.481  0.00  0.00    +0.000 OA
BRANCH   7   9
ATOM      9  O   UNL     1       5.019   2.419  19.631  0.00  0.00    +0.000 OA
ATOM     10  H   UNL     1       4.874   2.609  20.575  0.00  0.00    +0.000 HD
ENDBRANCH   7   9
ENDBRANCH   1   7
BRANCH   1  11
ATOM     11  C   UNL     1       4.223   4.284  17.046  0.00  0.00    +0.000 C 
BRANCH  11  12
ATOM     12  C   UNL     1       5.352   5.319  17.147  0.00  0.00    +0.000 C 
BRANCH  12  13
ATOM     13  C   UNL     1       6.712   4.667  17.194  0.00  0.00    +0.000 C 
ATOM     14  O   UNL     1       7.495   4.601  16.263  0.00  0.00    +0.000 OA
BRANCH  13  15
ATOM     15  O   UNL     1       7.001   4.173  18.423  0.00  0.00    +0.000 OA
ATOM     16  H   UNL     1       6.519   4.612  19.149  0.00  0.00    +0.000 HD
ENDBRANCH  13  15
ENDBRANCH  12  13
ENDBRANCH  11  12
ENDBRANCH   1  11
TORSDOF 8
ENDMDL
MODEL 7
REMARK VINA RESULT:      -5.0      1.142      1.268
REMARK  Name = 
REMARK  9 active torsions:
REMARK  status: ('A' for Active; 'I' for Inactive)
REMARK    1  A    between atoms: C_1  and  C_2
REMARK    2  A    between atoms: C_2  and  C_3
REMARK    3  A    between atoms: C_3  and  N_4
REMARK    4  A    between atoms: C_3  and  C_5
REMARK    5  A    between atoms: C_3  and  C_10
REMARK    6  A    between atoms: C_5  and  C_6
REMARK    7  A    between atoms: C_6  and  C_7
REMARK    8  A    between atoms: C_7  and  O_9
REMARK    9  A    between atoms: C_10  and  O_12
REMARK                            x       y       z     vdW  Elec       q    Type
REMARK                         _______ _______ _______ _____ _____    ______ ____
ROOT
ATOM      1  C   UNL     1       3.797   3.688  17.998  0.00  0.00    +0.000 C 
ENDROOT
BRANCH   1   2
ATOM      2  N   UNL     1       4.593   2.709  18.786  0.00  0.00    +0.000 NA
ATOM      3  H   UNL     1       4.660   3.065  19.747  0.00  0.00    +0.000 HD
ATOM      4  H   UNL     1       5.568   2.776  18.472  0.00  0.00    +0.000 HD
ENDBRANCH   1   2
BRANCH   1   6
ATOM      5  C   UNL     1       2.885   4.766  20.182  0.00  0.00    +0.000 C 
ATOM      6  C   UNL     1       3.603   4.969  18.848  0.00  0.00    +0.000 C 
ENDBRANCH   1   6
BRANCH   1   7
ATOM      7  C   UNL     1       2.419   3.044  17.663  0.00  0.00    +0.000 C 
ATOM      8  O   UNL     1       1.468   3.687  17.228  0.00  0.00    +0.000 OA
BRANCH   7   9
ATOM      9  O   UNL     1       2.330   1.711  17.855  0.00  0.00    +0.000 OA
ATOM     10  H   UNL     1       3.159   1.210  17.746  0.00  0.00    +0.000 HD
ENDBRANCH   7   9
ENDBRANCH   1   7
BRANCH   1  11
ATOM     11  C   UNL     1       4.578   3.957  16.686  0.00  0.00    +0.000 C 
BRANCH  11  12
ATOM     12  C   UNL     1       5.583   5.115  16.762  0.00  0.00    +0.000 C 
BRANCH  12  13
ATOM     13  C   UNL     1       7.001   4.621  16.909  0.00  0.00    +0.000 C 
ATOM     14  O   UNL     1       7.836   4.600  16.021  0.00  0.00    +0.000 OA
BRANCH  13  15
ATOM     15  O   UNL     1       7.275   4.220  18.174  0.00  0.00    +0.000 OA
ATOM     16  H   UNL     1       8.165   3.833  18.281  0.00  0.00    +0.000 HD
ENDBRANCH  13  15
ENDBRANCH  12  13
ENDBRANCH  11  12
ENDBRANCH   1  11
TORSDOF 8
ENDMDL
MODEL 8
REMARK VINA RESULT:      -5.0      1.836      4.579
REMARK  Name = 
REMARK  9 active torsions:
REMARK  status: ('A' for Active; 'I' for Inactive)
REMARK    1  A    between atoms: C_1  and  C_2
REMARK    2  A    between atoms: C_2  and  C_3
REMARK    3  A    between atoms: C_3  and  N_4
REMARK    4  A    between atoms: C_3  and  C_5
REMARK    5  A    between atoms: C_3  and  C_10
REMARK    6  A    between atoms: C_5  and  C_6
REMARK    7  A    between atoms: C_6  and  C_7
REMARK    8  A    between atoms: C_7  and  O_9
REMARK    9  A    between atoms: C_10  and  O_12
REMARK                            x       y       z     vdW  Elec       q    Type
REMARK                         _______ _______ _______ _____ _____    ______ ____
ROOT
ATOM      1  C   UNL     1       5.796   4.487  15.884  0.00  0.00    +0.000 C 
ENDROOT
BRANCH   1   2
ATOM      2  N   UNL     1       5.804   3.004  16.001  0.00  0.00    +0.000 NA
ATOM      3  H   UNL     1       6.139   2.624  15.108  0.00  0.00    +0.000 HD
ATOM      4  H   UNL     1       4.828   2.688  16.007  0.00  0.00    +0.000 HD
ENDBRANCH   1   2
BRANCH   1   6
ATOM      5  C   UNL     1       6.272   3.882  13.400  0.00  0.00    +0.000 C 
ATOM      6  C   UNL     1       5.648   4.866  14.389  0.00  0.00    +0.000 C 
ENDBRANCH   1   6
BRANCH   1   7
ATOM      7  C   UNL     1       7.141   5.032  16.452  0.00  0.00    +0.000 C 
ATOM      8  O   UNL     1       7.829   4.408  17.254  0.00  0.00    +0.000 OA
BRANCH   7   9
ATOM      9  O   UNL     1       7.531   6.237  15.987  0.00  0.00    +0.000 OA
ATOM     10  H   UNL     1       8.236   6.681  16.492  0.00  0.00    +0.000 HD
ENDBRANCH   7   9
ENDBRANCH   1   7
BRANCH   1  11
ATOM     11  C   UNL     1       4.619   5.005  16.749  0.00  0.00    +0.000 C 
BRANCH  11  12
ATOM     12  C   UNL     1       3.848   3.914  17.505  0.00  0.00    +0.000 C 
BRANCH  12  13
ATOM     13  C   UNL     1       4.247   3.847  18.958  0.00  0.00    +0.000 C 
ATOM     14  O   UNL     1       3.542   4.171  19.899  0.00  0.00    +0.000 OA
BRANCH  13  15
ATOM     15  O   UNL     1       5.495   3.347  19.125  0.00  0.00    +0.000 OA
ATOM     16  H   UNL     1       5.570   2.707  19.857  0.00  0.00    +0.000 HD
ENDBRANCH  13  15
ENDBRANCH  12  13
ENDBRANCH  11  12
ENDBRANCH   1  11
TORSDOF 8
ENDMDL
MODEL 9
REMARK VINA RESULT:      -5.0      0.889      1.352
REMARK  Name = 
REMARK  9 active torsions:
REMARK  status: ('A' for Active; 'I' for Inactive)
REMARK    1  A    between atoms: C_1  and  C_2
REMARK    2  A    between atoms: C_2  and  C_3
REMARK    3  A    between atoms: C_3  and  N_4
REMARK    4  A    between atoms: C_3  and  C_5
REMARK    5  A    between atoms: C_3  and  C_10
REMARK    6  A    between atoms: C_5  and  C_6
REMARK    7  A    between atoms: C_6  and  C_7
REMARK    8  A    between atoms: C_7  and  O_9
REMARK    9  A    between atoms: C_10  and  O_12
REMARK                            x       y       z     vdW  Elec       q    Type
REMARK                         _______ _______ _______ _____ _____    ______ ____
ROOT
ATOM      1  C   UNL     1       4.444   3.876  17.717  0.00  0.00    +0.000 C 
ENDROOT
BRANCH   1   2
ATOM      2  N   UNL     1       5.458   3.504  18.741  0.00  0.00    +0.000 NA
ATOM      3  H   UNL     1       6.383   3.569  18.300  0.00  0.00    +0.000 HD
ATOM      4  H   UNL     1       5.378   2.495  18.906  0.00  0.00    +0.000 HD
ENDBRANCH   1   2
BRANCH   1   6
ATOM      5  C   UNL     1       3.412   5.379  19.570  0.00  0.00    +0.000 C 
ATOM      6  C   UNL     1       3.824   5.241  18.105  0.00  0.00    +0.000 C 
ENDBRANCH   1   6
BRANCH   1   7
ATOM      7  C   UNL     1       3.348   2.769  17.687  0.00  0.00    +0.000 C 
ATOM      8  O   UNL     1       3.465   1.696  18.272  0.00  0.00    +0.000 OA
BRANCH   7   9
ATOM      9  O   UNL     1       2.230   3.068  16.994  0.00  0.00    +0.000 OA
ATOM     10  H   UNL     1       1.795   3.908  17.228  0.00  0.00    +0.000 HD
ENDBRANCH   7   9
ENDBRANCH   1   7
BRANCH   1  11
ATOM     11  C   UNL     1       5.174   3.920  16.350  0.00  0.00    +0.000 C 
BRANCH  11  12
ATOM     12  C   UNL     1       5.649   5.315  15.921  0.00  0.00    +0.000 C 
BRANCH  12  13
ATOM     13  C   UNL     1       7.078   5.575  16.330  0.00  0.00    +0.000 C 
ATOM     14  O   UNL     1       7.590   6.675  16.445  0.00  0.00    +0.000 OA
BRANCH  13  15
ATOM     15  O   UNL     1       7.750   4.429  16.598  0.00  0.00    +0.000 OA
ATOM     16  H   UNL     1       8.395   4.510  17.326  0.00  0.00    +0.000 HD
ENDBRANCH  13  15
ENDBRANCH  12  13
ENDBRANCH  11  12
ENDBRANCH   1  11
TORSDOF 8
ENDMDL
