MODEL 1
REMARK VINA RESULT:      -8.2      0.000      0.000
REMARK  Name = 
REMARK  4 active torsions:
REMARK  status: ('A' for Active; 'I' for Inactive)
REMARK    1  A    between atoms: C_1  and  C_2
REMARK    2  A    between atoms: C_9  and  O_10
REMARK    3  A    between atoms: O_10  and  C_11
REMARK    4  A    between atoms: C_11  and  C_13
REMARK                            x       y       z     vdW  Elec       q    Type
REMARK                         _______ _______ _______ _____ _____    ______ ____
ROOT
ATOM      1  C   UNL     1       2.377   4.191  21.785  0.00  0.00    +0.000 C 
ATOM      2  C   UNL     1       2.204   3.825  20.341  0.00  0.00    +0.000 A 
ATOM      3  C   UNL     1       1.226   2.991  19.955  0.00  0.00    +0.000 A 
ATOM      4  C   UNL     1       1.011   2.579  18.559  0.00  0.00    +0.000 A 
ATOM      5  O   UNL     1       0.091   1.828  18.264  0.00  0.00    +0.000 OA
ATOM      6  O   UNL     1       1.904   3.067  17.624  0.00  0.00    +0.000 OA
ATOM      7  C   UNL     1       2.934   3.955  17.992  0.00  0.00    +0.000 A 
ATOM      8  C   UNL     1       3.754   4.398  16.953  0.00  0.00    +0.000 A 
ATOM      9  C   UNL     1       4.762   5.316  17.228  0.00  0.00    +0.000 A 
ATOM     10  C   UNL     1       4.977   5.740  18.542  0.00  0.00    +0.000 A 
ATOM     11  C   UNL     1       4.153   5.265  19.579  0.00  0.00    +0.000 A 
ATOM     12  C   UNL     1       3.110   4.365  19.315  0.00  0.00    +0.000 A 
ENDROOT
BRANCH   9  13
ATOM     13  O   UNL     1       5.647   5.802  16.237  0.00  0.00    +0.000 OA
BRANCH  13  14
ATOM     14  C   UNL     1       6.770   5.050  15.914  0.00  0.00    +0.000 C 
ATOM     15  O   UNL     1       7.674   4.728  16.673  0.00  0.00    +0.000 OA
BRANCH  14  16
ATOM     16  C   UNL     1       6.783   4.655  14.476  0.00  0.00    +0.000 A 
ATOM     17  C   UNL     1       7.716   5.292  13.643  0.00  0.00    +0.000 A 
ATOM     18  C   UNL     1       7.785   4.989  12.284  0.00  0.00    +0.000 A 
ATOM     19  C   UNL     1       6.920   4.043  11.740  0.00  0.00    +0.000 A 
ATOM     20  C   UNL     1       5.992   3.397  12.558  0.00  0.00    +0.000 A 
ATOM     21  C   UNL     1       5.918   3.700  13.926  0.00  0.00    +0.000 A 
ENDBRANCH  14  16
ENDBRANCH  13  14
ENDBRANCH   9  13
TORSDOF 3
ENDMDL
MODEL 2
REMARK VINA RESULT:      -8.1      0.235      1.078
REMARK  Name = 
REMARK  4 active torsions:
REMARK  status: ('A' for Active; 'I' for Inactive)
REMARK    1  A    between atoms: C_1  and  C_2
REMARK    2  A    between atoms: C_9  and  O_10
REMARK    3  A    between atoms: O_10  and  C_11
REMARK    4  A    between atoms: C_11  and  C_13
REMARK                            x       y       z     vdW  Elec       q    Type
REMARK                         _______ _______ _______ _____ _____    ______ ____
ROOT
ATOM      1  C   UNL     1       2.355   4.496  21.641  0.00  0.00    +0.000 C 
ATOM      2  C   UNL     1       2.237   4.050  20.214  0.00  0.00    +0.000 A 
ATOM      3  C   UNL     1       1.269   3.200  19.837  0.00  0.00    +0.000 A 
ATOM      4  C   UNL     1       1.107   2.712  18.459  0.00  0.00    +0.000 A 
ATOM      5  O   UNL     1       0.193   1.949  18.170  0.00  0.00    +0.000 OA
ATOM      6  O   UNL     1       2.039   3.141  17.534  0.00  0.00    +0.000 OA
ATOM      7  C   UNL     1       3.061   4.044  17.893  0.00  0.00    +0.000 A 
ATOM      8  C   UNL     1       3.924   4.423  16.864  0.00  0.00    +0.000 A 
ATOM      9  C   UNL     1       4.927   5.350  17.128  0.00  0.00    +0.000 A 
ATOM     10  C   UNL     1       5.093   5.846  18.423  0.00  0.00    +0.000 A 
ATOM     11  C   UNL     1       4.225   5.435  19.452  0.00  0.00    +0.000 A 
ATOM     12  C   UNL     1       3.187   4.526  19.197  0.00  0.00    +0.000 A 
ENDROOT
BRANCH   9  13
ATOM     13  O   UNL     1       5.854   5.774  16.146  0.00  0.00    +0.000 OA
BRANCH  13  14
ATOM     14  C   UNL     1       6.883   4.916  15.781  0.00  0.00    +0.000 C 
ATOM     15  O   UNL     1       7.743   4.452  16.518  0.00  0.00    +0.000 OA
BRANCH  14  16
ATOM     16  C   UNL     1       6.854   4.599  14.323  0.00  0.00    +0.000 A 
ATOM     17  C   UNL     1       5.928   3.635  13.894  0.00  0.00    +0.000 A 
ATOM     18  C   UNL     1       5.846   3.272  12.551  0.00  0.00    +0.000 A 
ATOM     19  C   UNL     1       6.689   3.870  11.619  0.00  0.00    +0.000 A 
ATOM     20  C   UNL     1       7.610   4.835  12.031  0.00  0.00    +0.000 A 
ATOM     21  C   UNL     1       7.698   5.202  13.382  0.00  0.00    +0.000 A 
ENDBRANCH  14  16
ENDBRANCH  13  14
ENDBRANCH   9  13
TORSDOF 3
ENDMDL
MODEL 3
REMARK VINA RESULT:      -8.0      1.116      1.128
REMARK  Name = 
REMARK  4 active torsions:
REMARK  status: ('A' for Active; 'I' for Inactive)
REMARK    1  A    between atoms: C_1  and  C_2
REMARK    2  A    between atoms: C_9  and  O_10
REMARK    3  A    between atoms: O_10  and  C_11
REMARK    4  A    between atoms: C_11  and  C_13
REMARK                            x       y       z     vdW  Elec       q    Type
REMARK                         _______ _______ _______ _____ _____    ______ ____
ROOT
ATOM      1  C   UNL     1       1.311   6.157  20.655  0.00  0.00    +0.000 C 
ATOM      2  C   UNL     1       1.882   5.086  19.774  0.00  0.00    +0.000 A 
ATOM      3  C   UNL     1       1.503   3.806  19.911  0.00  0.00    +0.000 A 
ATOM      4  C   UNL     1       2.036   2.707  19.092  0.00  0.00    +0.000 A 
ATOM      5  O   UNL     1       1.639   1.560  19.251  0.00  0.00    +0.000 OA
ATOM      6  O   UNL     1       3.005   3.038  18.163  0.00  0.00    +0.000 OA
ATOM      7  C   UNL     1       3.417   4.373  17.983  0.00  0.00    +0.000 A 
ATOM      8  C   UNL     1       4.382   4.583  16.997  0.00  0.00    +0.000 A 
ATOM      9  C   UNL     1       4.804   5.880  16.725  0.00  0.00    +0.000 A 
ATOM     10  C   UNL     1       4.301   6.946  17.475  0.00  0.00    +0.000 A 
ATOM     11  C   UNL     1       3.344   6.712  18.479  0.00  0.00    +0.000 A 
ATOM     12  C   UNL     1       2.882   5.414  18.745  0.00  0.00    +0.000 A 
ENDROOT
BRANCH   9  13
ATOM     13  O   UNL     1       5.790   6.177  15.755  0.00  0.00    +0.000 OA
BRANCH  13  14
ATOM     14  C   UNL     1       6.805   5.256  15.528  0.00  0.00    +0.000 C 
ATOM     15  O   UNL     1       7.661   4.903  16.328  0.00  0.00    +0.000 OA
BRANCH  14  16
ATOM     16  C   UNL     1       6.766   4.713  14.139  0.00  0.00    +0.000 A 
ATOM     17  C   UNL     1       7.672   5.252  13.212  0.00  0.00    +0.000 A 
ATOM     18  C   UNL     1       7.692   4.809  11.891  0.00  0.00    +0.000 A 
ATOM     19  C   UNL     1       6.806   3.817  11.480  0.00  0.00    +0.000 A 
ATOM     20  C   UNL     1       5.904   3.267  12.393  0.00  0.00    +0.000 A 
ATOM     21  C   UNL     1       5.880   3.712  13.723  0.00  0.00    +0.000 A 
ENDBRANCH  14  16
ENDBRANCH  13  14
ENDBRANCH   9  13
TORSDOF 3
ENDMDL
MODEL 4
REMARK VINA RESULT:      -7.9      2.436      3.873
REMARK  Name = 
REMARK  4 active torsions:
REMARK  status: ('A' for Active; 'I' for Inactive)
REMARK    1  A    between atoms: C_1  and  C_2
REMARK    2  A    between atoms: C_9  and  O_10
REMARK    3  A    between atoms: O_10  and  C_11
REMARK    4  A    between atoms: C_11  and  C_13
REMARK                            x       y       z     vdW  Elec       q    Type
REMARK                         _______ _______ _______ _____ _____    ______ ____
ROOT
ATOM      1  C   UNL     1       1.791   2.845  20.687  0.00  0.00    +0.000 C 
ATOM      2  C   UNL     1       2.084   4.234  20.204  0.00  0.00    +0.000 A 
ATOM      3  C   UNL     1       1.590   5.304  20.845  0.00  0.00    +0.000 A 
ATOM      4  C   UNL     1       1.825   6.691  20.416  0.00  0.00    +0.000 A 
ATOM      5  O   UNL     1       1.361   7.629  21.051  0.00  0.00    +0.000 OA
ATOM      6  O   UNL     1       2.571   6.866  19.266  0.00  0.00    +0.000 OA
ATOM      7  C   UNL     1       3.117   5.767  18.575  0.00  0.00    +0.000 A 
ATOM      8  C   UNL     1       3.873   6.074  17.443  0.00  0.00    +0.000 A 
ATOM      9  C   UNL     1       4.487   5.046  16.736  0.00  0.00    +0.000 A 
ATOM     10  C   UNL     1       4.297   3.720  17.133  0.00  0.00    +0.000 A 
ATOM     11  C   UNL     1       3.513   3.428  18.264  0.00  0.00    +0.000 A 
ATOM     12  C   UNL     1       2.914   4.455  19.009  0.00  0.00    +0.000 A 
ENDROOT
BRANCH   9  13
ATOM     13  O   UNL     1       5.255   5.271  15.570  0.00  0.00    +0.000 OA
BRANCH  13  14
ATOM     14  C   UNL     1       6.636   5.132  15.639  0.00  0.00    +0.000 C 
ATOM     15  O   UNL     1       7.351   4.546  14.836  0.00  0.00    +0.000 OA
BRANCH  14  16
ATOM     16  C   UNL     1       7.203   5.788  16.852  0.00  0.00    +0.000 A 
ATOM     17  C   UNL     1       7.397   7.177  16.801  0.00  0.00    +0.000 A 
ATOM     18  C   UNL     1       7.934   7.864  17.888  0.00  0.00    +0.000 A 
ATOM     19  C   UNL     1       8.283   7.170  19.043  0.00  0.00    +0.000 A 
ATOM     20  C   UNL     1       8.090   5.789  19.110  0.00  0.00    +0.000 A 
ATOM     21  C   UNL     1       7.551   5.093  18.018  0.00  0.00    +0.000 A 
ENDBRANCH  14  16
ENDBRANCH  13  14
ENDBRANCH   9  13
TORSDOF 3
ENDMDL
MODEL 5
REMARK VINA RESULT:      -7.9      1.661      2.467
REMARK  Name = 
REMARK  4 active torsions:
REMARK  status: ('A' for Active; 'I' for Inactive)
REMARK    1  A    between atoms: C_1  and  C_2
REMARK    2  A    between atoms: C_9  and  O_10
REMARK    3  A    between atoms: O_10  and  C_11
REMARK    4  A    between atoms: C_11  and  C_13
REMARK                            x       y       z     vdW  Elec       q    Type
REMARK                         _______ _______ _______ _____ _____    ______ ____
ROOT
ATOM      1  C   UNL     1       1.255   2.365  19.175  0.00  0.00    +0.000 C 
ATOM      2  C   UNL     1       1.777   3.762  19.332  0.00  0.00    +0.000 A 
ATOM      3  C   UNL     1       1.271   4.585  20.263  0.00  0.00    +0.000 A 
ATOM      4  C   UNL     1       1.726   5.970  20.458  0.00  0.00    +0.000 A 
ATOM      5  O   UNL     1       1.238   6.670  21.336  0.00  0.00    +0.000 OA
ATOM      6  O   UNL     1       2.704   6.430  19.597  0.00  0.00    +0.000 OA
ATOM      7  C   UNL     1       3.267   5.589  18.616  0.00  0.00    +0.000 A 
ATOM      8  C   UNL     1       4.265   6.160  17.826  0.00  0.00    +0.000 A 
ATOM      9  C   UNL     1       4.904   5.379  16.869  0.00  0.00    +0.000 A 
ATOM     10  C   UNL     1       4.506   4.054  16.675  0.00  0.00    +0.000 A 
ATOM     11  C   UNL     1       3.483   3.502  17.468  0.00  0.00    +0.000 A 
ATOM     12  C   UNL     1       2.850   4.265  18.460  0.00  0.00    +0.000 A 
ENDROOT
BRANCH   9  13
ATOM     13  O   UNL     1       5.912   5.886  16.016  0.00  0.00    +0.000 OA
BRANCH  13  14
ATOM     14  C   UNL     1       6.975   5.061  15.670  0.00  0.00    +0.000 C 
ATOM     15  O   UNL     1       7.839   4.631  16.422  0.00  0.00    +0.000 OA
BRANCH  14  16
ATOM     16  C   UNL     1       6.978   4.735  14.214  0.00  0.00    +0.000 A 
ATOM     17  C   UNL     1       6.105   3.724  13.780  0.00  0.00    +0.000 A 
ATOM     18  C   UNL     1       6.056   3.350  12.439  0.00  0.00    +0.000 A 
ATOM     19  C   UNL     1       6.878   3.985  11.512  0.00  0.00    +0.000 A 
ATOM     20  C   UNL     1       7.746   4.996  11.929  0.00  0.00    +0.000 A 
ATOM     21  C   UNL     1       7.800   5.374  13.278  0.00  0.00    +0.000 A 
ENDBRANCH  14  16
ENDBRANCH  13  14
ENDBRANCH   9  13
TORSDOF 3
ENDMDL
MODEL 6
REMARK VINA RESULT:      -7.9      2.450      3.893
REMARK  Name = 
REMARK  4 active torsions:
REMARK  status: ('A' for Active; 'I' for Inactive)
REMARK    1  A    between atoms: C_1  and  C_2
REMARK    2  A    between atoms: C_9  and  O_10
REMARK    3  A    between atoms: O_10  and  C_11
REMARK    4  A    between atoms: C_11  and  C_13
REMARK                            x       y       z     vdW  Elec       q    Type
REMARK                         _______ _______ _______ _____ _____    ______ ____
ROOT
ATOM      1  C   UNL     1       1.524   3.051  21.082  0.00  0.00    +0.000 C 
ATOM      2  C   UNL     1       1.879   4.373  20.468  0.00  0.00    +0.000 A 
ATOM      3  C   UNL     1       1.464   5.522  21.022  0.00  0.00    +0.000 A 
ATOM      4  C   UNL     1       1.763   6.849  20.463  0.00  0.00    +0.000 A 
ATOM      5  O   UNL     1       1.371   7.866  21.022  0.00  0.00    +0.000 OA
ATOM      6  O   UNL     1       2.481   6.879  19.283  0.00  0.00    +0.000 OA
ATOM      7  C   UNL     1       2.944   5.692  18.681  0.00  0.00    +0.000 A 
ATOM      8  C   UNL     1       3.681   5.854  17.506  0.00  0.00    +0.000 A 
ATOM      9  C   UNL     1       4.215   4.733  16.880  0.00  0.00    +0.000 A 
ATOM     10  C   UNL     1       3.963   3.460  17.400  0.00  0.00    +0.000 A 
ATOM     11  C   UNL     1       3.200   3.316  18.573  0.00  0.00    +0.000 A 
ATOM     12  C   UNL     1       2.682   4.438  19.237  0.00  0.00    +0.000 A 
ENDROOT
BRANCH   9  13
ATOM     13  O   UNL     1       4.958   4.808  15.679  0.00  0.00    +0.000 OA
BRANCH  13  14
ATOM     14  C   UNL     1       6.335   4.630  15.729  0.00  0.00    +0.000 C 
ATOM     15  O   UNL     1       6.997   3.866  15.038  0.00  0.00    +0.000 OA
BRANCH  14  16
ATOM     16  C   UNL     1       6.972   5.490  16.768  0.00  0.00    +0.000 A 
ATOM     17  C   UNL     1       7.439   4.856  17.930  0.00  0.00    +0.000 A 
ATOM     18  C   UNL     1       8.035   5.590  18.954  0.00  0.00    +0.000 A 
ATOM     19  C   UNL     1       8.173   6.969  18.827  0.00  0.00    +0.000 A 
ATOM     20  C   UNL     1       7.719   7.612  17.674  0.00  0.00    +0.000 A 
ATOM     21  C   UNL     1       7.117   6.878  16.643  0.00  0.00    +0.000 A 
ENDBRANCH  14  16
ENDBRANCH  13  14
ENDBRANCH   9  13
TORSDOF 3
ENDMDL
MODEL 7
REMARK VINA RESULT:      -7.9      1.858      2.359
REMARK  Name = 
REMARK  4 active torsions:
REMARK  status: ('A' for Active; 'I' for Inactive)
REMARK    1  A    between atoms: C_1  and  C_2
REMARK    2  A    between atoms: C_9  and  O_10
REMARK    3  A    between atoms: O_10  and  C_11
REMARK    4  A    between atoms: C_11  and  C_13
REMARK                            x       y       z     vdW  Elec       q    Type
REMARK                         _______ _______ _______ _____ _____    ______ ____
ROOT
ATOM      1  C   UNL     1       1.578   2.924  20.193  0.00  0.00    +0.000 C 
ATOM      2  C   UNL     1       1.977   4.355  19.986  0.00  0.00    +0.000 A 
ATOM      3  C   UNL     1       1.406   5.339  20.697  0.00  0.00    +0.000 A 
ATOM      4  C   UNL     1       1.740   6.762  20.531  0.00  0.00    +0.000 A 
ATOM      5  O   UNL     1       1.198   7.616  21.221  0.00  0.00    +0.000 OA
ATOM      6  O   UNL     1       2.670   7.072  19.557  0.00  0.00    +0.000 OA
ATOM      7  C   UNL     1       3.299   6.063  18.801  0.00  0.00    +0.000 A 
ATOM      8  C   UNL     1       4.240   6.501  17.867  0.00  0.00    +0.000 A 
ATOM      9  C   UNL     1       4.940   5.561  17.118  0.00  0.00    +0.000 A 
ATOM     10  C   UNL     1       4.657   4.202  17.268  0.00  0.00    +0.000 A 
ATOM     11  C   UNL     1       3.690   3.781  18.200  0.00  0.00    +0.000 A 
ATOM     12  C   UNL     1       2.998   4.712  18.988  0.00  0.00    +0.000 A 
ENDROOT
BRANCH   9  13
ATOM     13  O   UNL     1       5.896   5.922  16.139  0.00  0.00    +0.000 OA
BRANCH  13  14
ATOM     14  C   UNL     1       6.894   5.014  15.810  0.00  0.00    +0.000 C 
ATOM     15  O   UNL     1       7.751   4.569  16.563  0.00  0.00    +0.000 OA
BRANCH  14  16
ATOM     16  C   UNL     1       6.835   4.613  14.375  0.00  0.00    +0.000 A 
ATOM     17  C   UNL     1       7.709   5.264  13.489  0.00  0.00    +0.000 A 
ATOM     18  C   UNL     1       7.707   4.957  12.130  0.00  0.00    +0.000 A 
ATOM     19  C   UNL     1       6.832   3.993  11.638  0.00  0.00    +0.000 A 
ATOM     20  C   UNL     1       5.962   3.333  12.509  0.00  0.00    +0.000 A 
ATOM     21  C   UNL     1       5.959   3.640  13.877  0.00  0.00    +0.000 A 
ENDBRANCH  14  16
ENDBRANCH  13  14
ENDBRANCH   9  13
TORSDOF 3
ENDMDL
MODEL 8
REMARK VINA RESULT:      -7.8      4.902      7.081
REMARK  Name = 
REMARK  4 active torsions:
REMARK  status: ('A' for Active; 'I' for Inactive)
REMARK    1  A    between atoms: C_1  and  C_2
REMARK    2  A    between atoms: C_9  and  O_10
REMARK    3  A    between atoms: O_10  and  C_11
REMARK    4  A    between atoms: C_11  and  C_13
REMARK                            x       y       z     vdW  Elec       q    Type
REMARK                         _______ _______ _______ _____ _____    ______ ____
ROOT
ATOM      1  C   UNL     1      -0.830  11.955  19.677  0.00  0.00    +0.000 C 
ATOM      2  C   UNL     1      -0.184  10.859  20.473  0.00  0.00    +0.000 A 
ATOM      3  C   UNL     1      -0.320  10.805  21.807  0.00  0.00    +0.000 A 
ATOM      4  C   UNL     1       0.299   9.769  22.647  0.00  0.00    +0.000 A 
ATOM      5  O   UNL     1       0.127   9.761  23.859  0.00  0.00    +0.000 OA
ATOM      6  O   UNL     1       1.086   8.835  22.000  0.00  0.00    +0.000 OA
ATOM      7  C   UNL     1       1.240   8.853  20.600  0.00  0.00    +0.000 A 
ATOM      8  C   UNL     1       2.038   7.842  20.063  0.00  0.00    +0.000 A 
ATOM      9  C   UNL     1       2.196   7.763  18.683  0.00  0.00    +0.000 A 
ATOM     10  C   UNL     1       1.604   8.723  17.859  0.00  0.00    +0.000 A 
ATOM     11  C   UNL     1       0.821   9.748  18.421  0.00  0.00    +0.000 A 
ATOM     12  C   UNL     1       0.622   9.823  19.808  0.00  0.00    +0.000 A 
ENDROOT
BRANCH   9  13
ATOM     13  O   UNL     1       3.001   6.780  18.061  0.00  0.00    +0.000 OA
BRANCH  13  14
ATOM     14  C   UNL     1       3.535   5.760  18.838  0.00  0.00    +0.000 C 
ATOM     15  O   UNL     1       4.675   5.700  19.280  0.00  0.00    +0.000 OA
BRANCH  14  16
ATOM     16  C   UNL     1       2.544   4.674  19.092  0.00  0.00    +0.000 A 
ATOM     17  C   UNL     1       2.136   4.474  20.420  0.00  0.00    +0.000 A 
ATOM     18  C   UNL     1       1.223   3.472  20.744  0.00  0.00    +0.000 A 
ATOM     19  C   UNL     1       0.704   2.658  19.742  0.00  0.00    +0.000 A 
ATOM     20  C   UNL     1       1.095   2.850  18.415  0.00  0.00    +0.000 A 
ATOM     21  C   UNL     1       2.015   3.856  18.085  0.00  0.00    +0.000 A 
ENDBRANCH  14  16
ENDBRANCH  13  14
ENDBRANCH   9  13
TORSDOF 3
ENDMDL
MODEL 9
REMARK VINA RESULT:      -7.8      1.719      2.337
REMARK  Name = 
REMARK  4 active torsions:
REMARK  status: ('A' for Active; 'I' for Inactive)
REMARK    1  A    between atoms: C_1  and  C_2
REMARK    2  A    between atoms: C_9  and  O_10
REMARK    3  A    between atoms: O_10  and  C_11
REMARK    4  A    between atoms: C_11  and  C_13
REMARK                            x       y       z     vdW  Elec       q    Type
REMARK                         _______ _______ _______ _____ _____    ______ ____
ROOT
ATOM      1  C   UNL     1       1.747   7.701  19.826  0.00  0.00    +0.000 C 
ATOM      2  C   UNL     1       2.281   6.306  19.963  0.00  0.00    +0.000 A 
ATOM      3  C   UNL     1       1.826   5.485  20.923  0.00  0.00    +0.000 A 
ATOM      4  C   UNL     1       2.318   4.114  21.121  0.00  0.00    +0.000 A 
ATOM      5  O   UNL     1       1.853   3.404  22.004  0.00  0.00    +0.000 OA
ATOM      6  O   UNL     1       3.329   3.689  20.280  0.00  0.00    +0.000 OA
ATOM      7  C   UNL     1       3.822   4.519  19.253  0.00  0.00    +0.000 A 
ATOM      8  C   UNL     1       4.823   3.967  18.453  0.00  0.00    +0.000 A 
ATOM      9  C   UNL     1       5.325   4.706  17.387  0.00  0.00    +0.000 A 
ATOM     10  C   UNL     1       4.862   6.005  17.163  0.00  0.00    +0.000 A 
ATOM     11  C   UNL     1       3.867   6.552  17.993  0.00  0.00    +0.000 A 
ATOM     12  C   UNL     1       3.325   5.809  19.053  0.00  0.00    +0.000 A 
ENDROOT
BRANCH   9  13
ATOM     13  O   UNL     1       6.352   4.227  16.540  0.00  0.00    +0.000 OA
BRANCH  13  14
ATOM     14  C   UNL     1       6.999   5.123  15.699  0.00  0.00    +0.000 C 
ATOM     15  O   UNL     1       7.586   6.144  16.034  0.00  0.00    +0.000 OA
BRANCH  14  16
ATOM     16  C   UNL     1       6.902   4.716  14.267  0.00  0.00    +0.000 A 
ATOM     17  C   UNL     1       5.916   3.774  13.933  0.00  0.00    +0.000 A 
ATOM     18  C   UNL     1       5.767   3.331  12.620  0.00  0.00    +0.000 A 
ATOM     19  C   UNL     1       6.603   3.826  11.623  0.00  0.00    +0.000 A 
ATOM     20  C   UNL     1       7.583   4.768  11.940  0.00  0.00    +0.000 A 
ATOM     21  C   UNL     1       7.737   5.215  13.260  0.00  0.00    +0.000 A 
ENDBRANCH  14  16
ENDBRANCH  13  14
ENDBRANCH   9  13
TORSDOF 3
ENDMDL
