MODEL 1
REMARK VINA RESULT:      -8.8      0.000      0.000
REMARK  Name = 
REMARK  4 active torsions:
REMARK  status: ('A' for Active; 'I' for Inactive)
REMARK    1  A    between atoms: C_1  and  N_2
REMARK    2  A    between atoms: C_8  and  C_9
REMARK    3  A    between atoms: C_14  and  C_15
REMARK    4  A    between atoms: C_16  and  C_17
REMARK                            x       y       z     vdW  Elec       q    Type
REMARK                         _______ _______ _______ _____ _____    ______ ____
ROOT
ATOM      1  C   UNL     1       3.396   3.946  19.376  0.00  0.00    +0.000 A 
ATOM      2  C   UNL     1       3.524   2.822  20.207  0.00  0.00    +0.000 A 
ATOM      3  N   UNL     1       2.778   2.547  21.305  0.00  0.00    +0.000 NA
ATOM      4  C   UNL     1       1.815   3.430  21.608  0.00  0.00    +0.000 A 
ATOM      5  C   UNL     1       1.565   4.564  20.862  0.00  0.00    +0.000 A 
ATOM      6  C   UNL     1       2.356   4.833  19.732  0.00  0.00    +0.000 A 
ENDROOT
BRANCH   1  14
ATOM      7  C   UNL     1       7.568   7.193  17.503  0.00  0.00    +0.000 C 
ATOM      8  N   UNL     1       7.135   6.064  16.716  0.00  0.00    +0.000 N 
ATOM      9  N   UNL     1       7.675   5.848  15.500  0.00  0.00    +0.000 NA
ATOM     10  C   UNL     1       6.930   4.857  15.002  0.00  0.00    +0.000 A 
ATOM     11  C   UNL     1       5.940   4.411  15.908  0.00  0.00    +0.000 A 
ATOM     12  C   UNL     1       4.913   3.462  15.895  0.00  0.00    +0.000 A 
ATOM     13  C   UNL     1       4.120   3.315  17.047  0.00  0.00    +0.000 A 
ATOM     14  C   UNL     1       4.309   4.093  18.211  0.00  0.00    +0.000 A 
ATOM     15  C   UNL     1       5.334   5.056  18.195  0.00  0.00    +0.000 A 
ATOM     16  C   UNL     1       6.123   5.194  17.041  0.00  0.00    +0.000 A 
ENDBRANCH   1  14
BRANCH   6  17
ATOM     17  C   UNL     1       1.985   6.059  19.010  0.00  0.00    +0.000 C 
ATOM     18  C   UNL     1       2.507   7.265  19.288  0.00  0.00    +0.000 C 
BRANCH  18  19
ATOM     19  C   UNL     1       1.934   8.460  18.626  0.00  0.00    +0.000 C 
ATOM     20  O   UNL     1       2.140   8.652  17.428  0.00  0.00    +0.000 OA
ATOM     21  N   UNL     1       1.144   9.282  19.406  0.00  0.00    +0.000 N 
ATOM     22  C   UNL     1       1.111   9.294  20.871  0.00  0.00    +0.000 C 
ATOM     23  C   UNL     1      -0.314   9.550  21.362  0.00  0.00    +0.000 C 
ATOM     24  O   UNL     1      -0.833  10.773  20.817  0.00  0.00    +0.000 OA
ATOM     25  C   UNL     1      -0.865  10.716  19.380  0.00  0.00    +0.000 C 
ATOM     26  C   UNL     1       0.531  10.468  18.797  0.00  0.00    +0.000 C 
ENDBRANCH  18  19
ENDBRANCH   6  17
TORSDOF 3
ENDMDL
MODEL 2
REMARK VINA RESULT:      -8.8      1.073      1.141
REMARK  Name = 
REMARK  4 active torsions:
REMARK  status: ('A' for Active; 'I' for Inactive)
REMARK    1  A    between atoms: C_1  and  N_2
REMARK    2  A    between atoms: C_8  and  C_9
REMARK    3  A    between atoms: C_14  and  C_15
REMARK    4  A    between atoms: C_16  and  C_17
REMARK                            x       y       z     vdW  Elec       q    Type
REMARK                         _______ _______ _______ _____ _____    ______ ____
ROOT
ATOM      1  C   UNL     1       3.317   3.848  19.525  0.00  0.00    +0.000 A 
ATOM      2  C   UNL     1       3.300   2.541  20.037  0.00  0.00    +0.000 A 
ATOM      3  N   UNL     1       2.561   2.099  21.084  0.00  0.00    +0.000 NA
ATOM      4  C   UNL     1       1.757   2.999  21.668  0.00  0.00    +0.000 A 
ATOM      5  C   UNL     1       1.658   4.311  21.250  0.00  0.00    +0.000 A 
ATOM      6  C   UNL     1       2.439   4.749  20.167  0.00  0.00    +0.000 A 
ENDROOT
BRANCH   1  14
ATOM      7  C   UNL     1       7.768   6.982  18.176  0.00  0.00    +0.000 C 
ATOM      8  N   UNL     1       7.180   6.115  17.184  0.00  0.00    +0.000 N 
ATOM      9  N   UNL     1       7.648   6.127  15.920  0.00  0.00    +0.000 NA
ATOM     10  C   UNL     1       6.776   5.360  15.260  0.00  0.00    +0.000 A 
ATOM     11  C   UNL     1       5.774   4.826  16.101  0.00  0.00    +0.000 A 
ATOM     12  C   UNL     1       4.644   4.017  15.938  0.00  0.00    +0.000 A 
ATOM     13  C   UNL     1       3.881   3.694  17.075  0.00  0.00    +0.000 A 
ATOM     14  C   UNL     1       4.199   4.161  18.369  0.00  0.00    +0.000 A 
ATOM     15  C   UNL     1       5.328   4.989  18.507  0.00  0.00    +0.000 A 
ATOM     16  C   UNL     1       6.086   5.304  17.367  0.00  0.00    +0.000 A 
ENDBRANCH   1  14
BRANCH   6  17
ATOM     17  C   UNL     1       2.236   6.159  19.804  0.00  0.00    +0.000 C 
ATOM     18  C   UNL     1       1.862   7.101  20.686  0.00  0.00    +0.000 C 
BRANCH  18  19
ATOM     19  C   UNL     1       1.510   8.450  20.183  0.00  0.00    +0.000 C 
ATOM     20  O   UNL     1       1.625   8.703  18.984  0.00  0.00    +0.000 OA
ATOM     21  N   UNL     1       1.018   9.348  21.109  0.00  0.00    +0.000 N 
ATOM     22  C   UNL     1       1.146   9.229  22.564  0.00  0.00    +0.000 C 
ATOM     23  C   UNL     1      -0.123   9.745  23.246  0.00  0.00    +0.000 C 
ATOM     24  O   UNL     1      -0.402  11.098  22.853  0.00  0.00    +0.000 OA
ATOM     25  C   UNL     1      -0.600  11.184  21.432  0.00  0.00    +0.000 C 
ATOM     26  C   UNL     1       0.631  10.691  20.662  0.00  0.00    +0.000 C 
ENDBRANCH  18  19
ENDBRANCH   6  17
TORSDOF 3
ENDMDL
MODEL 3
REMARK VINA RESULT:      -8.5      1.557      2.245
REMARK  Name = 
REMARK  4 active torsions:
REMARK  status: ('A' for Active; 'I' for Inactive)
REMARK    1  A    between atoms: C_1  and  N_2
REMARK    2  A    between atoms: C_8  and  C_9
REMARK    3  A    between atoms: C_14  and  C_15
REMARK    4  A    between atoms: C_16  and  C_17
REMARK                            x       y       z     vdW  Elec       q    Type
REMARK                         _______ _______ _______ _____ _____    ______ ____
ROOT
ATOM      1  C   UNL     1       3.548   3.621  17.780  0.00  0.00    +0.000 A 
ATOM      2  C   UNL     1       3.537   2.271  18.164  0.00  0.00    +0.000 A 
ATOM      3  N   UNL     1       2.605   1.667  18.942  0.00  0.00    +0.000 NA
ATOM      4  C   UNL     1       1.591   2.435  19.365  0.00  0.00    +0.000 A 
ATOM      5  C   UNL     1       1.468   3.772  19.041  0.00  0.00    +0.000 A 
ATOM      6  C   UNL     1       2.448   4.380  18.239  0.00  0.00    +0.000 A 
ENDROOT
BRANCH   1  14
ATOM      7  C   UNL     1       5.467   3.300  12.520  0.00  0.00    +0.000 C 
ATOM      8  N   UNL     1       6.158   4.125  13.481  0.00  0.00    +0.000 N 
ATOM      9  N   UNL     1       7.305   4.742  13.135  0.00  0.00    +0.000 NA
ATOM     10  C   UNL     1       7.744   5.250  14.289  0.00  0.00    +0.000 A 
ATOM     11  C   UNL     1       6.866   4.994  15.367  0.00  0.00    +0.000 A 
ATOM     12  C   UNL     1       6.848   5.260  16.740  0.00  0.00    +0.000 A 
ATOM     13  C   UNL     1       5.743   4.825  17.493  0.00  0.00    +0.000 A 
ATOM     14  C   UNL     1       4.658   4.121  16.924  0.00  0.00    +0.000 A 
ATOM     15  C   UNL     1       4.706   3.847  15.546  0.00  0.00    +0.000 A 
ATOM     16  C   UNL     1       5.812   4.289  14.800  0.00  0.00    +0.000 A 
ENDBRANCH   1  14
BRANCH   6  17
ATOM     17  C   UNL     1       2.200   5.799  17.948  0.00  0.00    +0.000 C 
ATOM     18  C   UNL     1       2.654   6.800  18.720  0.00  0.00    +0.000 C 
BRANCH  18  19
ATOM     19  C   UNL     1       2.196   8.181  18.440  0.00  0.00    +0.000 C 
ATOM     20  O   UNL     1       2.441   8.696  17.349  0.00  0.00    +0.000 OA
ATOM     21  N   UNL     1       1.463   8.805  19.430  0.00  0.00    +0.000 N 
ATOM     22  C   UNL     1       1.404   8.392  20.835  0.00  0.00    +0.000 C 
ATOM     23  C   UNL     1      -0.005   8.616  21.388  0.00  0.00    +0.000 C 
ATOM     24  O   UNL     1      -0.408   9.985  21.227  0.00  0.00    +0.000 OA
ATOM     25  C   UNL     1      -0.417  10.351  19.837  0.00  0.00    +0.000 C 
ATOM     26  C   UNL     1       0.964  10.165  19.198  0.00  0.00    +0.000 C 
ENDBRANCH  18  19
ENDBRANCH   6  17
TORSDOF 3
ENDMDL
MODEL 4
REMARK VINA RESULT:      -8.5      1.399      1.981
REMARK  Name = 
REMARK  4 active torsions:
REMARK  status: ('A' for Active; 'I' for Inactive)
REMARK    1  A    between atoms: C_1  and  N_2
REMARK    2  A    between atoms: C_8  and  C_9
REMARK    3  A    between atoms: C_14  and  C_15
REMARK    4  A    between atoms: C_16  and  C_17
REMARK                            x       y       z     vdW  Elec       q    Type
REMARK                         _______ _______ _______ _____ _____    ______ ____
ROOT
ATOM      1  C   UNL     1       3.314   4.047  19.279  0.00  0.00    +0.000 A 
ATOM      2  C   UNL     1       3.125   2.680  19.536  0.00  0.00    +0.000 A 
ATOM      3  N   UNL     1       2.102   2.129  20.236  0.00  0.00    +0.000 NA
ATOM      4  C   UNL     1       1.178   2.978  20.707  0.00  0.00    +0.000 A 
ATOM      5  C   UNL     1       1.229   4.343  20.506  0.00  0.00    +0.000 A 
ATOM      6  C   UNL     1       2.302   4.893  19.784  0.00  0.00    +0.000 A 
ENDROOT
BRANCH   1  14
ATOM      7  C   UNL     1       5.303   4.042  14.035  0.00  0.00    +0.000 C 
ATOM      8  N   UNL     1       6.075   4.651  15.090  0.00  0.00    +0.000 N 
ATOM      9  N   UNL     1       7.305   5.137  14.826  0.00  0.00    +0.000 NA
ATOM     10  C   UNL     1       7.780   5.450  16.034  0.00  0.00    +0.000 A 
ATOM     11  C   UNL     1       6.849   5.202  17.068  0.00  0.00    +0.000 A 
ATOM     12  C   UNL     1       6.832   5.315  18.462  0.00  0.00    +0.000 A 
ATOM     13  C   UNL     1       5.659   4.958  19.150  0.00  0.00    +0.000 A 
ATOM     14  C   UNL     1       4.503   4.478  18.495  0.00  0.00    +0.000 A 
ATOM     15  C   UNL     1       4.548   4.354  17.095  0.00  0.00    +0.000 A 
ATOM     16  C   UNL     1       5.722   4.716  16.415  0.00  0.00    +0.000 A 
ENDBRANCH   1  14
BRANCH   6  17
ATOM     17  C   UNL     1       2.238   6.352  19.621  0.00  0.00    +0.000 C 
ATOM     18  C   UNL     1       1.602   7.163  20.482  0.00  0.00    +0.000 C 
BRANCH  18  19
ATOM     19  C   UNL     1       1.444   8.594  20.131  0.00  0.00    +0.000 C 
ATOM     20  O   UNL     1       1.676   8.969  18.982  0.00  0.00    +0.000 OA
ATOM     21  N   UNL     1       0.990   9.432  21.130  0.00  0.00    +0.000 N 
ATOM     22  C   UNL     1       0.996   9.130  22.564  0.00  0.00    +0.000 C 
ATOM     23  C   UNL     1      -0.252   9.713  23.228  0.00  0.00    +0.000 C 
ATOM     24  O   UNL     1      -0.346  11.126  22.991  0.00  0.00    +0.000 OA
ATOM     25  C   UNL     1      -0.428  11.401  21.582  0.00  0.00    +0.000 C 
ATOM     26  C   UNL     1       0.792  10.854  20.832  0.00  0.00    +0.000 C 
ENDBRANCH  18  19
ENDBRANCH   6  17
TORSDOF 3
ENDMDL
MODEL 5
REMARK VINA RESULT:      -7.5      2.700      7.317
REMARK  Name = 
REMARK  4 active torsions:
REMARK  status: ('A' for Active; 'I' for Inactive)
REMARK    1  A    between atoms: C_1  and  N_2
REMARK    2  A    between atoms: C_8  and  C_9
REMARK    3  A    between atoms: C_14  and  C_15
REMARK    4  A    between atoms: C_16  and  C_17
REMARK                            x       y       z     vdW  Elec       q    Type
REMARK                         _______ _______ _______ _____ _____    ______ ____
ROOT
ATOM      1  C   UNL     1       3.080   5.192  19.492  0.00  0.00    +0.000 A 
ATOM      2  C   UNL     1       2.498   4.408  20.500  0.00  0.00    +0.000 A 
ATOM      3  N   UNL     1       2.826   3.130  20.812  0.00  0.00    +0.000 NA
ATOM      4  C   UNL     1       3.816   2.577  20.098  0.00  0.00    +0.000 A 
ATOM      5  C   UNL     1       4.491   3.244  19.095  0.00  0.00    +0.000 A 
ATOM      6  C   UNL     1       4.129   4.566  18.782  0.00  0.00    +0.000 A 
ENDROOT
BRANCH   1  14
ATOM      7  C   UNL     1       0.229   9.244  22.119  0.00  0.00    +0.000 C 
ATOM      8  N   UNL     1       0.749   9.483  20.794  0.00  0.00    +0.000 N 
ATOM      9  N   UNL     1       0.473  10.642  20.164  0.00  0.00    +0.000 NA
ATOM     10  C   UNL     1       0.948  10.444  18.931  0.00  0.00    +0.000 A 
ATOM     11  C   UNL     1       1.560   9.179  18.778  0.00  0.00    +0.000 A 
ATOM     12  C   UNL     1       2.170   8.471  17.738  0.00  0.00    +0.000 A 
ATOM     13  C   UNL     1       2.679   7.188  18.008  0.00  0.00    +0.000 A 
ATOM     14  C   UNL     1       2.589   6.580  19.280  0.00  0.00    +0.000 A 
ATOM     15  C   UNL     1       1.954   7.302  20.306  0.00  0.00    +0.000 A 
ATOM     16  C   UNL     1       1.451   8.584  20.029  0.00  0.00    +0.000 A 
ENDBRANCH   1  14
BRANCH   6  17
ATOM     17  C   UNL     1       4.927   5.176  17.710  0.00  0.00    +0.000 C 
ATOM     18  C   UNL     1       5.849   4.502  17.002  0.00  0.00    +0.000 C 
BRANCH  18  19
ATOM     19  C   UNL     1       6.723   5.253  16.071  0.00  0.00    +0.000 C 
ATOM     20  O   UNL     1       7.527   6.073  16.515  0.00  0.00    +0.000 OA
ATOM     21  N   UNL     1       6.610   4.945  14.729  0.00  0.00    +0.000 N 
ATOM     22  C   UNL     1       5.489   4.232  14.109  0.00  0.00    +0.000 C 
ATOM     23  C   UNL     1       6.001   3.318  12.995  0.00  0.00    +0.000 C 
ATOM     24  O   UNL     1       6.749   4.064  12.022  0.00  0.00    +0.000 OA
ATOM     25  C   UNL     1       7.889   4.695  12.633  0.00  0.00    +0.000 C 
ATOM     26  C   UNL     1       7.468   5.640  13.764  0.00  0.00    +0.000 C 
ENDBRANCH  18  19
ENDBRANCH   6  17
TORSDOF 3
ENDMDL
MODEL 6
REMARK VINA RESULT:      -7.3      1.538      4.821
REMARK  Name = 
REMARK  4 active torsions:
REMARK  status: ('A' for Active; 'I' for Inactive)
REMARK    1  A    between atoms: C_1  and  N_2
REMARK    2  A    between atoms: C_8  and  C_9
REMARK    3  A    between atoms: C_14  and  C_15
REMARK    4  A    between atoms: C_16  and  C_17
REMARK                            x       y       z     vdW  Elec       q    Type
REMARK                         _______ _______ _______ _____ _____    ______ ____
ROOT
ATOM      1  C   UNL     1       4.224   4.895  17.142  0.00  0.00    +0.000 A 
ATOM      2  C   UNL     1       4.915   3.982  16.330  0.00  0.00    +0.000 A 
ATOM      3  N   UNL     1       5.668   4.285  15.244  0.00  0.00    +0.000 NA
ATOM      4  C   UNL     1       5.775   5.585  14.937  0.00  0.00    +0.000 A 
ATOM      5  C   UNL     1       5.169   6.589  15.666  0.00  0.00    +0.000 A 
ATOM      6  C   UNL     1       4.386   6.251  16.783  0.00  0.00    +0.000 A 
ENDROOT
BRANCH   1  14
ATOM      7  C   UNL     1       4.686   1.459  21.551  0.00  0.00    +0.000 C 
ATOM      8  N   UNL     1       3.458   2.185  21.339  0.00  0.00    +0.000 N 
ATOM      9  N   UNL     1       2.402   1.968  22.148  0.00  0.00    +0.000 NA
ATOM     10  C   UNL     1       1.416   2.653  21.563  0.00  0.00    +0.000 A 
ATOM     11  C   UNL     1       1.843   3.338  20.402  0.00  0.00    +0.000 A 
ATOM     12  C   UNL     1       1.247   4.148  19.429  0.00  0.00    +0.000 A 
ATOM     13  C   UNL     1       2.052   4.661  18.398  0.00  0.00    +0.000 A 
ATOM     14  C   UNL     1       3.434   4.384  18.295  0.00  0.00    +0.000 A 
ATOM     15  C   UNL     1       4.009   3.553  19.272  0.00  0.00    +0.000 A 
ATOM     16  C   UNL     1       3.198   3.047  20.301  0.00  0.00    +0.000 A 
ENDBRANCH   1  14
BRANCH   6  17
ATOM     17  C   UNL     1       3.806   7.403  17.487  0.00  0.00    +0.000 C 
ATOM     18  C   UNL     1       2.485   7.642  17.548  0.00  0.00    +0.000 C 
BRANCH  18  19
ATOM     19  C   UNL     1       2.018   8.924  18.127  0.00  0.00    +0.000 C 
ATOM     20  O   UNL     1       2.022   9.942  17.436  0.00  0.00    +0.000 OA
ATOM     21  N   UNL     1       1.550   8.884  19.425  0.00  0.00    +0.000 N 
ATOM     22  C   UNL     1       1.799   7.809  20.390  0.00  0.00    +0.000 C 
ATOM     23  C   UNL     1       0.562   7.588  21.261  0.00  0.00    +0.000 C 
ATOM     24  O   UNL     1       0.175   8.803  21.920  0.00  0.00    +0.000 OA
ATOM     25  C   UNL     1      -0.140   9.825  20.959  0.00  0.00    +0.000 C 
ATOM     26  C   UNL     1       1.052  10.119  20.041  0.00  0.00    +0.000 C 
ENDBRANCH  18  19
ENDBRANCH   6  17
TORSDOF 3
ENDMDL
MODEL 7
REMARK VINA RESULT:      -7.3      2.078      2.468
REMARK  Name = 
REMARK  4 active torsions:
REMARK  status: ('A' for Active; 'I' for Inactive)
REMARK    1  A    between atoms: C_1  and  N_2
REMARK    2  A    between atoms: C_8  and  C_9
REMARK    3  A    between atoms: C_14  and  C_15
REMARK    4  A    between atoms: C_16  and  C_17
REMARK                            x       y       z     vdW  Elec       q    Type
REMARK                         _______ _______ _______ _____ _____    ______ ____
ROOT
ATOM      1  C   UNL     1       2.752   4.489  19.020  0.00  0.00    +0.000 A 
ATOM      2  C   UNL     1       2.476   3.221  18.486  0.00  0.00    +0.000 A 
ATOM      3  N   UNL     1       1.486   2.383  18.880  0.00  0.00    +0.000 NA
ATOM      4  C   UNL     1       0.688   2.823  19.863  0.00  0.00    +0.000 A 
ATOM      5  C   UNL     1       0.832   4.060  20.460  0.00  0.00    +0.000 A 
ATOM      6  C   UNL     1       1.870   4.910  20.040  0.00  0.00    +0.000 A 
ENDROOT
BRANCH   1  14
ATOM      7  C   UNL     1       8.169   5.569  19.993  0.00  0.00    +0.000 C 
ATOM      8  N   UNL     1       7.520   6.156  18.846  0.00  0.00    +0.000 N 
ATOM      9  N   UNL     1       8.193   7.027  18.067  0.00  0.00    +0.000 NA
ATOM     10  C   UNL     1       7.254   7.491  17.238  0.00  0.00    +0.000 A 
ATOM     11  C   UNL     1       5.991   6.895  17.457  0.00  0.00    +0.000 A 
ATOM     12  C   UNL     1       4.706   7.023  16.918  0.00  0.00    +0.000 A 
ATOM     13  C   UNL     1       3.680   6.208  17.429  0.00  0.00    +0.000 A 
ATOM     14  C   UNL     1       3.889   5.275  18.469  0.00  0.00    +0.000 A 
ATOM     15  C   UNL     1       5.183   5.176  19.010  0.00  0.00    +0.000 A 
ATOM     16  C   UNL     1       6.203   5.992  18.491  0.00  0.00    +0.000 A 
ENDBRANCH   1  14
BRANCH   6  17
ATOM     17  C   UNL     1       1.913   6.203  20.736  0.00  0.00    +0.000 C 
ATOM     18  C   UNL     1       0.970   7.149  20.594  0.00  0.00    +0.000 C 
BRANCH  18  19
ATOM     19  C   UNL     1       1.201   8.483  21.197  0.00  0.00    +0.000 C 
ATOM     20  O   UNL     1       1.860   8.579  22.231  0.00  0.00    +0.000 OA
ATOM     21  N   UNL     1       0.686   9.569  20.517  0.00  0.00    +0.000 N 
ATOM     22  C   UNL     1      -0.350   9.514  19.481  0.00  0.00    +0.000 C 
ATOM     23  C   UNL     1      -0.063  10.554  18.396  0.00  0.00    +0.000 C 
ATOM     24  O   UNL     1       0.042  11.869  18.962  0.00  0.00    +0.000 OA
ATOM     25  C   UNL     1       1.112  11.926  19.921  0.00  0.00    +0.000 C 
ATOM     26  C   UNL     1       0.904  10.916  21.055  0.00  0.00    +0.000 C 
ENDBRANCH  18  19
ENDBRANCH   6  17
TORSDOF 3
ENDMDL
MODEL 8
REMARK VINA RESULT:      -7.1      2.904      5.455
REMARK  Name = 
REMARK  4 active torsions:
REMARK  status: ('A' for Active; 'I' for Inactive)
REMARK    1  A    between atoms: C_1  and  N_2
REMARK    2  A    between atoms: C_8  and  C_9
REMARK    3  A    between atoms: C_14  and  C_15
REMARK    4  A    between atoms: C_16  and  C_17
REMARK                            x       y       z     vdW  Elec       q    Type
REMARK                         _______ _______ _______ _____ _____    ______ ____
ROOT
ATOM      1  C   UNL     1       0.929   8.824  21.061  0.00  0.00    +0.000 A 
ATOM      2  C   UNL     1       1.453   8.878  22.362  0.00  0.00    +0.000 A 
ATOM      3  N   UNL     1       0.932   9.565  23.408  0.00  0.00    +0.000 NA
ATOM      4  C   UNL     1      -0.203  10.239  23.174  0.00  0.00    +0.000 A 
ATOM      5  C   UNL     1      -0.837  10.251  21.948  0.00  0.00    +0.000 A 
ATOM      6  C   UNL     1      -0.276   9.538  20.875  0.00  0.00    +0.000 A 
ENDROOT
BRANCH   1  14
ATOM      7  C   UNL     1       3.070   3.707  20.237  0.00  0.00    +0.000 C 
ATOM      8  N   UNL     1       3.125   4.682  19.175  0.00  0.00    +0.000 N 
ATOM      9  N   UNL     1       3.766   4.387  18.026  0.00  0.00    +0.000 NA
ATOM     10  C   UNL     1       3.772   5.549  17.368  0.00  0.00    +0.000 A 
ATOM     11  C   UNL     1       3.106   6.578  18.072  0.00  0.00    +0.000 A 
ATOM     12  C   UNL     1       2.849   7.938  17.870  0.00  0.00    +0.000 A 
ATOM     13  C   UNL     1       2.115   8.635  18.846  0.00  0.00    +0.000 A 
ATOM     14  C   UNL     1       1.638   8.023  20.027  0.00  0.00    +0.000 A 
ATOM     15  C   UNL     1       1.924   6.660  20.220  0.00  0.00    +0.000 A 
ATOM     16  C   UNL     1       2.655   5.971  19.238  0.00  0.00    +0.000 A 
ENDBRANCH   1  14
BRANCH   6  17
ATOM     17  C   UNL     1      -1.049   9.613  19.627  0.00  0.00    +0.000 C 
ATOM     18  C   UNL     1      -1.112  10.716  18.864  0.00  0.00    +0.000 C 
BRANCH  18  19
ATOM     19  C   UNL     1      -2.061  10.743  17.726  0.00  0.00    +0.000 C 
ATOM     20  O   UNL     1      -1.779  10.156  16.682  0.00  0.00    +0.000 OA
ATOM     21  N   UNL     1      -3.256  11.405  17.930  0.00  0.00    +0.000 N 
ATOM     22  C   UNL     1      -3.525  12.369  19.001  0.00  0.00    +0.000 C 
ATOM     23  C   UNL     1      -4.964  12.216  19.496  0.00  0.00    +0.000 C 
ATOM     24  O   UNL     1      -5.897  12.361  18.413  0.00  0.00    +0.000 OA
ATOM     25  C   UNL     1      -5.668  11.360  17.407  0.00  0.00    +0.000 C 
ATOM     26  C   UNL     1      -4.244  11.443  16.846  0.00  0.00    +0.000 C 
ENDBRANCH  18  19
ENDBRANCH   6  17
TORSDOF 3
ENDMDL
MODEL 9
REMARK VINA RESULT:      -6.8      3.454      8.217
REMARK  Name = 
REMARK  4 active torsions:
REMARK  status: ('A' for Active; 'I' for Inactive)
REMARK    1  A    between atoms: C_1  and  N_2
REMARK    2  A    between atoms: C_8  and  C_9
REMARK    3  A    between atoms: C_14  and  C_15
REMARK    4  A    between atoms: C_16  and  C_17
REMARK                            x       y       z     vdW  Elec       q    Type
REMARK                         _______ _______ _______ _____ _____    ______ ____
ROOT
ATOM      1  C   UNL     1       0.221  11.185  21.129  0.00  0.00    +0.000 A 
ATOM      2  C   UNL     1      -0.378  11.352  22.388  0.00  0.00    +0.000 A 
ATOM      3  N   UNL     1      -0.788  10.362  23.218  0.00  0.00    +0.000 NA
ATOM      4  C   UNL     1      -0.579   9.107  22.799  0.00  0.00    +0.000 A 
ATOM      5  C   UNL     1       0.022   8.801  21.594  0.00  0.00    +0.000 A 
ATOM      6  C   UNL     1       0.432   9.843  20.745  0.00  0.00    +0.000 A 
ENDROOT
BRANCH   1  14
ATOM      7  C   UNL     1       4.379  14.916  20.633  0.00  0.00    +0.000 C 
ATOM      8  N   UNL     1       3.234  15.004  19.759  0.00  0.00    +0.000 N 
ATOM      9  N   UNL     1       3.130  16.030  18.891  0.00  0.00    +0.000 NA
ATOM     10  C   UNL     1       1.899  15.891  18.393  0.00  0.00    +0.000 A 
ATOM     11  C   UNL     1       1.226  14.760  18.909  0.00  0.00    +0.000 A 
ATOM     12  C   UNL     1      -0.039  14.182  18.761  0.00  0.00    +0.000 A 
ATOM     13  C   UNL     1      -0.326  13.005  19.475  0.00  0.00    +0.000 A 
ATOM     14  C   UNL     1       0.602  12.390  20.344  0.00  0.00    +0.000 A 
ATOM     15  C   UNL     1       1.861  12.999  20.494  0.00  0.00    +0.000 A 
ATOM     16  C   UNL     1       2.141  14.172  19.774  0.00  0.00    +0.000 A 
ENDBRANCH   1  14
BRANCH   6  17
ATOM     17  C   UNL     1       1.073   9.394  19.501  0.00  0.00    +0.000 C 
ATOM     18  C   UNL     1       1.841   8.295  19.421  0.00  0.00    +0.000 C 
BRANCH  18  19
ATOM     19  C   UNL     1       2.585   8.033  18.166  0.00  0.00    +0.000 C 
ATOM     20  O   UNL     1       2.471   8.807  17.217  0.00  0.00    +0.000 OA
ATOM     21  N   UNL     1       3.418   6.931  18.157  0.00  0.00    +0.000 N 
ATOM     22  C   UNL     1       3.367   5.816  19.107  0.00  0.00    +0.000 C 
ATOM     23  C   UNL     1       4.782   5.323  19.412  0.00  0.00    +0.000 C 
ATOM     24  O   UNL     1       5.468   4.952  18.206  0.00  0.00    +0.000 OA
ATOM     25  C   UNL     1       5.576   6.078  17.317  0.00  0.00    +0.000 C 
ATOM     26  C   UNL     1       4.197   6.637  16.950  0.00  0.00    +0.000 C 
ENDBRANCH  18  19
ENDBRANCH   6  17
TORSDOF 3
ENDMDL
