MODEL 1
REMARK VINA RESULT:      -6.3      0.000      0.000
REMARK  Name = 
REMARK  4 active torsions:
REMARK  status: ('A' for Active; 'I' for Inactive)
REMARK    1  A    between atoms: C_1  and  C_2
REMARK    2  A    between atoms: C_4  and  C_5
REMARK    3  A    between atoms: C_13  and  C_14
REMARK    4  A    between atoms: C_16  and  C_17
REMARK                            x       y       z     vdW  Elec       q    Type
REMARK                         _______ _______ _______ _____ _____    ______ ____
ROOT
ATOM      1  C   UNL     1       1.046   2.641  18.954  0.00  0.00    +0.000 C 
ATOM      2  C   UNL     1       2.023   2.959  20.084  0.00  0.00    +0.000 C 
ATOM      3  C   UNL     1       1.506   4.051  21.030  0.00  0.00    +0.000 C 
ATOM      4  C   UNL     1       1.642   5.453  20.431  0.00  0.00    +0.000 C 
ATOM      5  C   UNL     1       1.190   6.538  21.397  0.00  0.00    +0.000 C 
ATOM      6  C   UNL     1       3.090   5.759  20.025  0.00  0.00    +0.000 C 
ATOM      7  C   UNL     1       3.565   4.799  18.954  0.00  0.00    +0.000 C 
ATOM      8  C   UNL     1       3.418   3.337  19.552  0.00  0.00    +0.000 C 
ATOM      9  O   UNL     1       2.740   4.954  17.742  0.00  0.00    +0.000 OA
ATOM     10  O   UNL     1       3.273   6.036  16.801  0.00  0.00    +0.000 OA
ATOM     11  C   UNL     1       4.624   5.728  16.561  0.00  0.00    +0.000 C 
ATOM     12  C   UNL     1       4.667   4.109  16.313  0.00  0.00    +0.000 C 
ATOM     13  C   UNL     1       6.104   3.895  15.970  0.00  0.00    +0.000 C 
ATOM     14  C   UNL     1       7.288   4.436  16.926  0.00  0.00    +0.000 C 
ATOM     15  C   UNL     1       6.507   3.813  14.547  0.00  0.00    +0.000 C 
ATOM     16  C   UNL     1       6.854   5.392  14.251  0.00  0.00    +0.000 C 
ATOM     17  C   UNL     1       7.989   5.093  13.262  0.00  0.00    +0.000 C 
ATOM     18  C   UNL     1       5.595   6.488  15.108  0.00  0.00    +0.000 C 
ATOM     19  O   UNL     1       5.231   6.098  17.811  0.00  0.00    +0.000 OA
ATOM     20  O   UNL     1       4.990   4.978  18.766  0.00  0.00    +0.000 OA
ENDROOT
TORSDOF 0
ENDMDL
MODEL 2
REMARK VINA RESULT:      -6.2      1.544      6.412
REMARK  Name = 
REMARK  4 active torsions:
REMARK  status: ('A' for Active; 'I' for Inactive)
REMARK    1  A    between atoms: C_1  and  C_2
REMARK    2  A    between atoms: C_4  and  C_5
REMARK    3  A    between atoms: C_13  and  C_14
REMARK    4  A    between atoms: C_16  and  C_17
REMARK                            x       y       z     vdW  Elec       q    Type
REMARK                         _______ _______ _______ _____ _____    ______ ____
ROOT
ATOM      1  C   UNL     1       6.160   7.112  16.673  0.00  0.00    +0.000 C 
ATOM      2  C   UNL     1       6.996   5.836  16.581  0.00  0.00    +0.000 C 
ATOM      3  C   UNL     1       7.098   5.292  15.150  0.00  0.00    +0.000 C 
ATOM      4  C   UNL     1       5.823   4.566  14.710  0.00  0.00    +0.000 C 
ATOM      5  C   UNL     1       5.951   3.972  13.315  0.00  0.00    +0.000 C 
ATOM      6  C   UNL     1       5.455   3.431  15.674  0.00  0.00    +0.000 C 
ATOM      7  C   UNL     1       5.171   3.969  17.060  0.00  0.00    +0.000 C 
ATOM      8  C   UNL     1       6.478   4.738  17.529  0.00  0.00    +0.000 C 
ATOM      9  O   UNL     1       4.015   4.883  17.015  0.00  0.00    +0.000 OA
ATOM     10  O   UNL     1       2.682   4.154  17.187  0.00  0.00    +0.000 OA
ATOM     11  C   UNL     1       2.789   3.393  18.365  0.00  0.00    +0.000 C 
ATOM     12  C   UNL     1       3.512   4.378  19.457  0.00  0.00    +0.000 C 
ATOM     13  C   UNL     1       3.489   3.531  20.686  0.00  0.00    +0.000 C 
ATOM     14  C   UNL     1       4.074   2.026  20.683  0.00  0.00    +0.000 C 
ATOM     15  C   UNL     1       2.412   3.726  21.684  0.00  0.00    +0.000 C 
ATOM     16  C   UNL     1       1.305   2.645  21.133  0.00  0.00    +0.000 C 
ATOM     17  C   UNL     1       0.775   2.279  22.525  0.00  0.00    +0.000 C 
ATOM     18  C   UNL     1       1.261   2.683  19.257  0.00  0.00    +0.000 C 
ATOM     19  O   UNL     1       3.657   2.327  17.943  0.00  0.00    +0.000 OA
ATOM     20  O   UNL     1       5.051   2.855  17.978  0.00  0.00    +0.000 OA
ENDROOT
TORSDOF 0
ENDMDL
MODEL 3
REMARK VINA RESULT:      -6.1      7.668     10.211
REMARK  Name = 
REMARK  4 active torsions:
REMARK  status: ('A' for Active; 'I' for Inactive)
REMARK    1  A    between atoms: C_1  and  C_2
REMARK    2  A    between atoms: C_4  and  C_5
REMARK    3  A    between atoms: C_13  and  C_14
REMARK    4  A    between atoms: C_16  and  C_17
REMARK                            x       y       z     vdW  Elec       q    Type
REMARK                         _______ _______ _______ _____ _____    ______ ____
ROOT
ATOM      1  C   UNL     1      -4.851  13.349  22.452  0.00  0.00    +0.000 C 
ATOM      2  C   UNL     1      -4.056  12.972  23.701  0.00  0.00    +0.000 C 
ATOM      3  C   UNL     1      -3.677  14.189  24.555  0.00  0.00    +0.000 C 
ATOM      4  C   UNL     1      -2.501  14.972  23.964  0.00  0.00    +0.000 C 
ATOM      5  C   UNL     1      -2.085  16.139  24.847  0.00  0.00    +0.000 C 
ATOM      6  C   UNL     1      -1.271  14.078  23.755  0.00  0.00    +0.000 C 
ATOM      7  C   UNL     1      -1.571  12.968  22.770  0.00  0.00    +0.000 C 
ATOM      8  C   UNL     1      -2.799  12.152  23.359  0.00  0.00    +0.000 C 
ATOM      9  O   UNL     1      -1.909  13.544  21.456  0.00  0.00    +0.000 OA
ATOM     10  O   UNL     1      -0.676  13.784  20.584  0.00  0.00    +0.000 OA
ATOM     11  C   UNL     1       0.023  12.565  20.533  0.00  0.00    +0.000 C 
ATOM     12  C   UNL     1      -1.121  11.413  20.311  0.00  0.00    +0.000 C 
ATOM     13  C   UNL     1      -0.288  10.183  20.169  0.00  0.00    +0.000 C 
ATOM     14  C   UNL     1       0.825   9.788  21.271  0.00  0.00    +0.000 C 
ATOM     15  C   UNL     1       0.041   9.680  18.815  0.00  0.00    +0.000 C 
ATOM     16  C   UNL     1       1.463  10.461  18.551  0.00  0.00    +0.000 C 
ATOM     17  C   UNL     1       2.085   9.325  17.729  0.00  0.00    +0.000 C 
ATOM     18  C   UNL     1       1.356  12.212  19.217  0.00  0.00    +0.000 C 
ATOM     19  O   UNL     1       0.598  12.506  21.850  0.00  0.00    +0.000 OA
ATOM     20  O   UNL     1      -0.469  12.029  22.776  0.00  0.00    +0.000 OA
ENDROOT
TORSDOF 0
ENDMDL
MODEL 4
REMARK VINA RESULT:      -6.1      9.644     12.308
REMARK  Name = 
REMARK  4 active torsions:
REMARK  status: ('A' for Active; 'I' for Inactive)
REMARK    1  A    between atoms: C_1  and  C_2
REMARK    2  A    between atoms: C_4  and  C_5
REMARK    3  A    between atoms: C_13  and  C_14
REMARK    4  A    between atoms: C_16  and  C_17
REMARK                            x       y       z     vdW  Elec       q    Type
REMARK                         _______ _______ _______ _____ _____    ______ ____
ROOT
ATOM      1  C   UNL     1      11.882  11.710  18.539  0.00  0.00    +0.000 C 
ATOM      2  C   UNL     1      10.593  12.134  17.836  0.00  0.00    +0.000 C 
ATOM      3  C   UNL     1      10.781  13.367  16.942  0.00  0.00    +0.000 C 
ATOM      4  C   UNL     1      10.846  14.668  17.747  0.00  0.00    +0.000 C 
ATOM      5  C   UNL     1      10.966  15.893  16.853  0.00  0.00    +0.000 C 
ATOM      6  C   UNL     1       9.607  14.850  18.633  0.00  0.00    +0.000 C 
ATOM      7  C   UNL     1       9.500  13.734  19.650  0.00  0.00    +0.000 C 
ATOM      8  C   UNL     1       9.445  12.374  18.833  0.00  0.00    +0.000 C 
ATOM      9  O   UNL     1      10.672  13.759  20.545  0.00  0.00    +0.000 OA
ATOM     10  O   UNL     1      10.472  14.677  21.751  0.00  0.00    +0.000 OA
ATOM     11  C   UNL     1       9.270  14.280  22.363  0.00  0.00    +0.000 C 
ATOM     12  C   UNL     1       9.306  12.642  22.378  0.00  0.00    +0.000 C 
ATOM     13  C   UNL     1       8.056  12.320  23.126  0.00  0.00    +0.000 C 
ATOM     14  C   UNL     1       6.628  12.933  22.685  0.00  0.00    +0.000 C 
ATOM     15  C   UNL     1       8.132  12.027  24.576  0.00  0.00    +0.000 C 
ATOM     16  C   UNL     1       7.901  13.533  25.191  0.00  0.00    +0.000 C 
ATOM     17  C   UNL     1       7.145  13.053  26.436  0.00  0.00    +0.000 C 
ATOM     18  C   UNL     1       8.819  14.791  24.143  0.00  0.00    +0.000 C 
ATOM     19  O   UNL     1       8.293  14.789  21.438  0.00  0.00    +0.000 OA
ATOM     20  O   UNL     1       8.212  13.822  20.306  0.00  0.00    +0.000 OA
ENDROOT
TORSDOF 0
ENDMDL
MODEL 5
REMARK VINA RESULT:      -5.5      1.321      2.612
REMARK  Name = 
REMARK  4 active torsions:
REMARK  status: ('A' for Active; 'I' for Inactive)
REMARK    1  A    between atoms: C_1  and  C_2
REMARK    2  A    between atoms: C_4  and  C_5
REMARK    3  A    between atoms: C_13  and  C_14
REMARK    4  A    between atoms: C_16  and  C_17
REMARK                            x       y       z     vdW  Elec       q    Type
REMARK                         _______ _______ _______ _____ _____    ______ ____
ROOT
ATOM      1  C   UNL     1       1.873   6.504  20.321  0.00  0.00    +0.000 C 
ATOM      2  C   UNL     1       1.197   5.263  19.740  0.00  0.00    +0.000 C 
ATOM      3  C   UNL     1       1.102   4.110  20.749  0.00  0.00    +0.000 C 
ATOM      4  C   UNL     1       2.436   3.379  20.926  0.00  0.00    +0.000 C 
ATOM      5  C   UNL     1       2.323   2.196  21.875  0.00  0.00    +0.000 C 
ATOM      6  C   UNL     1       2.981   2.860  19.589  0.00  0.00    +0.000 C 
ATOM      7  C   UNL     1       3.255   4.003  18.635  0.00  0.00    +0.000 C 
ATOM      8  C   UNL     1       1.884   4.782  18.449  0.00  0.00    +0.000 C 
ATOM      9  O   UNL     1       4.287   4.890  19.201  0.00  0.00    +0.000 OA
ATOM     10  O   UNL     1       5.706   4.447  18.842  0.00  0.00    +0.000 OA
ATOM     11  C   UNL     1       5.742   4.315  17.442  0.00  0.00    +0.000 C 
ATOM     12  C   UNL     1       4.951   5.625  16.858  0.00  0.00    +0.000 C 
ATOM     13  C   UNL     1       5.128   5.453  15.386  0.00  0.00    +0.000 C 
ATOM     14  C   UNL     1       4.733   4.073  14.646  0.00  0.00    +0.000 C 
ATOM     15  C   UNL     1       6.215   6.185  14.694  0.00  0.00    +0.000 C 
ATOM     16  C   UNL     1       7.422   5.074  14.791  0.00  0.00    +0.000 C 
ATOM     17  C   UNL     1       8.051   5.446  13.442  0.00  0.00    +0.000 C 
ATOM     18  C   UNL     1       7.381   4.240  16.472  0.00  0.00    +0.000 C 
ATOM     19  O   UNL     1       4.994   3.102  17.246  0.00  0.00    +0.000 OA
ATOM     20  O   UNL     1       3.549   3.459  17.325  0.00  0.00    +0.000 OA
ENDROOT
TORSDOF 0
ENDMDL
MODEL 6
REMARK VINA RESULT:      -5.5      6.786      9.309
REMARK  Name = 
REMARK  4 active torsions:
REMARK  status: ('A' for Active; 'I' for Inactive)
REMARK    1  A    between atoms: C_1  and  C_2
REMARK    2  A    between atoms: C_4  and  C_5
REMARK    3  A    between atoms: C_13  and  C_14
REMARK    4  A    between atoms: C_16  and  C_17
REMARK                            x       y       z     vdW  Elec       q    Type
REMARK                         _______ _______ _______ _____ _____    ______ ____
ROOT
ATOM      1  C   UNL     1       0.804  15.627  21.061  0.00  0.00    +0.000 C 
ATOM      2  C   UNL     1      -0.660  15.351  20.723  0.00  0.00    +0.000 C 
ATOM      3  C   UNL     1      -1.582  15.451  21.946  0.00  0.00    +0.000 C 
ATOM      4  C   UNL     1      -1.490  14.217  22.849  0.00  0.00    +0.000 C 
ATOM      5  C   UNL     1      -2.453  14.291  24.024  0.00  0.00    +0.000 C 
ATOM      6  C   UNL     1      -1.786  12.925  22.077  0.00  0.00    +0.000 C 
ATOM      7  C   UNL     1      -0.774  12.711  20.971  0.00  0.00    +0.000 C 
ATOM      8  C   UNL     1      -0.845  13.988  20.031  0.00  0.00    +0.000 C 
ATOM      9  O   UNL     1       0.574  12.562  21.551  0.00  0.00    +0.000 OA
ATOM     10  O   UNL     1       0.898  11.116  21.926  0.00  0.00    +0.000 OA
ATOM     11  C   UNL     1       0.659  10.340  20.777  0.00  0.00    +0.000 C 
ATOM     12  C   UNL     1       1.298  11.193  19.532  0.00  0.00    +0.000 C 
ATOM     13  C   UNL     1       1.091  10.258  18.388  0.00  0.00    +0.000 C 
ATOM     14  C   UNL     1      -0.362   9.630  18.066  0.00  0.00    +0.000 C 
ATOM     15  C   UNL     1       2.204   9.381  17.955  0.00  0.00    +0.000 C 
ATOM     16  C   UNL     1       1.900   8.050  18.869  0.00  0.00    +0.000 C 
ATOM     17  C   UNL     1       2.402   7.052  17.817  0.00  0.00    +0.000 C 
ATOM     18  C   UNL     1       1.346   8.573  20.584  0.00  0.00    +0.000 C 
ATOM     19  O   UNL     1      -0.778  10.321  20.735  0.00  0.00    +0.000 OA
ATOM     20  O   UNL     1      -1.219  11.614  20.137  0.00  0.00    +0.000 OA
ENDROOT
TORSDOF 0
ENDMDL
MODEL 7
REMARK VINA RESULT:      -5.4      7.945     10.565
REMARK  Name = 
REMARK  4 active torsions:
REMARK  status: ('A' for Active; 'I' for Inactive)
REMARK    1  A    between atoms: C_1  and  C_2
REMARK    2  A    between atoms: C_4  and  C_5
REMARK    3  A    between atoms: C_13  and  C_14
REMARK    4  A    between atoms: C_16  and  C_17
REMARK                            x       y       z     vdW  Elec       q    Type
REMARK                         _______ _______ _______ _____ _____    ______ ____
ROOT
ATOM      1  C   UNL     1       2.972  16.618  17.988  0.00  0.00    +0.000 C 
ATOM      2  C   UNL     1       2.696  16.637  19.491  0.00  0.00    +0.000 C 
ATOM      3  C   UNL     1       3.960  16.410  20.331  0.00  0.00    +0.000 C 
ATOM      4  C   UNL     1       4.382  14.938  20.362  0.00  0.00    +0.000 C 
ATOM      5  C   UNL     1       5.596  14.707  21.250  0.00  0.00    +0.000 C 
ATOM      6  C   UNL     1       3.251  14.033  20.867  0.00  0.00    +0.000 C 
ATOM      7  C   UNL     1       2.051  14.103  19.946  0.00  0.00    +0.000 C 
ATOM      8  C   UNL     1       1.606  15.626  19.890  0.00  0.00    +0.000 C 
ATOM      9  O   UNL     1       2.421  13.617  18.604  0.00  0.00    +0.000 OA
ATOM     10  O   UNL     1       2.257  12.103  18.460  0.00  0.00    +0.000 OA
ATOM     11  C   UNL     1       0.941  11.803  18.855  0.00  0.00    +0.000 C 
ATOM     12  C   UNL     1       0.003  12.958  18.168  0.00  0.00    +0.000 C 
ATOM     13  C   UNL     1      -1.365  12.503  18.553  0.00  0.00    +0.000 C 
ATOM     14  C   UNL     1      -1.746  12.189  20.091  0.00  0.00    +0.000 C 
ATOM     15  C   UNL     1      -2.167  11.714  17.590  0.00  0.00    +0.000 C 
ATOM     16  C   UNL     1      -1.731  10.191  18.026  0.00  0.00    +0.000 C 
ATOM     17  C   UNL     1      -3.098   9.568  17.714  0.00  0.00    +0.000 C 
ATOM     18  C   UNL     1       0.104  10.147  18.422  0.00  0.00    +0.000 C 
ATOM     19  O   UNL     1       1.026  11.958  20.283  0.00  0.00    +0.000 OA
ATOM     20  O   UNL     1       0.940  13.418  20.574  0.00  0.00    +0.000 OA
ENDROOT
TORSDOF 0
ENDMDL
MODEL 8
REMARK VINA RESULT:      -5.4      8.223     10.887
REMARK  Name = 
REMARK  4 active torsions:
REMARK  status: ('A' for Active; 'I' for Inactive)
REMARK    1  A    between atoms: C_1  and  C_2
REMARK    2  A    between atoms: C_4  and  C_5
REMARK    3  A    between atoms: C_13  and  C_14
REMARK    4  A    between atoms: C_16  and  C_17
REMARK                            x       y       z     vdW  Elec       q    Type
REMARK                         _______ _______ _______ _____ _____    ______ ____
ROOT
ATOM      1  C   UNL     1      -4.152  12.628  24.557  0.00  0.00    +0.000 C 
ATOM      2  C   UNL     1      -3.305  13.898  24.483  0.00  0.00    +0.000 C 
ATOM      3  C   UNL     1      -4.124  15.139  24.104  0.00  0.00    +0.000 C 
ATOM      4  C   UNL     1      -4.448  15.189  22.608  0.00  0.00    +0.000 C 
ATOM      5  C   UNL     1      -5.203  16.454  22.226  0.00  0.00    +0.000 C 
ATOM      6  C   UNL     1      -3.179  15.121  21.749  0.00  0.00    +0.000 C 
ATOM      7  C   UNL     1      -2.443  13.817  21.974  0.00  0.00    +0.000 C 
ATOM      8  C   UNL     1      -2.111  13.739  23.524  0.00  0.00    +0.000 C 
ATOM      9  O   UNL     1      -3.297  12.686  21.565  0.00  0.00    +0.000 OA
ATOM     10  O   UNL     1      -3.149  12.343  20.082  0.00  0.00    +0.000 OA
ATOM     11  C   UNL     1      -1.775  12.161  19.847  0.00  0.00    +0.000 C 
ATOM     12  C   UNL     1      -1.227  11.278  21.113  0.00  0.00    +0.000 C 
ATOM     13  C   UNL     1       0.198  11.052  20.729  0.00  0.00    +0.000 C 
ATOM     14  C   UNL     1       1.167  12.281  20.328  0.00  0.00    +0.000 C 
ATOM     15  C   UNL     1       0.581   9.780  20.073  0.00  0.00    +0.000 C 
ATOM     16  C   UNL     1       0.407  10.202  18.495  0.00  0.00    +0.000 C 
ATOM     17  C   UNL     1       1.560   9.322  17.996  0.00  0.00    +0.000 C 
ATOM     18  C   UNL     1      -1.119  11.276  18.292  0.00  0.00    +0.000 C 
ATOM     19  O   UNL     1      -1.293  13.516  19.887  0.00  0.00    +0.000 OA
ATOM     20  O   UNL     1      -1.151  13.891  21.324  0.00  0.00    +0.000 OA
ENDROOT
TORSDOF 0
ENDMDL
MODEL 9
REMARK VINA RESULT:      -5.2      7.432     11.413
REMARK  Name = 
REMARK  4 active torsions:
REMARK  status: ('A' for Active; 'I' for Inactive)
REMARK    1  A    between atoms: C_1  and  C_2
REMARK    2  A    between atoms: C_4  and  C_5
REMARK    3  A    between atoms: C_13  and  C_14
REMARK    4  A    between atoms: C_16  and  C_17
REMARK                            x       y       z     vdW  Elec       q    Type
REMARK                         _______ _______ _______ _____ _____    ______ ____
ROOT
ATOM      1  C   UNL     1       1.474   9.111  22.366  0.00  0.00    +0.000 C 
ATOM      2  C   UNL     1       0.483   8.826  21.238  0.00  0.00    +0.000 C 
ATOM      3  C   UNL     1       1.129   8.887  19.848  0.00  0.00    +0.000 C 
ATOM      4  C   UNL     1       1.356  10.325  19.373  0.00  0.00    +0.000 C 
ATOM      5  C   UNL     1       1.936  10.381  17.967  0.00  0.00    +0.000 C 
ATOM      6  C   UNL     1       0.055  11.137  19.378  0.00  0.00    +0.000 C 
ATOM      7  C   UNL     1      -0.509  11.245  20.779  0.00  0.00    +0.000 C 
ATOM      8  C   UNL     1      -0.739   9.761  21.295  0.00  0.00    +0.000 C 
ATOM      9  O   UNL     1       0.444  11.959  21.649  0.00  0.00    +0.000 OA
ATOM     10  O   UNL     1       0.251  13.475  21.614  0.00  0.00    +0.000 OA
ATOM     11  C   UNL     1      -1.105  13.714  21.902  0.00  0.00    +0.000 C 
ATOM     12  C   UNL     1      -1.472  12.710  23.144  0.00  0.00    +0.000 C 
ATOM     13  C   UNL     1      -2.880  13.103  23.443  0.00  0.00    +0.000 C 
ATOM     14  C   UNL     1      -4.007  13.141  22.286  0.00  0.00    +0.000 C 
ATOM     15  C   UNL     1      -3.152  14.060  24.540  0.00  0.00    +0.000 C 
ATOM     16  C   UNL     1      -3.120  15.476  23.707  0.00  0.00    +0.000 C 
ATOM     17  C   UNL     1      -4.190  16.158  24.569  0.00  0.00    +0.000 C 
ATOM     18  C   UNL     1      -1.744  15.429  22.432  0.00  0.00    +0.000 C 
ATOM     19  O   UNL     1      -1.737  13.306  20.676  0.00  0.00    +0.000 OA
ATOM     20  O   UNL     1      -1.837  11.819  20.705  0.00  0.00    +0.000 OA
ENDROOT
TORSDOF 0
ENDMDL
