MODEL 1
REMARK VINA RESULT:      -7.5      0.000      0.000
REMARK  Name = 
REMARK  6 active torsions:
REMARK  status: ('A' for Active; 'I' for Inactive)
REMARK    1  A    between atoms: C_2  and  C_10
REMARK    2  A    between atoms: N_3  and  C_4
REMARK    3  A    between atoms: C_4  and  C_5
REMARK    4  A    between atoms: C_13  and  C_14
REMARK    5  A    between atoms: C_14  and  O_15
REMARK    6  A    between atoms: O_15  and  C_16
REMARK                            x       y       z     vdW  Elec       q    Type
REMARK                         _______ _______ _______ _____ _____    ______ ____
ROOT
ATOM      1  C   UNL     1       5.575   5.773  17.993  0.00  0.00    +0.000 A 
ATOM      2  C   UNL     1       6.600   5.195  18.721  0.00  0.00    +0.000 A 
ATOM      3  C   UNL     1       7.687   6.090  18.691  0.00  0.00    +0.000 A 
ATOM      4  C   UNL     1       7.274   7.180  17.953  0.00  0.00    +0.000 A 
ATOM      5  O   UNL     1       5.993   6.989  17.504  0.00  0.00    +0.000 OA
ENDROOT
BRANCH   1   7
ATOM      6  O   UNL     1       3.252   6.021  17.752  0.00  0.00    +0.000 OA
ATOM      7  C   UNL     1       4.232   5.279  17.760  0.00  0.00    +0.000 C 
ATOM      8  N   UNL     1       4.106   3.919  17.569  0.00  0.00    +0.000 N 
ATOM      9  H   UNL     1       4.921   3.336  17.709  0.00  0.00    +0.000 HD
BRANCH   8  10
ATOM     10  C   UNL     1       2.809   3.289  17.380  0.00  0.00    +0.000 C 
BRANCH  10  11
ATOM     11  C   UNL     1       2.219   2.664  18.653  0.00  0.00    +0.000 C 
ATOM     12  C   UNL     1       1.102   3.439  19.335  0.00  0.00    +0.000 C 
ATOM     13  C   UNL     1       1.240   3.004  20.772  0.00  0.00    +0.000 C 
ATOM     14  C   UNL     1       2.738   2.845  20.920  0.00  0.00    +0.000 C 
ATOM     15  O   UNL     1       3.257   2.476  19.636  0.00  0.00    +0.000 OA
ENDBRANCH  10  11
ENDBRANCH   8  10
ENDBRANCH   1   7
BRANCH   4  16
ATOM     16  C   UNL     1       7.941   8.472  17.632  0.00  0.00    +0.000 C 
BRANCH  16  17
ATOM     17  O   UNL     1       8.725   8.834  18.767  0.00  0.00    +0.000 OA
BRANCH  17  18
ATOM     18  C   UNL     1       9.067  10.153  18.894  0.00  0.00    +0.000 A 
ATOM     19  C   UNL     1       8.935  11.139  17.912  0.00  0.00    +0.000 A 
ATOM     20  C   UNL     1       9.329  12.454  18.184  0.00  0.00    +0.000 A 
ATOM     21  C   UNL     1       9.853  12.778  19.431  0.00  0.00    +0.000 A 
ATOM     22  F   UNL     1      10.230  14.037  19.683  0.00  0.00    +0.000 F 
ATOM     23  C   UNL     1       9.990  11.807  20.415  0.00  0.00    +0.000 A 
ATOM     24  C   UNL     1       9.598  10.497  20.144  0.00  0.00    +0.000 A 
ENDBRANCH  17  18
ENDBRANCH  16  17
ENDBRANCH   4  16
TORSDOF 6
ENDMDL
MODEL 2
REMARK VINA RESULT:      -7.4      0.982      1.377
REMARK  Name = 
REMARK  6 active torsions:
REMARK  status: ('A' for Active; 'I' for Inactive)
REMARK    1  A    between atoms: C_2  and  C_10
REMARK    2  A    between atoms: N_3  and  C_4
REMARK    3  A    between atoms: C_4  and  C_5
REMARK    4  A    between atoms: C_13  and  C_14
REMARK    5  A    between atoms: C_14  and  O_15
REMARK    6  A    between atoms: O_15  and  C_16
REMARK                            x       y       z     vdW  Elec       q    Type
REMARK                         _______ _______ _______ _____ _____    ______ ____
ROOT
ATOM      1  C   UNL     1       5.977   6.003  17.924  0.00  0.00    +0.000 A 
ATOM      2  C   UNL     1       7.018   5.415  18.622  0.00  0.00    +0.000 A 
ATOM      3  C   UNL     1       8.059   6.361  18.688  0.00  0.00    +0.000 A 
ATOM      4  C   UNL     1       7.605   7.489  18.036  0.00  0.00    +0.000 A 
ATOM      5  O   UNL     1       6.343   7.275  17.547  0.00  0.00    +0.000 OA
ENDROOT
BRANCH   1   7
ATOM      6  O   UNL     1       4.422   4.876  16.572  0.00  0.00    +0.000 OA
ATOM      7  C   UNL     1       4.664   5.466  17.623  0.00  0.00    +0.000 C 
ATOM      8  N   UNL     1       3.687   5.674  18.574  0.00  0.00    +0.000 N 
ATOM      9  H   UNL     1       3.901   6.272  19.361  0.00  0.00    +0.000 HD
BRANCH   8  10
ATOM     10  C   UNL     1       2.316   5.235  18.370  0.00  0.00    +0.000 C 
BRANCH  10  11
ATOM     11  C   UNL     1       1.953   3.934  19.102  0.00  0.00    +0.000 C 
ATOM     12  C   UNL     1       0.937   4.050  20.229  0.00  0.00    +0.000 C 
ATOM     13  C   UNL     1       1.315   2.894  21.121  0.00  0.00    +0.000 C 
ATOM     14  C   UNL     1       2.821   2.851  20.977  0.00  0.00    +0.000 C 
ATOM     15  O   UNL     1       3.139   3.341  19.668  0.00  0.00    +0.000 OA
ENDBRANCH  10  11
ENDBRANCH   8  10
ENDBRANCH   1   7
BRANCH   4  16
ATOM     16  C   UNL     1       8.212   8.834  17.838  0.00  0.00    +0.000 C 
BRANCH  16  17
ATOM     17  O   UNL     1       8.872   9.180  19.053  0.00  0.00    +0.000 OA
BRANCH  17  18
ATOM     18  C   UNL     1       9.351  10.458  19.162  0.00  0.00    +0.000 A 
ATOM     19  C   UNL     1       9.486  11.191  20.345  0.00  0.00    +0.000 A 
ATOM     20  C   UNL     1       9.992  12.495  20.306  0.00  0.00    +0.000 A 
ATOM     21  C   UNL     1      10.361  13.059  19.089  0.00  0.00    +0.000 A 
ATOM     22  F   UNL     1      10.844  14.307  19.059  0.00  0.00    +0.000 F 
ATOM     23  C   UNL     1      10.233  12.342  17.908  0.00  0.00    +0.000 A 
ATOM     24  C   UNL     1       9.727  11.042  17.946  0.00  0.00    +0.000 A 
ENDBRANCH  17  18
ENDBRANCH  16  17
ENDBRANCH   4  16
TORSDOF 6
ENDMDL
MODEL 3
REMARK VINA RESULT:      -7.4      1.346      1.473
REMARK  Name = 
REMARK  6 active torsions:
REMARK  status: ('A' for Active; 'I' for Inactive)
REMARK    1  A    between atoms: C_2  and  C_10
REMARK    2  A    between atoms: N_3  and  C_4
REMARK    3  A    between atoms: C_4  and  C_5
REMARK    4  A    between atoms: C_13  and  C_14
REMARK    5  A    between atoms: C_14  and  O_15
REMARK    6  A    between atoms: O_15  and  C_16
REMARK                            x       y       z     vdW  Elec       q    Type
REMARK                         _______ _______ _______ _____ _____    ______ ____
ROOT
ATOM      1  C   UNL     1       6.532   6.361  17.550  0.00  0.00    +0.000 A 
ATOM      2  C   UNL     1       7.451   5.953  18.501  0.00  0.00    +0.000 A 
ATOM      3  C   UNL     1       8.328   7.032  18.721  0.00  0.00    +0.000 A 
ATOM      4  C   UNL     1       7.900   8.056  17.902  0.00  0.00    +0.000 A 
ATOM      5  O   UNL     1       6.817   7.651  17.166  0.00  0.00    +0.000 OA
ENDROOT
BRANCH   1   7
ATOM      6  O   UNL     1       5.282   5.398  15.811  0.00  0.00    +0.000 OA
ATOM      7  C   UNL     1       5.396   5.638  17.011  0.00  0.00    +0.000 C 
ATOM      8  N   UNL     1       4.433   5.251  17.918  0.00  0.00    +0.000 N 
ATOM      9  H   UNL     1       4.510   5.581  18.872  0.00  0.00    +0.000 HD
BRANCH   8  10
ATOM     10  C   UNL     1       3.218   4.569  17.501  0.00  0.00    +0.000 C 
BRANCH  10  11
ATOM     11  C   UNL     1       2.627   3.625  18.559  0.00  0.00    +0.000 C 
ATOM     12  C   UNL     1       1.200   3.154  18.326  0.00  0.00    +0.000 C 
ATOM     13  C   UNL     1       0.716   2.891  19.730  0.00  0.00    +0.000 C 
ATOM     14  C   UNL     1       1.418   3.972  20.524  0.00  0.00    +0.000 C 
ATOM     15  O   UNL     1       2.652   4.260  19.853  0.00  0.00    +0.000 OA
ENDBRANCH  10  11
ENDBRANCH   8  10
ENDBRANCH   1   7
BRANCH   4  16
ATOM     16  C   UNL     1       8.369   9.461  17.739  0.00  0.00    +0.000 C 
BRANCH  16  17
ATOM     17  O   UNL     1       8.925   9.865  18.989  0.00  0.00    +0.000 OA
BRANCH  17  18
ATOM     18  C   UNL     1       9.774  10.938  18.976  0.00  0.00    +0.000 A 
ATOM     19  C   UNL     1      10.327  11.540  17.842  0.00  0.00    +0.000 A 
ATOM     20  C   UNL     1      11.186  12.636  17.980  0.00  0.00    +0.000 A 
ATOM     21  C   UNL     1      11.488  13.125  19.246  0.00  0.00    +0.000 A 
ATOM     22  F   UNL     1      12.312  14.173  19.372  0.00  0.00    +0.000 F 
ATOM     23  C   UNL     1      10.946  12.537  20.381  0.00  0.00    +0.000 A 
ATOM     24  C   UNL     1      10.090  11.443  20.243  0.00  0.00    +0.000 A 
ENDBRANCH  17  18
ENDBRANCH  16  17
ENDBRANCH   4  16
TORSDOF 6
ENDMDL
MODEL 4
REMARK VINA RESULT:      -7.3      4.826      6.471
REMARK  Name = 
REMARK  6 active torsions:
REMARK  status: ('A' for Active; 'I' for Inactive)
REMARK    1  A    between atoms: C_2  and  C_10
REMARK    2  A    between atoms: N_3  and  C_4
REMARK    3  A    between atoms: C_4  and  C_5
REMARK    4  A    between atoms: C_13  and  C_14
REMARK    5  A    between atoms: C_14  and  O_15
REMARK    6  A    between atoms: O_15  and  C_16
REMARK                            x       y       z     vdW  Elec       q    Type
REMARK                         _______ _______ _______ _____ _____    ______ ____
ROOT
ATOM      1  C   UNL     1       4.040   5.815  17.713  0.00  0.00    +0.000 A 
ATOM      2  C   UNL     1       4.353   7.131  17.422  0.00  0.00    +0.000 A 
ATOM      3  C   UNL     1       5.671   7.144  16.924  0.00  0.00    +0.000 A 
ATOM      4  C   UNL     1       6.101   5.833  16.923  0.00  0.00    +0.000 A 
ATOM      5  O   UNL     1       5.121   5.015  17.423  0.00  0.00    +0.000 OA
ENDROOT
BRANCH   1   7
ATOM      6  O   UNL     1       2.081   5.865  19.005  0.00  0.00    +0.000 OA
ATOM      7  C   UNL     1       2.794   5.262  18.206  0.00  0.00    +0.000 C 
ATOM      8  N   UNL     1       2.458   4.006  17.747  0.00  0.00    +0.000 N 
ATOM      9  H   UNL     1       3.136   3.500  17.192  0.00  0.00    +0.000 HD
BRANCH   8  10
ATOM     10  C   UNL     1       1.263   3.317  18.207  0.00  0.00    +0.000 C 
BRANCH  10  11
ATOM     11  C   UNL     1       1.450   2.528  19.511  0.00  0.00    +0.000 C 
ATOM     12  C   UNL     1       0.909   3.173  20.778  0.00  0.00    +0.000 C 
ATOM     13  C   UNL     1       1.801   2.586  21.843  0.00  0.00    +0.000 C 
ATOM     14  C   UNL     1       3.131   2.475  21.129  0.00  0.00    +0.000 C 
ATOM     15  O   UNL     1       2.852   2.276  19.737  0.00  0.00    +0.000 OA
ENDBRANCH  10  11
ENDBRANCH   8  10
ENDBRANCH   1   7
BRANCH   4  16
ATOM     16  C   UNL     1       7.363   5.202  16.448  0.00  0.00    +0.000 C 
BRANCH  16  17
ATOM     17  O   UNL     1       7.522   5.561  15.077  0.00  0.00    +0.000 OA
BRANCH  17  18
ATOM     18  C   UNL     1       6.864   4.797  14.151  0.00  0.00    +0.000 A 
ATOM     19  C   UNL     1       5.602   4.218  14.305  0.00  0.00    +0.000 A 
ATOM     20  C   UNL     1       5.050   3.457  13.269  0.00  0.00    +0.000 A 
ATOM     21  C   UNL     1       5.760   3.277  12.086  0.00  0.00    +0.000 A 
ATOM     22  F   UNL     1       5.227   2.546  11.099  0.00  0.00    +0.000 F 
ATOM     23  C   UNL     1       7.015   3.847  11.920  0.00  0.00    +0.000 A 
ATOM     24  C   UNL     1       7.566   4.605  12.954  0.00  0.00    +0.000 A 
ENDBRANCH  17  18
ENDBRANCH  16  17
ENDBRANCH   4  16
TORSDOF 6
ENDMDL
MODEL 5
REMARK VINA RESULT:      -7.3      1.366      1.816
REMARK  Name = 
REMARK  6 active torsions:
REMARK  status: ('A' for Active; 'I' for Inactive)
REMARK    1  A    between atoms: C_2  and  C_10
REMARK    2  A    between atoms: N_3  and  C_4
REMARK    3  A    between atoms: C_4  and  C_5
REMARK    4  A    between atoms: C_13  and  C_14
REMARK    5  A    between atoms: C_14  and  O_15
REMARK    6  A    between atoms: O_15  and  C_16
REMARK                            x       y       z     vdW  Elec       q    Type
REMARK                         _______ _______ _______ _____ _____    ______ ____
ROOT
ATOM      1  C   UNL     1       6.714   6.390  17.434  0.00  0.00    +0.000 A 
ATOM      2  C   UNL     1       7.536   6.079  18.502  0.00  0.00    +0.000 A 
ATOM      3  C   UNL     1       8.316   7.220  18.773  0.00  0.00    +0.000 A 
ATOM      4  C   UNL     1       7.927   8.182  17.864  0.00  0.00    +0.000 A 
ATOM      5  O   UNL     1       6.964   7.680  17.027  0.00  0.00    +0.000 OA
ENDROOT
BRANCH   1   7
ATOM      6  O   UNL     1       5.243   5.838  15.689  0.00  0.00    +0.000 OA
ATOM      7  C   UNL     1       5.694   5.575  16.801  0.00  0.00    +0.000 C 
ATOM      8  N   UNL     1       5.238   4.496  17.527  0.00  0.00    +0.000 N 
ATOM      9  H   UNL     1       5.547   4.395  18.485  0.00  0.00    +0.000 HD
BRANCH   8  10
ATOM     10  C   UNL     1       4.178   3.632  17.031  0.00  0.00    +0.000 C 
BRANCH  10  11
ATOM     11  C   UNL     1       3.591   2.682  18.085  0.00  0.00    +0.000 C 
ATOM     12  C   UNL     1       2.089   2.445  18.022  0.00  0.00    +0.000 C 
ATOM     13  C   UNL     1       1.757   2.116  19.456  0.00  0.00    +0.000 C 
ATOM     14  C   UNL     1       2.714   3.001  20.223  0.00  0.00    +0.000 C 
ATOM     15  O   UNL     1       3.880   3.176  19.408  0.00  0.00    +0.000 OA
ENDBRANCH  10  11
ENDBRANCH   8  10
ENDBRANCH   1   7
BRANCH   4  16
ATOM     16  C   UNL     1       8.327   9.607  17.692  0.00  0.00    +0.000 C 
BRANCH  16  17
ATOM     17  O   UNL     1       9.018   9.994  18.878  0.00  0.00    +0.000 OA
BRANCH  17  18
ATOM     18  C   UNL     1       9.764  11.140  18.820  0.00  0.00    +0.000 A 
ATOM     19  C   UNL     1      10.920  11.411  19.559  0.00  0.00    +0.000 A 
ATOM     20  C   UNL     1      11.583  12.632  19.397  0.00  0.00    +0.000 A 
ATOM     21  C   UNL     1      11.092  13.575  18.500  0.00  0.00    +0.000 A 
ATOM     22  F   UNL     1      11.731  14.742  18.351  0.00  0.00    +0.000 F 
ATOM     23  C   UNL     1       9.945  13.319  17.760  0.00  0.00    +0.000 A 
ATOM     24  C   UNL     1       9.283  12.102  17.923  0.00  0.00    +0.000 A 
ENDBRANCH  17  18
ENDBRANCH  16  17
ENDBRANCH   4  16
TORSDOF 6
ENDMDL
MODEL 6
REMARK VINA RESULT:      -7.3      3.856      9.441
REMARK  Name = 
REMARK  6 active torsions:
REMARK  status: ('A' for Active; 'I' for Inactive)
REMARK    1  A    between atoms: C_2  and  C_10
REMARK    2  A    between atoms: N_3  and  C_4
REMARK    3  A    between atoms: C_4  and  C_5
REMARK    4  A    between atoms: C_13  and  C_14
REMARK    5  A    between atoms: C_14  and  O_15
REMARK    6  A    between atoms: O_15  and  C_16
REMARK                            x       y       z     vdW  Elec       q    Type
REMARK                         _______ _______ _______ _____ _____    ______ ____
ROOT
ATOM      1  C   UNL     1       7.789   7.812  18.004  0.00  0.00    +0.000 A 
ATOM      2  C   UNL     1       8.190   6.700  18.724  0.00  0.00    +0.000 A 
ATOM      3  C   UNL     1       7.551   5.583  18.153  0.00  0.00    +0.000 A 
ATOM      4  C   UNL     1       6.795   6.061  17.102  0.00  0.00    +0.000 A 
ATOM      5  O   UNL     1       6.916   7.423  17.015  0.00  0.00    +0.000 OA
ENDROOT
BRANCH   1   7
ATOM      6  O   UNL     1       7.753  10.094  17.451  0.00  0.00    +0.000 OA
ATOM      7  C   UNL     1       8.197   9.195  18.162  0.00  0.00    +0.000 C 
ATOM      8  N   UNL     1       9.133   9.447  19.142  0.00  0.00    +0.000 N 
ATOM      9  H   UNL     1       9.560   8.661  19.613  0.00  0.00    +0.000 HD
BRANCH   8  10
ATOM     10  C   UNL     1       9.667  10.782  19.365  0.00  0.00    +0.000 C 
BRANCH  10  11
ATOM     11  C   UNL     1      10.481  11.342  18.189  0.00  0.00    +0.000 C 
ATOM     12  C   UNL     1      11.892  11.815  18.505  0.00  0.00    +0.000 C 
ATOM     13  C   UNL     1      12.122  12.865  17.448  0.00  0.00    +0.000 C 
ATOM     14  C   UNL     1      10.748  13.481  17.296  0.00  0.00    +0.000 C 
ATOM     15  O   UNL     1       9.787  12.461  17.600  0.00  0.00    +0.000 OA
ENDBRANCH  10  11
ENDBRANCH   8  10
ENDBRANCH   1   7
BRANCH   4  16
ATOM     16  C   UNL     1       5.961   5.367  16.082  0.00  0.00    +0.000 C 
BRANCH  16  17
ATOM     17  O   UNL     1       4.597   5.621  16.411  0.00  0.00    +0.000 OA
BRANCH  17  18
ATOM     18  C   UNL     1       3.933   4.651  17.112  0.00  0.00    +0.000 A 
ATOM     19  C   UNL     1       4.274   3.297  17.173  0.00  0.00    +0.000 A 
ATOM     20  C   UNL     1       3.500   2.413  17.933  0.00  0.00    +0.000 A 
ATOM     21  C   UNL     1       2.389   2.885  18.626  0.00  0.00    +0.000 A 
ATOM     22  F   UNL     1       1.651   2.034  19.350  0.00  0.00    +0.000 F 
ATOM     23  C   UNL     1       2.039   4.227  18.573  0.00  0.00    +0.000 A 
ATOM     24  C   UNL     1       2.811   5.107  17.815  0.00  0.00    +0.000 A 
ENDBRANCH  17  18
ENDBRANCH  16  17
ENDBRANCH   4  16
TORSDOF 6
ENDMDL
MODEL 7
REMARK VINA RESULT:      -7.2      3.499      5.598
REMARK  Name = 
REMARK  6 active torsions:
REMARK  status: ('A' for Active; 'I' for Inactive)
REMARK    1  A    between atoms: C_2  and  C_10
REMARK    2  A    between atoms: N_3  and  C_4
REMARK    3  A    between atoms: C_4  and  C_5
REMARK    4  A    between atoms: C_13  and  C_14
REMARK    5  A    between atoms: C_14  and  O_15
REMARK    6  A    between atoms: O_15  and  C_16
REMARK                            x       y       z     vdW  Elec       q    Type
REMARK                         _______ _______ _______ _____ _____    ______ ____
ROOT
ATOM      1  C   UNL     1       2.726   4.364  19.240  0.00  0.00    +0.000 A 
ATOM      2  C   UNL     1       3.188   3.081  19.472  0.00  0.00    +0.000 A 
ATOM      3  C   UNL     1       4.008   2.731  18.381  0.00  0.00    +0.000 A 
ATOM      4  C   UNL     1       4.018   3.822  17.536  0.00  0.00    +0.000 A 
ATOM      5  O   UNL     1       3.222   4.817  18.040  0.00  0.00    +0.000 OA
ENDROOT
BRANCH   1   7
ATOM      6  O   UNL     1       0.905   4.751  20.671  0.00  0.00    +0.000 OA
ATOM      7  C   UNL     1       1.887   5.196  20.082  0.00  0.00    +0.000 C 
ATOM      8  N   UNL     1       2.237   6.527  20.168  0.00  0.00    +0.000 N 
ATOM      9  H   UNL     1       2.975   6.870  19.567  0.00  0.00    +0.000 HD
BRANCH   8  10
ATOM     10  C   UNL     1       1.447   7.478  20.933  0.00  0.00    +0.000 C 
BRANCH  10  11
ATOM     11  C   UNL     1       1.383   8.885  20.319  0.00  0.00    +0.000 C 
ATOM     12  C   UNL     1       0.068   9.634  20.475  0.00  0.00    +0.000 C 
ATOM     13  C   UNL     1       0.075  10.546  19.274  0.00  0.00    +0.000 C 
ATOM     14  C   UNL     1       0.755   9.696  18.223  0.00  0.00    +0.000 C 
ATOM     15  O   UNL     1       1.661   8.818  18.905  0.00  0.00    +0.000 OA
ENDBRANCH  10  11
ENDBRANCH   8  10
ENDBRANCH   1   7
BRANCH   4  16
ATOM     16  C   UNL     1       4.752   4.089  16.268  0.00  0.00    +0.000 C 
BRANCH  16  17
ATOM     17  O   UNL     1       6.145   3.994  16.562  0.00  0.00    +0.000 OA
BRANCH  17  18
ATOM     18  C   UNL     1       6.747   5.102  17.094  0.00  0.00    +0.000 A 
ATOM     19  C   UNL     1       6.745   6.387  16.545  0.00  0.00    +0.000 A 
ATOM     20  C   UNL     1       7.408   7.430  17.203  0.00  0.00    +0.000 A 
ATOM     21  C   UNL     1       8.068   7.185  18.402  0.00  0.00    +0.000 A 
ATOM     22  F   UNL     1       8.701   8.186  19.025  0.00  0.00    +0.000 F 
ATOM     23  C   UNL     1       8.077   5.913  18.958  0.00  0.00    +0.000 A 
ATOM     24  C   UNL     1       7.418   4.873  18.302  0.00  0.00    +0.000 A 
ENDBRANCH  17  18
ENDBRANCH  16  17
ENDBRANCH   4  16
TORSDOF 6
ENDMDL
MODEL 8
REMARK VINA RESULT:      -7.2      3.687      9.063
REMARK  Name = 
REMARK  6 active torsions:
REMARK  status: ('A' for Active; 'I' for Inactive)
REMARK    1  A    between atoms: C_2  and  C_10
REMARK    2  A    between atoms: N_3  and  C_4
REMARK    3  A    between atoms: C_4  and  C_5
REMARK    4  A    between atoms: C_13  and  C_14
REMARK    5  A    between atoms: C_14  and  O_15
REMARK    6  A    between atoms: O_15  and  C_16
REMARK                            x       y       z     vdW  Elec       q    Type
REMARK                         _______ _______ _______ _____ _____    ______ ____
ROOT
ATOM      1  C   UNL     1       6.914   6.070  17.227  0.00  0.00    +0.000 A 
ATOM      2  C   UNL     1       7.121   5.700  15.910  0.00  0.00    +0.000 A 
ATOM      3  C   UNL     1       6.024   4.905  15.525  0.00  0.00    +0.000 A 
ATOM      4  C   UNL     1       5.190   4.833  16.621  0.00  0.00    +0.000 A 
ATOM      5  O   UNL     1       5.733   5.523  17.673  0.00  0.00    +0.000 OA
ENDROOT
BRANCH   1   7
ATOM      6  O   UNL     1       8.306   6.498  19.069  0.00  0.00    +0.000 OA
ATOM      7  C   UNL     1       7.727   6.923  18.072  0.00  0.00    +0.000 C 
ATOM      8  N   UNL     1       7.798   8.252  17.710  0.00  0.00    +0.000 N 
ATOM      9  H   UNL     1       7.205   8.578  16.958  0.00  0.00    +0.000 HD
BRANCH   8  10
ATOM     10  C   UNL     1       8.534   9.223  18.503  0.00  0.00    +0.000 C 
BRANCH  10  11
ATOM     11  C   UNL     1       9.051  10.429  17.705  0.00  0.00    +0.000 C 
ATOM     12  C   UNL     1      10.205  11.206  18.322  0.00  0.00    +0.000 C 
ATOM     13  C   UNL     1      10.005  12.586  17.748  0.00  0.00    +0.000 C 
ATOM     14  C   UNL     1       8.497  12.696  17.681  0.00  0.00    +0.000 C 
ATOM     15  O   UNL     1       7.981  11.372  17.489  0.00  0.00    +0.000 OA
ENDBRANCH  10  11
ENDBRANCH   8  10
ENDBRANCH   1   7
BRANCH   4  16
ATOM     16  C   UNL     1       3.852   4.207  16.813  0.00  0.00    +0.000 C 
BRANCH  16  17
ATOM     17  O   UNL     1       3.103   5.070  17.666  0.00  0.00    +0.000 OA
BRANCH  17  18
ATOM     18  C   UNL     1       2.582   4.522  18.807  0.00  0.00    +0.000 A 
ATOM     19  C   UNL     1       2.911   4.878  20.118  0.00  0.00    +0.000 A 
ATOM     20  C   UNL     1       2.297   4.229  21.195  0.00  0.00    +0.000 A 
ATOM     21  C   UNL     1       1.360   3.229  20.958  0.00  0.00    +0.000 A 
ATOM     22  F   UNL     1       0.777   2.611  21.993  0.00  0.00    +0.000 F 
ATOM     23  C   UNL     1       1.024   2.865  19.661  0.00  0.00    +0.000 A 
ATOM     24  C   UNL     1       1.637   3.512  18.588  0.00  0.00    +0.000 A 
ENDBRANCH  17  18
ENDBRANCH  16  17
ENDBRANCH   4  16
TORSDOF 6
ENDMDL
MODEL 9
REMARK VINA RESULT:      -7.2      5.068      8.379
REMARK  Name = 
REMARK  6 active torsions:
REMARK  status: ('A' for Active; 'I' for Inactive)
REMARK    1  A    between atoms: C_2  and  C_10
REMARK    2  A    between atoms: N_3  and  C_4
REMARK    3  A    between atoms: C_4  and  C_5
REMARK    4  A    between atoms: C_13  and  C_14
REMARK    5  A    between atoms: C_14  and  O_15
REMARK    6  A    between atoms: O_15  and  C_16
REMARK                            x       y       z     vdW  Elec       q    Type
REMARK                         _______ _______ _______ _____ _____    ______ ____
ROOT
ATOM      1  C   UNL     1       4.067   6.755  17.772  0.00  0.00    +0.000 A 
ATOM      2  C   UNL     1       3.212   7.818  17.541  0.00  0.00    +0.000 A 
ATOM      3  C   UNL     1       2.218   7.776  18.538  0.00  0.00    +0.000 A 
ATOM      4  C   UNL     1       2.516   6.694  19.340  0.00  0.00    +0.000 A 
ATOM      5  O   UNL     1       3.631   6.050  18.870  0.00  0.00    +0.000 OA
ENDROOT
BRANCH   1   7
ATOM      6  O   UNL     1       6.150   7.199  16.783  0.00  0.00    +0.000 OA
ATOM      7  C   UNL     1       5.273   6.383  17.057  0.00  0.00    +0.000 C 
ATOM      8  N   UNL     1       5.375   5.062  16.676  0.00  0.00    +0.000 N 
ATOM      9  H   UNL     1       4.573   4.459  16.812  0.00  0.00    +0.000 HD
BRANCH   8  10
ATOM     10  C   UNL     1       6.507   4.572  15.905  0.00  0.00    +0.000 C 
BRANCH  10  11
ATOM     11  C   UNL     1       6.438   4.896  14.406  0.00  0.00    +0.000 C 
ATOM     12  C   UNL     1       6.271   3.713  13.463  0.00  0.00    +0.000 C 
ATOM     13  C   UNL     1       6.915   4.219  12.197  0.00  0.00    +0.000 C 
ATOM     14  C   UNL     1       8.048   5.071  12.726  0.00  0.00    +0.000 C 
ATOM     15  O   UNL     1       7.635   5.589  13.997  0.00  0.00    +0.000 OA
ENDBRANCH  10  11
ENDBRANCH   8  10
ENDBRANCH   1   7
BRANCH   4  16
ATOM     16  C   UNL     1       1.887   6.179  20.588  0.00  0.00    +0.000 C 
BRANCH  16  17
ATOM     17  O   UNL     1       1.169   4.997  20.238  0.00  0.00    +0.000 OA
BRANCH  17  18
ATOM     18  C   UNL     1       1.903   3.923  19.813  0.00  0.00    +0.000 A 
ATOM     19  C   UNL     1       2.947   3.308  20.510  0.00  0.00    +0.000 A 
ATOM     20  C   UNL     1       3.613   2.213  19.949  0.00  0.00    +0.000 A 
ATOM     21  C   UNL     1       3.235   1.737  18.698  0.00  0.00    +0.000 A 
ATOM     22  F   UNL     1       3.876   0.690  18.167  0.00  0.00    +0.000 F 
ATOM     23  C   UNL     1       2.199   2.339  17.995  0.00  0.00    +0.000 A 
ATOM     24  C   UNL     1       1.536   3.431  18.554  0.00  0.00    +0.000 A 
ENDBRANCH  17  18
ENDBRANCH  16  17
ENDBRANCH   4  16
TORSDOF 6
ENDMDL
