MODEL 1
REMARK VINA RESULT:      -6.8      0.000      0.000
REMARK  Name = 
REMARK  7 active torsions:
REMARK  status: ('A' for Active; 'I' for Inactive)
REMARK    1  A    between atoms: O_1  and  C_2
REMARK    2  A    between atoms: C_2  and  C_3
REMARK    3  A    between atoms: C_2  and  C_10
REMARK    4  A    between atoms: C_3  and  N_4
REMARK    5  A    between atoms: N_4  and  C_5
REMARK    6  A    between atoms: C_10  and  O_11
REMARK    7  A    between atoms: O_11  and  C_12
REMARK                            x       y       z     vdW  Elec       q    Type
REMARK                         _______ _______ _______ _____ _____    ______ ____
ROOT
ATOM      1  C   UNL     1       6.767   5.475  18.185  0.00  0.00    +0.000 C 
ENDROOT
BRANCH   1   2
ATOM      2  O   UNL     1       7.479   4.261  18.211  0.00  0.00    +0.000 OA
ATOM      3  H   UNL     1       7.335   3.808  17.342  0.00  0.00    +0.000 HD
ENDBRANCH   1   2
BRANCH   1   4
ATOM      4  C   UNL     1       6.222   5.722  16.769  0.00  0.00    +0.000 C 
BRANCH   4   5
ATOM      5  N   UNL     1       7.317   5.629  15.792  0.00  0.00    +0.000 NA
ATOM      6  H   UNL     1       8.191   5.333  16.291  0.00  0.00    +0.000 HD
BRANCH   5   7
ATOM      7  C   UNL     1       7.076   4.620  14.757  0.00  0.00    +0.000 C 
ATOM      8  C   UNL     1       5.600   4.445  14.392  0.00  0.00    +0.000 C 
ATOM      9  C   UNL     1       5.709   3.615  13.125  0.00  0.00    +0.000 C 
ATOM     10  C   UNL     1       6.946   4.162  12.393  0.00  0.00    +0.000 C 
ATOM     11  C   UNL     1       7.628   5.079  13.411  0.00  0.00    +0.000 C 
ENDBRANCH   5   7
ENDBRANCH   4   5
ENDBRANCH   1   4
BRANCH   1  12
ATOM     12  C   UNL     1       5.665   5.362  19.238  0.00  0.00    +0.000 C 
BRANCH  12  13
ATOM     13  O   UNL     1       4.925   4.194  19.152  0.00  0.00    +0.000 OA
BRANCH  13  14
ATOM     14  C   UNL     1       3.614   4.116  19.523  0.00  0.00    +0.000 A 
ATOM     15  C   UNL     1       2.976   5.175  20.208  0.00  0.00    +0.000 A 
ATOM     16  C   UNL     1       1.634   5.092  20.575  0.00  0.00    +0.000 A 
ATOM     17  C   UNL     1       0.902   3.945  20.269  0.00  0.00    +0.000 A 
ATOM     18  C   UNL     1       1.510   2.884  19.594  0.00  0.00    +0.000 A 
ATOM     19  C   UNL     1       2.862   2.964  19.223  0.00  0.00    +0.000 A 
ATOM     20 BR   UNL     1       3.653   1.484  18.301  0.00  0.00    +0.000 Br
ENDBRANCH  13  14
ENDBRANCH  12  13
ENDBRANCH   1  12
TORSDOF 7
ENDMDL
MODEL 2
REMARK VINA RESULT:      -6.7      1.764      2.138
REMARK  Name = 
REMARK  7 active torsions:
REMARK  status: ('A' for Active; 'I' for Inactive)
REMARK    1  A    between atoms: O_1  and  C_2
REMARK    2  A    between atoms: C_2  and  C_3
REMARK    3  A    between atoms: C_2  and  C_10
REMARK    4  A    between atoms: C_3  and  N_4
REMARK    5  A    between atoms: N_4  and  C_5
REMARK    6  A    between atoms: C_10  and  O_11
REMARK    7  A    between atoms: O_11  and  C_12
REMARK                            x       y       z     vdW  Elec       q    Type
REMARK                         _______ _______ _______ _____ _____    ______ ____
ROOT
ATOM      1  C   UNL     1       5.770   4.543  17.584  0.00  0.00    +0.000 C 
ENDROOT
BRANCH   1   2
ATOM      2  O   UNL     1       6.110   4.051  18.859  0.00  0.00    +0.000 OA
ATOM      3  H   UNL     1       6.241   3.072  18.781  0.00  0.00    +0.000 HD
ENDBRANCH   1   2
BRANCH   1   4
ATOM      4  C   UNL     1       7.021   4.569  16.692  0.00  0.00    +0.000 C 
BRANCH   4   5
ATOM      5  N   UNL     1       6.708   5.236  15.418  0.00  0.00    +0.000 NA
ATOM      6  H   UNL     1       7.399   6.009  15.263  0.00  0.00    +0.000 HD
BRANCH   5   7
ATOM      7  C   UNL     1       6.825   4.343  14.262  0.00  0.00    +0.000 C 
ATOM      8  C   UNL     1       5.487   3.998  13.604  0.00  0.00    +0.000 C 
ATOM      9  C   UNL     1       5.955   3.363  12.306  0.00  0.00    +0.000 C 
ATOM     10  C   UNL     1       7.190   4.179  11.884  0.00  0.00    +0.000 C 
ATOM     11  C   UNL     1       7.518   5.049  13.099  0.00  0.00    +0.000 C 
ENDBRANCH   5   7
ENDBRANCH   4   5
ENDBRANCH   1   4
BRANCH   1  12
ATOM     12  C   UNL     1       4.668   3.633  17.042  0.00  0.00    +0.000 C 
BRANCH  12  13
ATOM     13  O   UNL     1       3.390   4.141  17.208  0.00  0.00    +0.000 OA
BRANCH  13  14
ATOM     14  C   UNL     1       2.659   3.958  18.346  0.00  0.00    +0.000 A 
ATOM     15  C   UNL     1       2.274   2.669  18.778  0.00  0.00    +0.000 A 
ATOM     16  C   UNL     1       1.537   2.489  19.946  0.00  0.00    +0.000 A 
ATOM     17  C   UNL     1       1.163   3.597  20.706  0.00  0.00    +0.000 A 
ATOM     18  C   UNL     1       1.529   4.882  20.300  0.00  0.00    +0.000 A 
ATOM     19  C   UNL     1       2.273   5.067  19.123  0.00  0.00    +0.000 A 
ATOM     20 BR   UNL     1       2.749   6.848  18.605  0.00  0.00    +0.000 Br
ENDBRANCH  13  14
ENDBRANCH  12  13
ENDBRANCH   1  12
TORSDOF 7
ENDMDL
MODEL 3
REMARK VINA RESULT:      -6.7      2.497      3.703
REMARK  Name = 
REMARK  7 active torsions:
REMARK  status: ('A' for Active; 'I' for Inactive)
REMARK    1  A    between atoms: O_1  and  C_2
REMARK    2  A    between atoms: C_2  and  C_3
REMARK    3  A    between atoms: C_2  and  C_10
REMARK    4  A    between atoms: C_3  and  N_4
REMARK    5  A    between atoms: N_4  and  C_5
REMARK    6  A    between atoms: C_10  and  O_11
REMARK    7  A    between atoms: O_11  and  C_12
REMARK                            x       y       z     vdW  Elec       q    Type
REMARK                         _______ _______ _______ _____ _____    ______ ____
ROOT
ATOM      1  C   UNL     1       4.062   3.628  17.157  0.00  0.00    +0.000 C 
ENDROOT
BRANCH   1   2
ATOM      2  O   UNL     1       4.522   2.352  17.532  0.00  0.00    +0.000 OA
ATOM      3  H   UNL     1       5.383   2.192  17.068  0.00  0.00    +0.000 HD
ENDBRANCH   1   2
BRANCH   1   4
ATOM      4  C   UNL     1       4.988   4.213  16.079  0.00  0.00    +0.000 C 
BRANCH   4   5
ATOM      5  N   UNL     1       6.384   3.852  16.374  0.00  0.00    +0.000 NA
ATOM      6  H   UNL     1       6.834   3.499  15.496  0.00  0.00    +0.000 HD
BRANCH   5   7
ATOM      7  C   UNL     1       7.188   4.995  16.816  0.00  0.00    +0.000 C 
ATOM      8  C   UNL     1       6.468   6.341  16.706  0.00  0.00    +0.000 C 
ATOM      9  C   UNL     1       7.396   7.235  17.510  0.00  0.00    +0.000 C 
ATOM     10  C   UNL     1       7.881   6.360  18.679  0.00  0.00    +0.000 C 
ATOM     11  C   UNL     1       7.424   4.943  18.323  0.00  0.00    +0.000 C 
ENDBRANCH   5   7
ENDBRANCH   4   5
ENDBRANCH   1   4
BRANCH   1  12
ATOM     12  C   UNL     1       2.622   3.453  16.676  0.00  0.00    +0.000 C 
BRANCH  12  13
ATOM     13  O   UNL     1       1.676   4.004  17.526  0.00  0.00    +0.000 OA
BRANCH  13  14
ATOM     14  C   UNL     1       1.719   3.853  18.882  0.00  0.00    +0.000 A 
ATOM     15  C   UNL     1       1.356   2.636  19.502  0.00  0.00    +0.000 A 
ATOM     16  C   UNL     1       1.411   2.487  20.886  0.00  0.00    +0.000 A 
ATOM     17  C   UNL     1       1.826   3.555  21.682  0.00  0.00    +0.000 A 
ATOM     18  C   UNL     1       2.187   4.769  21.094  0.00  0.00    +0.000 A 
ATOM     19  C   UNL     1       2.133   4.923  19.699  0.00  0.00    +0.000 A 
ATOM     20 BR   UNL     1       2.637   6.606  18.938  0.00  0.00    +0.000 Br
ENDBRANCH  13  14
ENDBRANCH  12  13
ENDBRANCH   1  12
TORSDOF 7
ENDMDL
MODEL 4
REMARK VINA RESULT:      -6.7      1.442      1.490
REMARK  Name = 
REMARK  7 active torsions:
REMARK  status: ('A' for Active; 'I' for Inactive)
REMARK    1  A    between atoms: O_1  and  C_2
REMARK    2  A    between atoms: C_2  and  C_3
REMARK    3  A    between atoms: C_2  and  C_10
REMARK    4  A    between atoms: C_3  and  N_4
REMARK    5  A    between atoms: N_4  and  C_5
REMARK    6  A    between atoms: C_10  and  O_11
REMARK    7  A    between atoms: O_11  and  C_12
REMARK                            x       y       z     vdW  Elec       q    Type
REMARK                         _______ _______ _______ _____ _____    ______ ____
ROOT
ATOM      1  C   UNL     1       6.985   5.591  19.002  0.00  0.00    +0.000 C 
ENDROOT
BRANCH   1   2
ATOM      2  O   UNL     1       7.802   5.485  20.143  0.00  0.00    +0.000 OA
ATOM      3  H   UNL     1       8.684   5.879  19.921  0.00  0.00    +0.000 HD
ENDBRANCH   1   2
BRANCH   1   4
ATOM      4  C   UNL     1       7.590   4.765  17.856  0.00  0.00    +0.000 C 
BRANCH   4   5
ATOM      5  N   UNL     1       7.384   5.464  16.577  0.00  0.00    +0.000 NA
ATOM      6  H   UNL     1       8.304   5.843  16.249  0.00  0.00    +0.000 HD
BRANCH   5   7
ATOM      7  C   UNL     1       6.902   4.579  15.513  0.00  0.00    +0.000 C 
ATOM      8  C   UNL     1       5.420   4.760  15.178  0.00  0.00    +0.000 C 
ATOM      9  C   UNL     1       5.317   3.978  13.880  0.00  0.00    +0.000 C 
ATOM     10  C   UNL     1       6.636   4.258  13.138  0.00  0.00    +0.000 C 
ATOM     11  C   UNL     1       7.525   4.954  14.171  0.00  0.00    +0.000 C 
ENDBRANCH   5   7
ENDBRANCH   4   5
ENDBRANCH   1   4
BRANCH   1  12
ATOM     12  C   UNL     1       5.592   5.113  19.412  0.00  0.00    +0.000 C 
BRANCH  12  13
ATOM     13  O   UNL     1       5.024   4.212  18.526  0.00  0.00    +0.000 OA
BRANCH  13  14
ATOM     14  C   UNL     1       3.707   3.861  18.567  0.00  0.00    +0.000 A 
ATOM     15  C   UNL     1       2.737   4.537  17.792  0.00  0.00    +0.000 A 
ATOM     16  C   UNL     1       1.395   4.166  17.831  0.00  0.00    +0.000 A 
ATOM     17  C   UNL     1       0.991   3.112  18.650  0.00  0.00    +0.000 A 
ATOM     18  C   UNL     1       1.929   2.429  19.427  0.00  0.00    +0.000 A 
ATOM     19  C   UNL     1       3.283   2.800  19.391  0.00  0.00    +0.000 A 
ATOM     20 BR   UNL     1       4.532   1.836  20.475  0.00  0.00    +0.000 Br
ENDBRANCH  13  14
ENDBRANCH  12  13
ENDBRANCH   1  12
TORSDOF 7
ENDMDL
MODEL 5
REMARK VINA RESULT:      -6.6      1.540      1.967
REMARK  Name = 
REMARK  7 active torsions:
REMARK  status: ('A' for Active; 'I' for Inactive)
REMARK    1  A    between atoms: O_1  and  C_2
REMARK    2  A    between atoms: C_2  and  C_3
REMARK    3  A    between atoms: C_2  and  C_10
REMARK    4  A    between atoms: C_3  and  N_4
REMARK    5  A    between atoms: N_4  and  C_5
REMARK    6  A    between atoms: C_10  and  O_11
REMARK    7  A    between atoms: O_11  and  C_12
REMARK                            x       y       z     vdW  Elec       q    Type
REMARK                         _______ _______ _______ _____ _____    ______ ____
ROOT
ATOM      1  C   UNL     1       6.655   5.784  18.413  0.00  0.00    +0.000 C 
ENDROOT
BRANCH   1   2
ATOM      2  O   UNL     1       7.719   4.863  18.473  0.00  0.00    +0.000 OA
ATOM      3  H   UNL     1       7.553   4.164  17.792  0.00  0.00    +0.000 HD
ENDBRANCH   1   2
BRANCH   1   4
ATOM      4  C   UNL     1       6.316   6.083  16.944  0.00  0.00    +0.000 C 
BRANCH   4   5
ATOM      5  N   UNL     1       7.412   5.620  16.077  0.00  0.00    +0.000 NA
ATOM      6  H   UNL     1       8.139   5.155  16.672  0.00  0.00    +0.000 HD
BRANCH   5   7
ATOM      7  C   UNL     1       6.982   4.619  15.098  0.00  0.00    +0.000 C 
ATOM      8  C   UNL     1       5.472   4.601  14.850  0.00  0.00    +0.000 C 
ATOM      9  C   UNL     1       5.391   3.732  13.606  0.00  0.00    +0.000 C 
ATOM     10  C   UNL     1       6.621   4.119  12.766  0.00  0.00    +0.000 C 
ATOM     11  C   UNL     1       7.476   4.980  13.699  0.00  0.00    +0.000 C 
ENDBRANCH   5   7
ENDBRANCH   4   5
ENDBRANCH   1   4
BRANCH   1  12
ATOM     12  C   UNL     1       5.490   5.161  19.181  0.00  0.00    +0.000 C 
BRANCH  12  13
ATOM     13  O   UNL     1       4.261   5.321  18.562  0.00  0.00    +0.000 OA
BRANCH  13  14
ATOM     14  C   UNL     1       3.306   4.346  18.542  0.00  0.00    +0.000 A 
ATOM     15  C   UNL     1       3.421   3.217  17.700  0.00  0.00    +0.000 A 
ATOM     16  C   UNL     1       2.447   2.221  17.692  0.00  0.00    +0.000 A 
ATOM     17  C   UNL     1       1.333   2.335  18.523  0.00  0.00    +0.000 A 
ATOM     18  C   UNL     1       1.195   3.442  19.363  0.00  0.00    +0.000 A 
ATOM     19  C   UNL     1       2.174   4.448  19.374  0.00  0.00    +0.000 A 
ATOM     20 BR   UNL     1       1.941   5.949  20.540  0.00  0.00    +0.000 Br
ENDBRANCH  13  14
ENDBRANCH  12  13
ENDBRANCH   1  12
TORSDOF 7
ENDMDL
MODEL 6
REMARK VINA RESULT:      -6.5      1.816      2.086
REMARK  Name = 
REMARK  7 active torsions:
REMARK  status: ('A' for Active; 'I' for Inactive)
REMARK    1  A    between atoms: O_1  and  C_2
REMARK    2  A    between atoms: C_2  and  C_3
REMARK    3  A    between atoms: C_2  and  C_10
REMARK    4  A    between atoms: C_3  and  N_4
REMARK    5  A    between atoms: N_4  and  C_5
REMARK    6  A    between atoms: C_10  and  O_11
REMARK    7  A    between atoms: O_11  and  C_12
REMARK                            x       y       z     vdW  Elec       q    Type
REMARK                         _______ _______ _______ _____ _____    ______ ____
ROOT
ATOM      1  C   UNL     1       6.004   5.456  17.486  0.00  0.00    +0.000 C 
ENDROOT
BRANCH   1   2
ATOM      2  O   UNL     1       5.844   6.841  17.297  0.00  0.00    +0.000 OA
ATOM      3  H   UNL     1       5.562   7.234  18.161  0.00  0.00    +0.000 HD
ENDBRANCH   1   2
BRANCH   1   4
ATOM      4  C   UNL     1       7.288   4.985  16.785  0.00  0.00    +0.000 C 
BRANCH   4   5
ATOM      5  N   UNL     1       7.355   5.561  15.432  0.00  0.00    +0.000 NA
ATOM      6  H   UNL     1       8.305   5.981  15.291  0.00  0.00    +0.000 HD
BRANCH   5   7
ATOM      7  C   UNL     1       7.190   4.558  14.376  0.00  0.00    +0.000 C 
ATOM      8  C   UNL     1       5.731   4.256  14.029  0.00  0.00    +0.000 C 
ATOM      9  C   UNL     1       5.895   3.469  12.740  0.00  0.00    +0.000 C 
ATOM     10  C   UNL     1       7.064   4.147  12.003  0.00  0.00    +0.000 C 
ATOM     11  C   UNL     1       7.675   5.099  13.034  0.00  0.00    +0.000 C 
ENDBRANCH   5   7
ENDBRANCH   4   5
ENDBRANCH   1   4
BRANCH   1  12
ATOM     12  C   UNL     1       6.026   5.217  18.995  0.00  0.00    +0.000 C 
BRANCH  12  13
ATOM     13  O   UNL     1       4.771   5.225  19.582  0.00  0.00    +0.000 OA
BRANCH  13  14
ATOM     14  C   UNL     1       3.754   4.414  19.172  0.00  0.00    +0.000 A 
ATOM     15  C   UNL     1       3.814   3.011  19.338  0.00  0.00    +0.000 A 
ATOM     16  C   UNL     1       2.767   2.190  18.925  0.00  0.00    +0.000 A 
ATOM     17  C   UNL     1       1.637   2.752  18.332  0.00  0.00    +0.000 A 
ATOM     18  C   UNL     1       1.554   4.135  18.155  0.00  0.00    +0.000 A 
ATOM     19  C   UNL     1       2.607   4.967  18.570  0.00  0.00    +0.000 A 
ATOM     20 BR   UNL     1       2.448   6.856  18.304  0.00  0.00    +0.000 Br
ENDBRANCH  13  14
ENDBRANCH  12  13
ENDBRANCH   1  12
TORSDOF 7
ENDMDL
MODEL 7
REMARK VINA RESULT:      -6.5      0.668      1.126
REMARK  Name = 
REMARK  7 active torsions:
REMARK  status: ('A' for Active; 'I' for Inactive)
REMARK    1  A    between atoms: O_1  and  C_2
REMARK    2  A    between atoms: C_2  and  C_3
REMARK    3  A    between atoms: C_2  and  C_10
REMARK    4  A    between atoms: C_3  and  N_4
REMARK    5  A    between atoms: N_4  and  C_5
REMARK    6  A    between atoms: C_10  and  O_11
REMARK    7  A    between atoms: O_11  and  C_12
REMARK                            x       y       z     vdW  Elec       q    Type
REMARK                         _______ _______ _______ _____ _____    ______ ____
ROOT
ATOM      1  C   UNL     1       6.697   5.189  17.849  0.00  0.00    +0.000 C 
ENDROOT
BRANCH   1   2
ATOM      2  O   UNL     1       7.567   4.241  18.418  0.00  0.00    +0.000 OA
ATOM      3  H   UNL     1       8.414   4.703  18.642  0.00  0.00    +0.000 HD
ENDBRANCH   1   2
BRANCH   1   4
ATOM      4  C   UNL     1       6.307   4.744  16.431  0.00  0.00    +0.000 C 
BRANCH   4   5
ATOM      5  N   UNL     1       7.240   5.327  15.453  0.00  0.00    +0.000 NA
ATOM      6  H   UNL     1       8.169   4.852  15.549  0.00  0.00    +0.000 HD
BRANCH   5   7
ATOM      7  C   UNL     1       6.816   5.122  14.065  0.00  0.00    +0.000 C 
ATOM      8  C   UNL     1       7.971   5.073  13.063  0.00  0.00    +0.000 C 
ATOM      9  C   UNL     1       7.264   4.542  11.828  0.00  0.00    +0.000 C 
ATOM     10  C   UNL     1       6.247   3.516  12.359  0.00  0.00    +0.000 C 
ATOM     11  C   UNL     1       6.240   3.721  13.875  0.00  0.00    +0.000 C 
ENDBRANCH   5   7
ENDBRANCH   4   5
ENDBRANCH   1   4
BRANCH   1  12
ATOM     12  C   UNL     1       5.498   5.306  18.789  0.00  0.00    +0.000 C 
BRANCH  12  13
ATOM     13  O   UNL     1       4.340   4.727  18.296  0.00  0.00    +0.000 OA
BRANCH  13  14
ATOM     14  C   UNL     1       3.273   4.411  19.086  0.00  0.00    +0.000 A 
ATOM     15  C   UNL     1       2.620   5.389  19.871  0.00  0.00    +0.000 A 
ATOM     16  C   UNL     1       1.524   5.061  20.667  0.00  0.00    +0.000 A 
ATOM     17  C   UNL     1       1.060   3.747  20.700  0.00  0.00    +0.000 A 
ATOM     18  C   UNL     1       1.689   2.762  19.935  0.00  0.00    +0.000 A 
ATOM     19  C   UNL     1       2.793   3.088  19.131  0.00  0.00    +0.000 A 
ATOM     20 BR   UNL     1       3.624   1.704  18.101  0.00  0.00    +0.000 Br
ENDBRANCH  13  14
ENDBRANCH  12  13
ENDBRANCH   1  12
TORSDOF 7
ENDMDL
MODEL 8
REMARK VINA RESULT:      -6.5      0.806      1.304
REMARK  Name = 
REMARK  7 active torsions:
REMARK  status: ('A' for Active; 'I' for Inactive)
REMARK    1  A    between atoms: O_1  and  C_2
REMARK    2  A    between atoms: C_2  and  C_3
REMARK    3  A    between atoms: C_2  and  C_10
REMARK    4  A    between atoms: C_3  and  N_4
REMARK    5  A    between atoms: N_4  and  C_5
REMARK    6  A    between atoms: C_10  and  O_11
REMARK    7  A    between atoms: O_11  and  C_12
REMARK                            x       y       z     vdW  Elec       q    Type
REMARK                         _______ _______ _______ _____ _____    ______ ____
ROOT
ATOM      1  C   UNL     1       6.965   5.433  18.603  0.00  0.00    +0.000 C 
ENDROOT
BRANCH   1   2
ATOM      2  O   UNL     1       7.220   4.107  18.207  0.00  0.00    +0.000 OA
ATOM      3  H   UNL     1       6.353   3.689  17.972  0.00  0.00    +0.000 HD
ENDBRANCH   1   2
BRANCH   1   4
ATOM      4  C   UNL     1       6.979   6.350  17.370  0.00  0.00    +0.000 C 
BRANCH   4   5
ATOM      5  N   UNL     1       5.677   6.283  16.688  0.00  0.00    +0.000 NA
ATOM      6  H   UNL     1       5.309   7.258  16.567  0.00  0.00    +0.000 HD
BRANCH   5   7
ATOM      7  C   UNL     1       5.765   5.709  15.342  0.00  0.00    +0.000 C 
ATOM      8  C   UNL     1       7.180   5.290  14.938  0.00  0.00    +0.000 C 
ATOM      9  C   UNL     1       6.896   4.470  13.691  0.00  0.00    +0.000 C 
ATOM     10  C   UNL     1       5.590   3.715  13.997  0.00  0.00    +0.000 C 
ATOM     11  C   UNL     1       5.061   4.357  15.282  0.00  0.00    +0.000 C 
ENDBRANCH   5   7
ENDBRANCH   4   5
ENDBRANCH   1   4
BRANCH   1  12
ATOM     12  C   UNL     1       5.620   5.426  19.328  0.00  0.00    +0.000 C 
BRANCH  12  13
ATOM     13  O   UNL     1       4.703   4.533  18.798  0.00  0.00    +0.000 OA
BRANCH  13  14
ATOM     14  C   UNL     1       3.462   4.337  19.331  0.00  0.00    +0.000 A 
ATOM     15  C   UNL     1       2.801   5.354  20.057  0.00  0.00    +0.000 A 
ATOM     16  C   UNL     1       1.530   5.150  20.591  0.00  0.00    +0.000 A 
ATOM     17  C   UNL     1       0.893   3.922  20.414  0.00  0.00    +0.000 A 
ATOM     18  C   UNL     1       1.526   2.901  19.702  0.00  0.00    +0.000 A 
ATOM     19  C   UNL     1       2.806   3.102  19.163  0.00  0.00    +0.000 A 
ATOM     20 BR   UNL     1       3.634   1.672  18.196  0.00  0.00    +0.000 Br
ENDBRANCH  13  14
ENDBRANCH  12  13
ENDBRANCH   1  12
TORSDOF 7
ENDMDL
MODEL 9
REMARK VINA RESULT:      -6.3      1.909      2.315
REMARK  Name = 
REMARK  7 active torsions:
REMARK  status: ('A' for Active; 'I' for Inactive)
REMARK    1  A    between atoms: O_1  and  C_2
REMARK    2  A    between atoms: C_2  and  C_3
REMARK    3  A    between atoms: C_2  and  C_10
REMARK    4  A    between atoms: C_3  and  N_4
REMARK    5  A    between atoms: N_4  and  C_5
REMARK    6  A    between atoms: C_10  and  O_11
REMARK    7  A    between atoms: O_11  and  C_12
REMARK                            x       y       z     vdW  Elec       q    Type
REMARK                         _______ _______ _______ _____ _____    ______ ____
ROOT
ATOM      1  C   UNL     1       7.455   5.278  17.929  0.00  0.00    +0.000 C 
ENDROOT
BRANCH   1   2
ATOM      2  O   UNL     1       8.165   4.119  17.562  0.00  0.00    +0.000 OA
ATOM      3  H   UNL     1       7.788   3.791  16.707  0.00  0.00    +0.000 HD
ENDBRANCH   1   2
BRANCH   1   4
ATOM      4  C   UNL     1       6.809   5.902  16.683  0.00  0.00    +0.000 C 
BRANCH   4   5
ATOM      5  N   UNL     1       5.985   4.896  15.994  0.00  0.00    +0.000 NA
ATOM      6  H   UNL     1       4.976   5.083  16.205  0.00  0.00    +0.000 HD
BRANCH   5   7
ATOM      7  C   UNL     1       6.116   4.953  14.535  0.00  0.00    +0.000 C 
ATOM      8  C   UNL     1       7.558   5.096  14.046  0.00  0.00    +0.000 C 
ATOM      9  C   UNL     1       7.394   4.804  12.564  0.00  0.00    +0.000 C 
ATOM     10  C   UNL     1       6.332   3.693  12.491  0.00  0.00    +0.000 C 
ATOM     11  C   UNL     1       5.754   3.610  13.905  0.00  0.00    +0.000 C 
ENDBRANCH   5   7
ENDBRANCH   4   5
ENDBRANCH   1   4
BRANCH   1  12
ATOM     12  C   UNL     1       6.434   4.852  18.983  0.00  0.00    +0.000 C 
BRANCH  12  13
ATOM     13  O   UNL     1       5.183   5.423  18.815  0.00  0.00    +0.000 OA
BRANCH  13  14
ATOM     14  C   UNL     1       4.057   4.690  18.576  0.00  0.00    +0.000 A 
ATOM     15  C   UNL     1       4.052   3.282  18.700  0.00  0.00    +0.000 A 
ATOM     16  C   UNL     1       2.896   2.541  18.464  0.00  0.00    +0.000 A 
ATOM     17  C   UNL     1       1.719   3.192  18.094  0.00  0.00    +0.000 A 
ATOM     18  C   UNL     1       1.698   4.582  17.964  0.00  0.00    +0.000 A 
ATOM     19  C   UNL     1       2.861   5.333  18.200  0.00  0.00    +0.000 A 
ATOM     20 BR   UNL     1       2.785   7.236  18.006  0.00  0.00    +0.000 Br
ENDBRANCH  13  14
ENDBRANCH  12  13
ENDBRANCH   1  12
TORSDOF 7
ENDMDL
