MODEL 1
REMARK VINA RESULT:      -7.3      0.000      0.000
REMARK  Name = 
REMARK  7 active torsions:
REMARK  status: ('A' for Active; 'I' for Inactive)
REMARK    1  A    between atoms: C_1  and  C_2
REMARK    2  A    between atoms: C_2  and  O_3
REMARK    3  A    between atoms: O_3  and  P_4
REMARK    4  A    between atoms: P_4  and  N_6
REMARK    5  A    between atoms: P_4  and  O_12
REMARK    6  A    between atoms: N_6  and  C_7
REMARK    7  A    between atoms: O_12  and  C_13
REMARK                            x       y       z     vdW  Elec       q    Type
REMARK                         _______ _______ _______ _____ _____    ______ ____
ROOT
ATOM      1  P   UNL     1       4.691   4.195  17.465  0.00  0.00    +0.000 P 
ATOM      2  S   UNL     1       3.729   2.459  17.803  0.00  0.00    +0.000 S 
ENDROOT
BRANCH   1   3
ATOM      3  N   UNL     1       6.250   4.134  18.181  0.00  0.00    +0.000 NA
ATOM      4  H   UNL     1       6.679   3.279  17.832  0.00  0.00    +0.000 HD
BRANCH   3   5
ATOM      5  C   UNL     1       7.209   5.221  18.047  0.00  0.00    +0.000 C 
ATOM      6  C   UNL     1       6.660   6.450  17.329  0.00  0.00    +0.000 C 
ATOM      7  C   UNL     1       7.760   7.482  17.553  0.00  0.00    +0.000 C 
ATOM      8  C   UNL     1       8.365   7.135  18.918  0.00  0.00    +0.000 C 
ATOM      9  C   UNL     1       7.669   5.844  19.367  0.00  0.00    +0.000 C 
ENDBRANCH   3   5
ENDBRANCH   1   3
BRANCH   1  10
ATOM     10  O   UNL     1       5.330   3.565  15.986  0.00  0.00    +0.000 OA
BRANCH  10  12
ATOM     11  C   UNL     1       6.098   3.892  13.751  0.00  0.00    +0.000 C 
ATOM     12  C   UNL     1       5.251   4.451  14.876  0.00  0.00    +0.000 C 
ENDBRANCH  10  12
ENDBRANCH   1  10
BRANCH   1  13
ATOM     13  O   UNL     1       4.052   4.825  18.944  0.00  0.00    +0.000 OA
BRANCH  13  14
ATOM     14  C   UNL     1       3.381   6.017  18.881  0.00  0.00    +0.000 A 
ATOM     15  C   UNL     1       3.400   6.841  17.758  0.00  0.00    +0.000 A 
ATOM     16  C   UNL     1       2.670   8.032  17.761  0.00  0.00    +0.000 A 
ATOM     17  C   UNL     1       1.926   8.432  18.861  0.00  0.00    +0.000 A 
ATOM     18  N   UNL     1       1.241   9.587  18.805  0.00  0.00    +0.000 NA
ATOM     19  C   UNL     1       0.531   9.957  19.893  0.00  0.00    +0.000 A 
ATOM     20  C   UNL     1       0.467   9.215  21.057  0.00  0.00    +0.000 A 
ATOM     21  C   UNL     1       1.173   8.021  21.108  0.00  0.00    +0.000 A 
ATOM     22  C   UNL     1       1.925   7.604  20.000  0.00  0.00    +0.000 A 
ATOM     23  C   UNL     1       2.656   6.401  20.008  0.00  0.00    +0.000 A 
ENDBRANCH  13  14
ENDBRANCH   1  13
TORSDOF 6
ENDMDL
MODEL 2
REMARK VINA RESULT:      -7.2      2.299      4.159
REMARK  Name = 
REMARK  7 active torsions:
REMARK  status: ('A' for Active; 'I' for Inactive)
REMARK    1  A    between atoms: C_1  and  C_2
REMARK    2  A    between atoms: C_2  and  O_3
REMARK    3  A    between atoms: O_3  and  P_4
REMARK    4  A    between atoms: P_4  and  N_6
REMARK    5  A    between atoms: P_4  and  O_12
REMARK    6  A    between atoms: N_6  and  C_7
REMARK    7  A    between atoms: O_12  and  C_13
REMARK                            x       y       z     vdW  Elec       q    Type
REMARK                         _______ _______ _______ _____ _____    ______ ____
ROOT
ATOM      1  P   UNL     1       4.304   5.804  18.540  0.00  0.00    +0.000 P 
ATOM      2  S   UNL     1       5.333   6.506  16.959  0.00  0.00    +0.000 S 
ENDROOT
BRANCH   1   3
ATOM      3  N   UNL     1       3.787   4.198  18.221  0.00  0.00    +0.000 NA
ATOM      4  H   UNL     1       4.639   3.646  18.142  0.00  0.00    +0.000 HD
BRANCH   3   5
ATOM      5  C   UNL     1       2.858   3.493  19.091  0.00  0.00    +0.000 C 
ATOM      6  C   UNL     1       2.748   4.086  20.493  0.00  0.00    +0.000 C 
ATOM      7  C   UNL     1       1.559   3.330  21.078  0.00  0.00    +0.000 C 
ATOM      8  C   UNL     1       0.639   3.044  19.887  0.00  0.00    +0.000 C 
ATOM      9  C   UNL     1       1.394   3.539  18.647  0.00  0.00    +0.000 C 
ENDBRANCH   3   5
ENDBRANCH   1   3
BRANCH   1  10
ATOM     10  O   UNL     1       5.769   5.207  19.242  0.00  0.00    +0.000 OA
BRANCH  10  12
ATOM     11  C   UNL     1       8.080   5.749  19.485  0.00  0.00    +0.000 C 
ATOM     12  C   UNL     1       6.949   5.507  18.506  0.00  0.00    +0.000 C 
ENDBRANCH  10  12
ENDBRANCH   1  10
BRANCH   1  13
ATOM     13  O   UNL     1       2.839   6.400  17.839  0.00  0.00    +0.000 OA
BRANCH  13  14
ATOM     14  C   UNL     1       2.272   7.506  18.414  0.00  0.00    +0.000 A 
ATOM     15  C   UNL     1       1.994   8.672  17.704  0.00  0.00    +0.000 A 
ATOM     16  C   UNL     1       1.392   9.752  18.356  0.00  0.00    +0.000 A 
ATOM     17  C   UNL     1       1.068   9.705  19.704  0.00  0.00    +0.000 A 
ATOM     18  N   UNL     1       0.487  10.772  20.277  0.00  0.00    +0.000 NA
ATOM     19  C   UNL     1       0.190  10.704  21.593  0.00  0.00    +0.000 A 
ATOM     20  C   UNL     1       0.445   9.597  22.381  0.00  0.00    +0.000 A 
ATOM     21  C   UNL     1       1.041   8.494  21.783  0.00  0.00    +0.000 A 
ATOM     22  C   UNL     1       1.369   8.529  20.420  0.00  0.00    +0.000 A 
ATOM     23  C   UNL     1       1.974   7.435  19.773  0.00  0.00    +0.000 A 
ENDBRANCH  13  14
ENDBRANCH   1  13
TORSDOF 6
ENDMDL
MODEL 3
REMARK VINA RESULT:      -7.2      3.696      5.334
REMARK  Name = 
REMARK  7 active torsions:
REMARK  status: ('A' for Active; 'I' for Inactive)
REMARK    1  A    between atoms: C_1  and  C_2
REMARK    2  A    between atoms: C_2  and  O_3
REMARK    3  A    between atoms: O_3  and  P_4
REMARK    4  A    between atoms: P_4  and  N_6
REMARK    5  A    between atoms: P_4  and  O_12
REMARK    6  A    between atoms: N_6  and  C_7
REMARK    7  A    between atoms: O_12  and  C_13
REMARK                            x       y       z     vdW  Elec       q    Type
REMARK                         _______ _______ _______ _____ _____    ______ ____
ROOT
ATOM      1  P   UNL     1       6.167   5.483  16.301  0.00  0.00    +0.000 P 
ATOM      2  S   UNL     1       4.984   6.934  17.041  0.00  0.00    +0.000 S 
ENDROOT
BRANCH   1   3
ATOM      3  N   UNL     1       6.137   5.539  14.585  0.00  0.00    +0.000 NA
ATOM      4  H   UNL     1       6.798   6.268  14.322  0.00  0.00    +0.000 HD
BRANCH   3   5
ATOM      5  C   UNL     1       6.393   4.364  13.765  0.00  0.00    +0.000 C 
ATOM      6  C   UNL     1       5.171   3.861  13.002  0.00  0.00    +0.000 C 
ATOM      7  C   UNL     1       5.774   2.818  12.066  0.00  0.00    +0.000 C 
ATOM      8  C   UNL     1       7.183   3.329  11.750  0.00  0.00    +0.000 C 
ATOM      9  C   UNL     1       7.377   4.581  12.614  0.00  0.00    +0.000 C 
ENDBRANCH   3   5
ENDBRANCH   1   3
BRANCH   1  10
ATOM     10  O   UNL     1       7.521   6.560  16.326  0.00  0.00    +0.000 OA
BRANCH  10  12
ATOM     11  C   UNL     1       8.115   6.788  18.625  0.00  0.00    +0.000 C 
ATOM     12  C   UNL     1       7.531   7.481  17.410  0.00  0.00    +0.000 C 
ENDBRANCH  10  12
ENDBRANCH   1  10
BRANCH   1  13
ATOM     13  O   UNL     1       4.813   4.407  16.275  0.00  0.00    +0.000 OA
BRANCH  13  14
ATOM     14  C   UNL     1       4.340   3.964  17.482  0.00  0.00    +0.000 A 
ATOM     15  C   UNL     1       5.173   3.526  18.510  0.00  0.00    +0.000 A 
ATOM     16  C   UNL     1       4.617   3.111  19.722  0.00  0.00    +0.000 A 
ATOM     17  C   UNL     1       3.247   3.110  19.937  0.00  0.00    +0.000 A 
ATOM     18  N   UNL     1       2.769   2.703  21.125  0.00  0.00    +0.000 NA
ATOM     19  C   UNL     1       1.430   2.704  21.305  0.00  0.00    +0.000 A 
ATOM     20  C   UNL     1       0.526   3.103  20.339  0.00  0.00    +0.000 A 
ATOM     21  C   UNL     1       1.025   3.527  19.114  0.00  0.00    +0.000 A 
ATOM     22  C   UNL     1       2.409   3.537  18.888  0.00  0.00    +0.000 A 
ATOM     23  C   UNL     1       2.959   3.958  17.662  0.00  0.00    +0.000 A 
ENDBRANCH  13  14
ENDBRANCH   1  13
TORSDOF 6
ENDMDL
MODEL 4
REMARK VINA RESULT:      -7.2      2.157      3.876
REMARK  Name = 
REMARK  7 active torsions:
REMARK  status: ('A' for Active; 'I' for Inactive)
REMARK    1  A    between atoms: C_1  and  C_2
REMARK    2  A    between atoms: C_2  and  O_3
REMARK    3  A    between atoms: O_3  and  P_4
REMARK    4  A    between atoms: P_4  and  N_6
REMARK    5  A    between atoms: P_4  and  O_12
REMARK    6  A    between atoms: N_6  and  C_7
REMARK    7  A    between atoms: O_12  and  C_13
REMARK                            x       y       z     vdW  Elec       q    Type
REMARK                         _______ _______ _______ _____ _____    ______ ____
ROOT
ATOM      1  P   UNL     1       4.739   5.812  18.345  0.00  0.00    +0.000 P 
ATOM      2  S   UNL     1       4.978   5.274  16.419  0.00  0.00    +0.000 S 
ENDROOT
BRANCH   1   3
ATOM      3  N   UNL     1       4.396   4.421  19.290  0.00  0.00    +0.000 NA
ATOM      4  H   UNL     1       4.718   4.642  20.231  0.00  0.00    +0.000 HD
BRANCH   3   5
ATOM      5  C   UNL     1       3.058   3.853  19.381  0.00  0.00    +0.000 C 
ATOM      6  C   UNL     1       2.975   2.388  18.963  0.00  0.00    +0.000 C 
ATOM      7  C   UNL     1       1.562   2.004  19.388  0.00  0.00    +0.000 C 
ATOM      8  C   UNL     1       1.271   2.852  20.630  0.00  0.00    +0.000 C 
ATOM      9  C   UNL     1       2.483   3.778  20.797  0.00  0.00    +0.000 C 
ENDBRANCH   3   5
ENDBRANCH   1   3
BRANCH   1  10
ATOM     10  O   UNL     1       6.433   5.602  18.625  0.00  0.00    +0.000 OA
BRANCH  10  12
ATOM     11  C   UNL     1       7.704   7.444  17.798  0.00  0.00    +0.000 C 
ATOM     12  C   UNL     1       7.271   6.013  17.551  0.00  0.00    +0.000 C 
ENDBRANCH  10  12
ENDBRANCH   1  10
BRANCH   1  13
ATOM     13  O   UNL     1       3.045   6.022  18.065  0.00  0.00    +0.000 OA
BRANCH  13  14
ATOM     14  C   UNL     1       2.480   7.198  18.483  0.00  0.00    +0.000 A 
ATOM     15  C   UNL     1       2.285   8.289  17.638  0.00  0.00    +0.000 A 
ATOM     16  C   UNL     1       1.680   9.447  18.133  0.00  0.00    +0.000 A 
ATOM     17  C   UNL     1       1.272   9.553  19.454  0.00  0.00    +0.000 A 
ATOM     18  N   UNL     1       0.693  10.691  19.873  0.00  0.00    +0.000 NA
ATOM     19  C   UNL     1       0.313  10.771  21.167  0.00  0.00    +0.000 A 
ATOM     20  C   UNL     1       0.482   9.749  22.081  0.00  0.00    +0.000 A 
ATOM     21  C   UNL     1       1.077   8.573  21.642  0.00  0.00    +0.000 A 
ATOM     22  C   UNL     1       1.489   8.453  20.307  0.00  0.00    +0.000 A 
ATOM     23  C   UNL     1       2.096   7.281  19.820  0.00  0.00    +0.000 A 
ENDBRANCH  13  14
ENDBRANCH   1  13
TORSDOF 6
ENDMDL
MODEL 5
REMARK VINA RESULT:      -7.1      3.796      5.239
REMARK  Name = 
REMARK  7 active torsions:
REMARK  status: ('A' for Active; 'I' for Inactive)
REMARK    1  A    between atoms: C_1  and  C_2
REMARK    2  A    between atoms: C_2  and  O_3
REMARK    3  A    between atoms: O_3  and  P_4
REMARK    4  A    between atoms: P_4  and  N_6
REMARK    5  A    between atoms: P_4  and  O_12
REMARK    6  A    between atoms: N_6  and  C_7
REMARK    7  A    between atoms: O_12  and  C_13
REMARK                            x       y       z     vdW  Elec       q    Type
REMARK                         _______ _______ _______ _____ _____    ______ ____
ROOT
ATOM      1  P   UNL     1       6.587   5.519  16.605  0.00  0.00    +0.000 P 
ATOM      2  S   UNL     1       5.098   6.683  15.910  0.00  0.00    +0.000 S 
ENDROOT
BRANCH   1   3
ATOM      3  N   UNL     1       7.465   4.863  15.284  0.00  0.00    +0.000 NA
ATOM      4  H   UNL     1       7.715   3.916  15.563  0.00  0.00    +0.000 HD
BRANCH   3   5
ATOM      5  C   UNL     1       6.922   4.820  13.934  0.00  0.00    +0.000 C 
ATOM      6  C   UNL     1       7.963   5.031  12.839  0.00  0.00    +0.000 C 
ATOM      7  C   UNL     1       7.182   4.691  11.573  0.00  0.00    +0.000 C 
ATOM      8  C   UNL     1       6.177   3.616  11.997  0.00  0.00    +0.000 C 
ATOM      9  C   UNL     1       6.339   3.468  13.515  0.00  0.00    +0.000 C 
ENDBRANCH   3   5
ENDBRANCH   1   3
BRANCH   1  10
ATOM     10  O   UNL     1       7.647   6.885  16.651  0.00  0.00    +0.000 OA
BRANCH  10  12
ATOM     11  C   UNL     1       7.976   6.335  18.949  0.00  0.00    +0.000 C 
ATOM     12  C   UNL     1       7.829   7.456  17.940  0.00  0.00    +0.000 C 
ENDBRANCH  10  12
ENDBRANCH   1  10
BRANCH   1  13
ATOM     13  O   UNL     1       5.526   4.153  16.559  0.00  0.00    +0.000 OA
BRANCH  13  14
ATOM     14  C   UNL     1       4.789   3.892  17.684  0.00  0.00    +0.000 A 
ATOM     15  C   UNL     1       5.335   3.888  18.966  0.00  0.00    +0.000 A 
ATOM     16  C   UNL     1       4.513   3.637  20.067  0.00  0.00    +0.000 A 
ATOM     17  C   UNL     1       3.158   3.378  19.925  0.00  0.00    +0.000 A 
ATOM     18  N   UNL     1       2.416   3.146  21.021  0.00  0.00    +0.000 NA
ATOM     19  C   UNL     1       1.100   2.888  20.855  0.00  0.00    +0.000 A 
ATOM     20  C   UNL     1       0.475   2.854  19.623  0.00  0.00    +0.000 A 
ATOM     21  C   UNL     1       1.245   3.099  18.493  0.00  0.00    +0.000 A 
ATOM     22  C   UNL     1       2.615   3.366  18.625  0.00  0.00    +0.000 A 
ATOM     23  C   UNL     1       3.434   3.619  17.509  0.00  0.00    +0.000 A 
ENDBRANCH  13  14
ENDBRANCH   1  13
TORSDOF 6
ENDMDL
MODEL 6
REMARK VINA RESULT:      -7.1      3.541      5.055
REMARK  Name = 
REMARK  7 active torsions:
REMARK  status: ('A' for Active; 'I' for Inactive)
REMARK    1  A    between atoms: C_1  and  C_2
REMARK    2  A    between atoms: C_2  and  O_3
REMARK    3  A    between atoms: O_3  and  P_4
REMARK    4  A    between atoms: P_4  and  N_6
REMARK    5  A    between atoms: P_4  and  O_12
REMARK    6  A    between atoms: N_6  and  C_7
REMARK    7  A    between atoms: O_12  and  C_13
REMARK                            x       y       z     vdW  Elec       q    Type
REMARK                         _______ _______ _______ _____ _____    ______ ____
ROOT
ATOM      1  P   UNL     1       6.529   5.303  16.817  0.00  0.00    +0.000 P 
ATOM      2  S   UNL     1       5.027   6.492  16.196  0.00  0.00    +0.000 S 
ENDROOT
BRANCH   1   3
ATOM      3  N   UNL     1       7.469   4.815  15.466  0.00  0.00    +0.000 NA
ATOM      4  H   UNL     1       7.794   3.874  15.683  0.00  0.00    +0.000 HD
BRANCH   3   5
ATOM      5  C   UNL     1       6.941   4.820  14.109  0.00  0.00    +0.000 C 
ATOM      6  C   UNL     1       7.998   5.051  13.033  0.00  0.00    +0.000 C 
ATOM      7  C   UNL     1       7.228   4.761  11.748  0.00  0.00    +0.000 C 
ATOM      8  C   UNL     1       6.204   3.687  12.127  0.00  0.00    +0.000 C 
ATOM      9  C   UNL     1       6.345   3.491  13.642  0.00  0.00    +0.000 C 
ENDBRANCH   3   5
ENDBRANCH   1   3
BRANCH   1  10
ATOM     10  O   UNL     1       7.544   6.686  17.041  0.00  0.00    +0.000 OA
BRANCH  10  12
ATOM     11  C   UNL     1       7.690   5.679  19.199  0.00  0.00    +0.000 C 
ATOM     12  C   UNL     1       7.916   6.941  18.390  0.00  0.00    +0.000 C 
ENDBRANCH  10  12
ENDBRANCH   1  10
BRANCH   1  13
ATOM     13  O   UNL     1       5.514   3.920  16.592  0.00  0.00    +0.000 OA
BRANCH  13  14
ATOM     14  C   UNL     1       4.389   3.834  17.369  0.00  0.00    +0.000 A 
ATOM     15  C   UNL     1       3.118   4.166  16.906  0.00  0.00    +0.000 A 
ATOM     16  C   UNL     1       2.015   4.029  17.752  0.00  0.00    +0.000 A 
ATOM     17  C   UNL     1       2.145   3.578  19.057  0.00  0.00    +0.000 A 
ATOM     18  N   UNL     1       1.048   3.463  19.824  0.00  0.00    +0.000 NA
ATOM     19  C   UNL     1       1.204   3.029  21.094  0.00  0.00    +0.000 A 
ATOM     20  C   UNL     1       2.425   2.694  21.646  0.00  0.00    +0.000 A 
ATOM     21  C   UNL     1       3.556   2.810  20.848  0.00  0.00    +0.000 A 
ATOM     22  C   UNL     1       3.435   3.261  19.526  0.00  0.00    +0.000 A 
ATOM     23  C   UNL     1       4.554   3.394  18.681  0.00  0.00    +0.000 A 
ENDBRANCH  13  14
ENDBRANCH   1  13
TORSDOF 6
ENDMDL
MODEL 7
REMARK VINA RESULT:      -7.0      2.111      3.903
REMARK  Name = 
REMARK  7 active torsions:
REMARK  status: ('A' for Active; 'I' for Inactive)
REMARK    1  A    between atoms: C_1  and  C_2
REMARK    2  A    between atoms: C_2  and  O_3
REMARK    3  A    between atoms: O_3  and  P_4
REMARK    4  A    between atoms: P_4  and  N_6
REMARK    5  A    between atoms: P_4  and  O_12
REMARK    6  A    between atoms: N_6  and  C_7
REMARK    7  A    between atoms: O_12  and  C_13
REMARK                            x       y       z     vdW  Elec       q    Type
REMARK                         _______ _______ _______ _____ _____    ______ ____
ROOT
ATOM      1  P   UNL     1       4.799   4.844  18.218  0.00  0.00    +0.000 P 
ATOM      2  S   UNL     1       5.658   5.352  16.470  0.00  0.00    +0.000 S 
ENDROOT
BRANCH   1   3
ATOM      3  N   UNL     1       4.252   3.219  18.138  0.00  0.00    +0.000 NA
ATOM      4  H   UNL     1       5.089   2.644  18.214  0.00  0.00    +0.000 HD
BRANCH   3   5
ATOM      5  C   UNL     1       3.244   2.692  19.045  0.00  0.00    +0.000 C 
ATOM      6  C   UNL     1       3.226   3.368  20.414  0.00  0.00    +0.000 C 
ATOM      7  C   UNL     1       1.952   2.810  21.040  0.00  0.00    +0.000 C 
ATOM      8  C   UNL     1       0.991   2.589  19.867  0.00  0.00    +0.000 C 
ATOM      9  C   UNL     1       1.796   2.912  18.601  0.00  0.00    +0.000 C 
ENDBRANCH   3   5
ENDBRANCH   1   3
BRANCH   1  10
ATOM     10  O   UNL     1       6.329   4.314  18.828  0.00  0.00    +0.000 OA
BRANCH  10  12
ATOM     11  C   UNL     1       8.097   5.861  19.245  0.00  0.00    +0.000 C 
ATOM     12  C   UNL     1       7.459   4.936  18.228  0.00  0.00    +0.000 C 
ENDBRANCH  10  12
ENDBRANCH   1  10
BRANCH   1  13
ATOM     13  O   UNL     1       3.269   5.374  17.609  0.00  0.00    +0.000 OA
BRANCH  13  14
ATOM     14  C   UNL     1       2.777   6.558  18.091  0.00  0.00    +0.000 A 
ATOM     15  C   UNL     1       2.742   7.729  17.337  0.00  0.00    +0.000 A 
ATOM     16  C   UNL     1       2.202   8.893  17.892  0.00  0.00    +0.000 A 
ATOM     17  C   UNL     1       1.703   8.924  19.185  0.00  0.00    +0.000 A 
ATOM     18  N   UNL     1       1.193  10.071  19.664  0.00  0.00    +0.000 NA
ATOM     19  C   UNL     1       0.721  10.077  20.930  0.00  0.00    +0.000 A 
ATOM     20  C   UNL     1       0.730   8.970  21.757  0.00  0.00    +0.000 A 
ATOM     21  C   UNL     1       1.254   7.786  21.256  0.00  0.00    +0.000 A 
ATOM     22  C   UNL     1       1.758   7.741  19.948  0.00  0.00    +0.000 A 
ATOM     23  C   UNL     1       2.298   6.563  19.400  0.00  0.00    +0.000 A 
ENDBRANCH  13  14
ENDBRANCH   1  13
TORSDOF 6
ENDMDL
MODEL 8
REMARK VINA RESULT:      -7.0      0.947      1.883
REMARK  Name = 
REMARK  7 active torsions:
REMARK  status: ('A' for Active; 'I' for Inactive)
REMARK    1  A    between atoms: C_1  and  C_2
REMARK    2  A    between atoms: C_2  and  O_3
REMARK    3  A    between atoms: O_3  and  P_4
REMARK    4  A    between atoms: P_4  and  N_6
REMARK    5  A    between atoms: P_4  and  O_12
REMARK    6  A    between atoms: N_6  and  C_7
REMARK    7  A    between atoms: O_12  and  C_13
REMARK                            x       y       z     vdW  Elec       q    Type
REMARK                         _______ _______ _______ _____ _____    ______ ____
ROOT
ATOM      1  P   UNL     1       4.013   4.477  17.506  0.00  0.00    +0.000 P 
ATOM      2  S   UNL     1       3.383   2.567  17.600  0.00  0.00    +0.000 S 
ENDROOT
BRANCH   1   3
ATOM      3  N   UNL     1       5.656   4.564  17.995  0.00  0.00    +0.000 NA
ATOM      4  H   UNL     1       6.184   4.084  17.268  0.00  0.00    +0.000 HD
BRANCH   3   5
ATOM      5  C   UNL     1       6.314   5.829  18.286  0.00  0.00    +0.000 C 
ATOM      6  C   UNL     1       7.778   5.688  18.696  0.00  0.00    +0.000 C 
ATOM      7  C   UNL     1       8.262   7.134  18.691  0.00  0.00    +0.000 C 
ATOM      8  C   UNL     1       7.448   7.827  17.594  0.00  0.00    +0.000 C 
ATOM      9  C   UNL     1       6.443   6.781  17.095  0.00  0.00    +0.000 C 
ENDBRANCH   3   5
ENDBRANCH   1   3
BRANCH   1  10
ATOM     10  O   UNL     1       4.499   4.247  15.862  0.00  0.00    +0.000 OA
BRANCH  10  12
ATOM     11  C   UNL     1       6.402   4.086  14.431  0.00  0.00    +0.000 C 
ATOM     12  C   UNL     1       5.740   3.573  15.695  0.00  0.00    +0.000 C 
ENDBRANCH  10  12
ENDBRANCH   1  10
BRANCH   1  13
ATOM     13  O   UNL     1       3.526   4.708  19.150  0.00  0.00    +0.000 OA
BRANCH  13  14
ATOM     14  C   UNL     1       2.831   5.850  19.445  0.00  0.00    +0.000 A 
ATOM     15  C   UNL     1       2.131   6.027  20.637  0.00  0.00    +0.000 A 
ATOM     16  C   UNL     1       1.464   7.231  20.876  0.00  0.00    +0.000 A 
ATOM     17  C   UNL     1       1.466   8.265  19.952  0.00  0.00    +0.000 A 
ATOM     18  N   UNL     1       0.810   9.402  20.238  0.00  0.00    +0.000 NA
ATOM     19  C   UNL     1       0.822  10.391  19.317  0.00  0.00    +0.000 A 
ATOM     20  C   UNL     1       1.473  10.300  18.101  0.00  0.00    +0.000 A 
ATOM     21  C   UNL     1       2.153   9.124  17.812  0.00  0.00    +0.000 A 
ATOM     22  C   UNL     1       2.161   8.074  18.741  0.00  0.00    +0.000 A 
ATOM     23  C   UNL     1       2.838   6.865  18.490  0.00  0.00    +0.000 A 
ENDBRANCH  13  14
ENDBRANCH   1  13
TORSDOF 6
ENDMDL
MODEL 9
REMARK VINA RESULT:      -6.9      2.389      3.308
REMARK  Name = 
REMARK  7 active torsions:
REMARK  status: ('A' for Active; 'I' for Inactive)
REMARK    1  A    between atoms: C_1  and  C_2
REMARK    2  A    between atoms: C_2  and  O_3
REMARK    3  A    between atoms: O_3  and  P_4
REMARK    4  A    between atoms: P_4  and  N_6
REMARK    5  A    between atoms: P_4  and  O_12
REMARK    6  A    between atoms: N_6  and  C_7
REMARK    7  A    between atoms: O_12  and  C_13
REMARK                            x       y       z     vdW  Elec       q    Type
REMARK                         _______ _______ _______ _____ _____    ______ ____
ROOT
ATOM      1  P   UNL     1       2.324   5.050  19.170  0.00  0.00    +0.000 P 
ATOM      2  S   UNL     1       2.209   4.139  20.962  0.00  0.00    +0.000 S 
ENDROOT
BRANCH   1   3
ATOM      3  N   UNL     1       3.921   4.909  18.557  0.00  0.00    +0.000 NA
ATOM      4  H   UNL     1       4.260   4.003  18.878  0.00  0.00    +0.000 HD
BRANCH   3   5
ATOM      5  C   UNL     1       4.225   5.040  17.139  0.00  0.00    +0.000 C 
ATOM      6  C   UNL     1       4.972   6.321  16.781  0.00  0.00    +0.000 C 
ATOM      7  C   UNL     1       5.366   6.077  15.327  0.00  0.00    +0.000 C 
ATOM      8  C   UNL     1       5.581   4.564  15.218  0.00  0.00    +0.000 C 
ATOM      9  C   UNL     1       5.183   3.986  16.582  0.00  0.00    +0.000 C 
ENDBRANCH   3   5
ENDBRANCH   1   3
BRANCH   1  10
ATOM     10  O   UNL     1       1.876   3.576  18.381  0.00  0.00    +0.000 OA
BRANCH  10  12
ATOM     11  C   UNL     1       3.168   1.571  18.428  0.00  0.00    +0.000 C 
ATOM     12  C   UNL     1       2.115   2.397  19.139  0.00  0.00    +0.000 C 
ENDBRANCH  10  12
ENDBRANCH   1  10
BRANCH   1  13
ATOM     13  O   UNL     1       2.772   6.523  19.959  0.00  0.00    +0.000 OA
BRANCH  13  14
ATOM     14  C   UNL     1       2.104   7.661  19.590  0.00  0.00    +0.000 A 
ATOM     15  C   UNL     1       2.142   8.177  18.296  0.00  0.00    +0.000 A 
ATOM     16  C   UNL     1       1.415   9.330  17.990  0.00  0.00    +0.000 A 
ATOM     17  C   UNL     1       0.657   9.992  18.945  0.00  0.00    +0.000 A 
ATOM     18  N   UNL     1      -0.025  11.095  18.591  0.00  0.00    +0.000 NA
ATOM     19  C   UNL     1      -0.749  11.726  19.542  0.00  0.00    +0.000 A 
ATOM     20  C   UNL     1      -0.832  11.298  20.853  0.00  0.00    +0.000 A 
ATOM     21  C   UNL     1      -0.129  10.155  21.212  0.00  0.00    +0.000 A 
ATOM     22  C   UNL     1       0.637   9.475  20.255  0.00  0.00    +0.000 A 
ATOM     23  C   UNL     1       1.364   8.313  20.574  0.00  0.00    +0.000 A 
ENDBRANCH  13  14
ENDBRANCH   1  13
TORSDOF 6
ENDMDL
