MODEL 1
REMARK VINA RESULT:      -7.4      0.000      0.000
REMARK  Name = 
REMARK  9 active torsions:
REMARK  status: ('A' for Active; 'I' for Inactive)
REMARK    1  A    between atoms: C_1  and  C_2
REMARK    2  A    between atoms: C_6  and  O_7
REMARK    3  A    between atoms: O_7  and  C_8
REMARK    4  A    between atoms: C_8  and  C_9
REMARK    5  A    between atoms: N_11  and  N_12
REMARK    6  A    between atoms: C_13  and  C_14
REMARK    7  A    between atoms: C_15  and  C_16
REMARK    8  A    between atoms: C_18  and  O_19
REMARK    9  A    between atoms: C_21  and  O_22
REMARK                            x       y       z     vdW  Elec       q    Type
REMARK                         _______ _______ _______ _____ _____    ______ ____
ROOT
ATOM      1  C   UNL     1       2.624   5.091  20.591  0.00  0.00    +0.000 C 
ATOM      2  O   UNL     1       2.572   3.940  21.026  0.00  0.00    +0.000 OA
ATOM      3  N   UNL     1       1.654   6.024  20.901  0.00  0.00    +0.000 N 
ATOM      4  H   UNL     1       0.844   5.739  21.438  0.00  0.00    +0.000 HD
ENDROOT
BRANCH   3   5
ATOM      5  N   UNL     1       1.813   7.308  20.509  0.00  0.00    +0.000 NA
ATOM      6  C   UNL     1       0.901   8.166  20.795  0.00  0.00    +0.000 C 
BRANCH   6   7
ATOM      7  C   UNL     1       1.013   9.566  20.328  0.00  0.00    +0.000 A 
ATOM      8  C   UNL     1       1.302   9.927  18.992  0.00  0.00    +0.000 A 
ATOM      9  C   UNL     1       1.574   8.982  17.854  0.00  0.00    +0.000 C 
ATOM     10  C   UNL     1       1.396  11.296  18.671  0.00  0.00    +0.000 A 
ATOM     11  C   UNL     1       1.173  12.271  19.635  0.00  0.00    +0.000 A 
ATOM     12  C   UNL     1       0.843  11.922  20.936  0.00  0.00    +0.000 A 
ATOM     13  C   UNL     1       0.768  10.572  21.279  0.00  0.00    +0.000 A 
BRANCH  11  14
ATOM     14  O   UNL     1       1.275  13.598  19.335  0.00  0.00    +0.000 OA
ATOM     15  H   UNL     1       0.612  14.084  19.853  0.00  0.00    +0.000 HD
ENDBRANCH  11  14
BRANCH  13  16
ATOM     16  O   UNL     1       0.428  10.236  22.564  0.00  0.00    +0.000 OA
ATOM     17  H   UNL     1       0.084  11.025  23.017  0.00  0.00    +0.000 HD
ENDBRANCH  13  16
ENDBRANCH   6   7
ENDBRANCH   3   5
BRANCH   1  18
ATOM     18  C   UNL     1       3.775   5.601  19.710  0.00  0.00    +0.000 C 
BRANCH  18  19
ATOM     19  O   UNL     1       4.524   4.490  19.239  0.00  0.00    +0.000 OA
BRANCH  19  25
ATOM     20  C   UNL     1       6.864   4.384  14.043  0.00  0.00    +0.000 C 
ATOM     21  C   UNL     1       6.275   4.422  15.421  0.00  0.00    +0.000 A 
ATOM     22  C   UNL     1       4.998   3.934  15.678  0.00  0.00    +0.000 A 
ATOM     23  C   UNL     1       4.477   3.981  16.977  0.00  0.00    +0.000 A 
ATOM     24 BR   UNL     1       2.705   3.303  17.208  0.00  0.00    +0.000 Br
ATOM     25  C   UNL     1       5.217   4.495  18.067  0.00  0.00    +0.000 A 
ATOM     26  C   UNL     1       6.498   4.995  17.795  0.00  0.00    +0.000 A 
ATOM     27 BR   UNL     1       7.678   5.818  19.038  0.00  0.00    +0.000 Br
ATOM     28  C   UNL     1       7.009   4.959  16.482  0.00  0.00    +0.000 A 
ENDBRANCH  19  25
ENDBRANCH  18  19
ENDBRANCH   1  18
TORSDOF 7
ENDMDL
MODEL 2
REMARK VINA RESULT:      -7.4      1.048      1.740
REMARK  Name = 
REMARK  9 active torsions:
REMARK  status: ('A' for Active; 'I' for Inactive)
REMARK    1  A    between atoms: C_1  and  C_2
REMARK    2  A    between atoms: C_6  and  O_7
REMARK    3  A    between atoms: O_7  and  C_8
REMARK    4  A    between atoms: C_8  and  C_9
REMARK    5  A    between atoms: N_11  and  N_12
REMARK    6  A    between atoms: C_13  and  C_14
REMARK    7  A    between atoms: C_15  and  C_16
REMARK    8  A    between atoms: C_18  and  O_19
REMARK    9  A    between atoms: C_21  and  O_22
REMARK                            x       y       z     vdW  Elec       q    Type
REMARK                         _______ _______ _______ _____ _____    ______ ____
ROOT
ATOM      1  C   UNL     1       2.646   4.874  20.569  0.00  0.00    +0.000 C 
ATOM      2  O   UNL     1       2.654   3.689  20.902  0.00  0.00    +0.000 OA
ATOM      3  N   UNL     1       1.664   5.740  21.010  0.00  0.00    +0.000 N 
ATOM      4  H   UNL     1       0.894   5.379  21.559  0.00  0.00    +0.000 HD
ENDROOT
BRANCH   3   5
ATOM      5  N   UNL     1       1.761   7.059  20.727  0.00  0.00    +0.000 NA
ATOM      6  C   UNL     1       0.715   7.798  20.830  0.00  0.00    +0.000 C 
BRANCH   6   7
ATOM      7  C   UNL     1       0.770   9.232  20.469  0.00  0.00    +0.000 A 
ATOM      8  C   UNL     1       0.408  10.277  21.350  0.00  0.00    +0.000 A 
ATOM      9  C   UNL     1      -0.117  10.118  22.751  0.00  0.00    +0.000 C 
ATOM     10  C   UNL     1       0.491  11.606  20.887  0.00  0.00    +0.000 A 
ATOM     11  C   UNL     1       0.954  11.887  19.609  0.00  0.00    +0.000 A 
ATOM     12  C   UNL     1       1.356  10.868  18.757  0.00  0.00    +0.000 A 
ATOM     13  C   UNL     1       1.259   9.544  19.188  0.00  0.00    +0.000 A 
BRANCH  11  14
ATOM     14  O   UNL     1       1.025  13.169  19.148  0.00  0.00    +0.000 OA
ATOM     15  H   UNL     1       1.893  13.536  19.387  0.00  0.00    +0.000 HD
ENDBRANCH  11  14
BRANCH  13  16
ATOM     16  O   UNL     1       1.670   8.545  18.346  0.00  0.00    +0.000 OA
ATOM     17  H   UNL     1       1.395   8.762  17.439  0.00  0.00    +0.000 HD
ENDBRANCH  13  16
ENDBRANCH   6   7
ENDBRANCH   3   5
BRANCH   1  18
ATOM     18  C   UNL     1       3.731   5.502  19.680  0.00  0.00    +0.000 C 
BRANCH  18  19
ATOM     19  O   UNL     1       4.620   4.483  19.246  0.00  0.00    +0.000 OA
BRANCH  19  25
ATOM     20  C   UNL     1       6.866   4.536  14.009  0.00  0.00    +0.000 C 
ATOM     21  C   UNL     1       6.301   4.532  15.397  0.00  0.00    +0.000 A 
ATOM     22  C   UNL     1       5.038   4.015  15.666  0.00  0.00    +0.000 A 
ATOM     23  C   UNL     1       4.540   4.024  16.975  0.00  0.00    +0.000 A 
ATOM     24 BR   UNL     1       2.785   3.308  17.223  0.00  0.00    +0.000 Br
ATOM     25  C   UNL     1       5.291   4.526  18.063  0.00  0.00    +0.000 A 
ATOM     26  C   UNL     1       6.557   5.056  17.779  0.00  0.00    +0.000 A 
ATOM     27 BR   UNL     1       7.746   5.872  19.019  0.00  0.00    +0.000 Br
ATOM     28  C   UNL     1       7.045   5.058  16.457  0.00  0.00    +0.000 A 
ENDBRANCH  19  25
ENDBRANCH  18  19
ENDBRANCH   1  18
TORSDOF 7
ENDMDL
MODEL 3
REMARK VINA RESULT:      -7.4      1.103      2.622
REMARK  Name = 
REMARK  9 active torsions:
REMARK  status: ('A' for Active; 'I' for Inactive)
REMARK    1  A    between atoms: C_1  and  C_2
REMARK    2  A    between atoms: C_6  and  O_7
REMARK    3  A    between atoms: O_7  and  C_8
REMARK    4  A    between atoms: C_8  and  C_9
REMARK    5  A    between atoms: N_11  and  N_12
REMARK    6  A    between atoms: C_13  and  C_14
REMARK    7  A    between atoms: C_15  and  C_16
REMARK    8  A    between atoms: C_18  and  O_19
REMARK    9  A    between atoms: C_21  and  O_22
REMARK                            x       y       z     vdW  Elec       q    Type
REMARK                         _______ _______ _______ _____ _____    ______ ____
ROOT
ATOM      1  C   UNL     1       2.823   4.997  20.449  0.00  0.00    +0.000 C 
ATOM      2  O   UNL     1       2.917   3.789  20.670  0.00  0.00    +0.000 OA
ATOM      3  N   UNL     1       1.775   5.743  20.951  0.00  0.00    +0.000 N 
ATOM      4  H   UNL     1       1.028   5.276  21.451  0.00  0.00    +0.000 HD
ENDROOT
BRANCH   3   5
ATOM      5  N   UNL     1       1.774   7.086  20.794  0.00  0.00    +0.000 NA
ATOM      6  C   UNL     1       0.677   7.733  20.956  0.00  0.00    +0.000 C 
BRANCH   6   7
ATOM      7  C   UNL     1       0.627   9.195  20.731  0.00  0.00    +0.000 A 
ATOM      8  C   UNL     1       0.197  10.124  21.707  0.00  0.00    +0.000 A 
ATOM      9  C   UNL     1      -0.307   9.798  23.086  0.00  0.00    +0.000 C 
ATOM     10  C   UNL     1       0.182  11.493  21.370  0.00  0.00    +0.000 A 
ATOM     11  C   UNL     1       0.616  11.925  20.124  0.00  0.00    +0.000 A 
ATOM     12  C   UNL     1       1.084  11.022  19.181  0.00  0.00    +0.000 A 
ATOM     13  C   UNL     1       1.085   9.661  19.486  0.00  0.00    +0.000 A 
BRANCH  11  14
ATOM     14  O   UNL     1       0.593  13.247  19.786  0.00  0.00    +0.000 OA
ATOM     15  H   UNL     1       1.386  13.674  20.151  0.00  0.00    +0.000 HD
ENDBRANCH  11  14
BRANCH  13  16
ATOM     16  O   UNL     1       1.562   8.776  18.554  0.00  0.00    +0.000 OA
ATOM     17  H   UNL     1       1.512   7.876  18.918  0.00  0.00    +0.000 HD
ENDBRANCH  13  16
ENDBRANCH   6   7
ENDBRANCH   3   5
BRANCH   1  18
ATOM     18  C   UNL     1       3.867   5.784  19.641  0.00  0.00    +0.000 C 
BRANCH  18  19
ATOM     19  O   UNL     1       4.879   4.891  19.199  0.00  0.00    +0.000 OA
BRANCH  19  25
ATOM     20  C   UNL     1       6.699   4.109  13.855  0.00  0.00    +0.000 C 
ATOM     21  C   UNL     1       6.194   4.304  15.253  0.00  0.00    +0.000 A 
ATOM     22  C   UNL     1       6.971   4.923  16.227  0.00  0.00    +0.000 A 
ATOM     23  C   UNL     1       6.468   5.093  17.523  0.00  0.00    +0.000 A 
ATOM     24 BR   UNL     1       7.632   5.934  18.783  0.00  0.00    +0.000 Br
ATOM     25  C   UNL     1       5.167   4.674  17.886  0.00  0.00    +0.000 A 
ATOM     26  C   UNL     1       4.397   4.041  16.901  0.00  0.00    +0.000 A 
ATOM     27 BR   UNL     1       2.659   3.302  17.125  0.00  0.00    +0.000 Br
ATOM     28  C   UNL     1       4.916   3.860  15.604  0.00  0.00    +0.000 A 
ENDBRANCH  19  25
ENDBRANCH  18  19
ENDBRANCH   1  18
TORSDOF 7
ENDMDL
MODEL 4
REMARK VINA RESULT:      -7.3      3.611      8.885
REMARK  Name = 
REMARK  9 active torsions:
REMARK  status: ('A' for Active; 'I' for Inactive)
REMARK    1  A    between atoms: C_1  and  C_2
REMARK    2  A    between atoms: C_6  and  O_7
REMARK    3  A    between atoms: O_7  and  C_8
REMARK    4  A    between atoms: C_8  and  C_9
REMARK    5  A    between atoms: N_11  and  N_12
REMARK    6  A    between atoms: C_13  and  C_14
REMARK    7  A    between atoms: C_15  and  C_16
REMARK    8  A    between atoms: C_18  and  O_19
REMARK    9  A    between atoms: C_21  and  O_22
REMARK                            x       y       z     vdW  Elec       q    Type
REMARK                         _______ _______ _______ _____ _____    ______ ____
ROOT
ATOM      1  C   UNL     1       1.864  10.162  18.208  0.00  0.00    +0.000 C 
ATOM      2  O   UNL     1       2.211  11.257  17.764  0.00  0.00    +0.000 OA
ATOM      3  N   UNL     1       2.417   8.986  17.740  0.00  0.00    +0.000 N 
ATOM      4  H   UNL     1       3.068   9.017  16.965  0.00  0.00    +0.000 HD
ENDROOT
BRANCH   3   5
ATOM      5  N   UNL     1       2.103   7.815  18.340  0.00  0.00    +0.000 NA
ATOM      6  C   UNL     1       3.006   6.908  18.450  0.00  0.00    +0.000 C 
BRANCH   6   7
ATOM      7  C   UNL     1       2.680   5.593  19.045  0.00  0.00    +0.000 A 
ATOM      8  C   UNL     1       2.987   4.356  18.432  0.00  0.00    +0.000 A 
ATOM      9  C   UNL     1       3.642   4.167  17.091  0.00  0.00    +0.000 C 
ATOM     10  C   UNL     1       2.615   3.168  19.093  0.00  0.00    +0.000 A 
ATOM     11  C   UNL     1       1.996   3.207  20.335  0.00  0.00    +0.000 A 
ATOM     12  C   UNL     1       1.737   4.416  20.963  0.00  0.00    +0.000 A 
ATOM     13  C   UNL     1       2.076   5.605  20.315  0.00  0.00    +0.000 A 
BRANCH  11  14
ATOM     14  O   UNL     1       1.621   2.062  20.975  0.00  0.00    +0.000 OA
ATOM     15  H   UNL     1       1.976   1.302  20.483  0.00  0.00    +0.000 HD
ENDBRANCH  11  14
BRANCH  13  16
ATOM     16  O   UNL     1       1.827   6.795  20.948  0.00  0.00    +0.000 OA
ATOM     17  H   UNL     1       2.015   7.525  20.333  0.00  0.00    +0.000 HD
ENDBRANCH  13  16
ENDBRANCH   6   7
ENDBRANCH   3   5
BRANCH   1  18
ATOM     18  C   UNL     1       0.830  10.005  19.334  0.00  0.00    +0.000 C 
BRANCH  18  19
ATOM     19  O   UNL     1       0.891  11.143  20.181  0.00  0.00    +0.000 OA
BRANCH  19  25
ATOM     20  C   UNL     1      -3.542  13.026  23.227  0.00  0.00    +0.000 C 
ATOM     21  C   UNL     1      -2.370  12.511  22.448  0.00  0.00    +0.000 A 
ATOM     22  C   UNL     1      -1.978  13.101  21.250  0.00  0.00    +0.000 A 
ATOM     23  C   UNL     1      -0.876  12.598  20.547  0.00  0.00    +0.000 A 
ATOM     24 BR   UNL     1      -0.444  13.473  18.903  0.00  0.00    +0.000 Br
ATOM     25  C   UNL     1      -0.113  11.507  21.024  0.00  0.00    +0.000 A 
ATOM     26  C   UNL     1      -0.523  10.913  22.225  0.00  0.00    +0.000 A 
ATOM     27 BR   UNL     1       0.254   9.389  23.056  0.00  0.00    +0.000 Br
ATOM     28  C   UNL     1      -1.643  11.415  22.918  0.00  0.00    +0.000 A 
ENDBRANCH  19  25
ENDBRANCH  18  19
ENDBRANCH   1  18
TORSDOF 7
ENDMDL
MODEL 5
REMARK VINA RESULT:      -7.2      3.485      8.853
REMARK  Name = 
REMARK  9 active torsions:
REMARK  status: ('A' for Active; 'I' for Inactive)
REMARK    1  A    between atoms: C_1  and  C_2
REMARK    2  A    between atoms: C_6  and  O_7
REMARK    3  A    between atoms: O_7  and  C_8
REMARK    4  A    between atoms: C_8  and  C_9
REMARK    5  A    between atoms: N_11  and  N_12
REMARK    6  A    between atoms: C_13  and  C_14
REMARK    7  A    between atoms: C_15  and  C_16
REMARK    8  A    between atoms: C_18  and  O_19
REMARK    9  A    between atoms: C_21  and  O_22
REMARK                            x       y       z     vdW  Elec       q    Type
REMARK                         _______ _______ _______ _____ _____    ______ ____
ROOT
ATOM      1  C   UNL     1       1.654  10.173  18.472  0.00  0.00    +0.000 C 
ATOM      2  O   UNL     1       1.596  11.393  18.311  0.00  0.00    +0.000 OA
ATOM      3  N   UNL     1       2.290   9.355  17.559  0.00  0.00    +0.000 N 
ATOM      4  H   UNL     1       2.653   9.754  16.703  0.00  0.00    +0.000 HD
ENDROOT
BRANCH   3   5
ATOM      5  N   UNL     1       2.443   8.040  17.835  0.00  0.00    +0.000 NA
ATOM      6  C   UNL     1       3.626   7.538  17.850  0.00  0.00    +0.000 C 
BRANCH   6   7
ATOM      7  C   UNL     1       3.825   6.092  18.087  0.00  0.00    +0.000 A 
ATOM      8  C   UNL     1       4.508   5.237  17.191  0.00  0.00    +0.000 A 
ATOM      9  C   UNL     1       5.098   5.627  15.864  0.00  0.00    +0.000 C 
ATOM     10  C   UNL     1       4.623   3.871  17.522  0.00  0.00    +0.000 A 
ATOM     11  C   UNL     1       4.113   3.382  18.717  0.00  0.00    +0.000 A 
ATOM     12  C   UNL     1       3.485   4.225  19.621  0.00  0.00    +0.000 A 
ATOM     13  C   UNL     1       3.340   5.576  19.302  0.00  0.00    +0.000 A 
BRANCH  11  14
ATOM     14  O   UNL     1       4.209   2.059  19.038  0.00  0.00    +0.000 OA
ATOM     15  H   UNL     1       4.361   1.984  19.995  0.00  0.00    +0.000 HD
ENDBRANCH  11  14
BRANCH  13  16
ATOM     16  O   UNL     1       2.730   6.406  20.207  0.00  0.00    +0.000 OA
ATOM     17  H   UNL     1       2.216   7.076  19.725  0.00  0.00    +0.000 HD
ENDBRANCH  13  16
ENDBRANCH   6   7
ENDBRANCH   3   5
BRANCH   1  18
ATOM     18  C   UNL     1       1.071   9.463  19.704  0.00  0.00    +0.000 C 
BRANCH  18  19
ATOM     19  O   UNL     1      -0.311   9.774  19.807  0.00  0.00    +0.000 OA
BRANCH  19  25
ATOM     20  C   UNL     1      -2.780  13.797  23.000  0.00  0.00    +0.000 C 
ATOM     21  C   UNL     1      -2.118  12.728  22.185  0.00  0.00    +0.000 A 
ATOM     22  C   UNL     1      -2.211  12.710  20.797  0.00  0.00    +0.000 A 
ATOM     23  C   UNL     1      -1.578  11.699  20.063  0.00  0.00    +0.000 A 
ATOM     24 BR   UNL     1      -1.793  11.762  18.166  0.00  0.00    +0.000 Br
ATOM     25  C   UNL     1      -0.812  10.685  20.685  0.00  0.00    +0.000 A 
ATOM     26  C   UNL     1      -0.735  10.705  22.084  0.00  0.00    +0.000 A 
ATOM     27 BR   UNL     1       0.145   9.430  23.186  0.00  0.00    +0.000 Br
ATOM     28  C   UNL     1      -1.388  11.717  22.816  0.00  0.00    +0.000 A 
ENDBRANCH  19  25
ENDBRANCH  18  19
ENDBRANCH   1  18
TORSDOF 7
ENDMDL
MODEL 6
REMARK VINA RESULT:      -7.2      3.644      8.928
REMARK  Name = 
REMARK  9 active torsions:
REMARK  status: ('A' for Active; 'I' for Inactive)
REMARK    1  A    between atoms: C_1  and  C_2
REMARK    2  A    between atoms: C_6  and  O_7
REMARK    3  A    between atoms: O_7  and  C_8
REMARK    4  A    between atoms: C_8  and  C_9
REMARK    5  A    between atoms: N_11  and  N_12
REMARK    6  A    between atoms: C_13  and  C_14
REMARK    7  A    between atoms: C_15  and  C_16
REMARK    8  A    between atoms: C_18  and  O_19
REMARK    9  A    between atoms: C_21  and  O_22
REMARK                            x       y       z     vdW  Elec       q    Type
REMARK                         _______ _______ _______ _____ _____    ______ ____
ROOT
ATOM      1  C   UNL     1       1.794  10.311  18.299  0.00  0.00    +0.000 C 
ATOM      2  O   UNL     1       2.147  11.450  17.992  0.00  0.00    +0.000 OA
ATOM      3  N   UNL     1       2.429   9.197  17.786  0.00  0.00    +0.000 N 
ATOM      4  H   UNL     1       3.153   9.315  17.088  0.00  0.00    +0.000 HD
ENDROOT
BRANCH   3   5
ATOM      5  N   UNL     1       2.097   7.969  18.244  0.00  0.00    +0.000 NA
ATOM      6  C   UNL     1       3.031   7.144  18.555  0.00  0.00    +0.000 C 
BRANCH   6   7
ATOM      7  C   UNL     1       2.703   5.771  19.001  0.00  0.00    +0.000 A 
ATOM      8  C   UNL     1       3.099   4.605  18.305  0.00  0.00    +0.000 A 
ATOM      9  C   UNL     1       3.863   4.557  17.011  0.00  0.00    +0.000 C 
ATOM     10  C   UNL     1       2.715   3.351  18.823  0.00  0.00    +0.000 A 
ATOM     11  C   UNL     1       1.999   3.259  20.009  0.00  0.00    +0.000 A 
ATOM     12  C   UNL     1       1.650   4.398  20.720  0.00  0.00    +0.000 A 
ATOM     13  C   UNL     1       2.000   5.650  20.212  0.00  0.00    +0.000 A 
BRANCH  11  14
ATOM     14  O   UNL     1       1.612   2.051  20.510  0.00  0.00    +0.000 OA
ATOM     15  H   UNL     1       1.967   1.961  21.410  0.00  0.00    +0.000 HD
ENDBRANCH  11  14
BRANCH  13  16
ATOM     16  O   UNL     1       1.663   6.770  20.928  0.00  0.00    +0.000 OA
ATOM     17  H   UNL     1       2.331   7.458  20.770  0.00  0.00    +0.000 HD
ENDBRANCH  13  16
ENDBRANCH   6   7
ENDBRANCH   3   5
BRANCH   1  18
ATOM     18  C   UNL     1       0.660  10.026  19.295  0.00  0.00    +0.000 C 
BRANCH  18  19
ATOM     19  O   UNL     1       0.810  10.876  20.423  0.00  0.00    +0.000 OA
BRANCH  19  25
ATOM     20  C   UNL     1      -3.390  13.380  23.350  0.00  0.00    +0.000 C 
ATOM     21  C   UNL     1      -2.290  12.742  22.558  0.00  0.00    +0.000 A 
ATOM     22  C   UNL     1      -1.660  11.580  22.995  0.00  0.00    +0.000 A 
ATOM     23  C   UNL     1      -0.637  11.006  22.230  0.00  0.00    +0.000 A 
ATOM     24 BR   UNL     1       0.170   9.426  22.939  0.00  0.00    +0.000 Br
ATOM     25  C   UNL     1      -0.222  11.555  20.994  0.00  0.00    +0.000 A 
ATOM     26  C   UNL     1      -0.854  12.731  20.569  0.00  0.00    +0.000 A 
ATOM     27 BR   UNL     1      -0.448  13.732  19.004  0.00  0.00    +0.000 Br
ATOM     28  C   UNL     1      -1.872  13.312  21.352  0.00  0.00    +0.000 A 
ENDBRANCH  19  25
ENDBRANCH  18  19
ENDBRANCH   1  18
TORSDOF 7
ENDMDL
MODEL 7
REMARK VINA RESULT:      -7.1      0.374      1.951
REMARK  Name = 
REMARK  9 active torsions:
REMARK  status: ('A' for Active; 'I' for Inactive)
REMARK    1  A    between atoms: C_1  and  C_2
REMARK    2  A    between atoms: C_6  and  O_7
REMARK    3  A    between atoms: O_7  and  C_8
REMARK    4  A    between atoms: C_8  and  C_9
REMARK    5  A    between atoms: N_11  and  N_12
REMARK    6  A    between atoms: C_13  and  C_14
REMARK    7  A    between atoms: C_15  and  C_16
REMARK    8  A    between atoms: C_18  and  O_19
REMARK    9  A    between atoms: C_21  and  O_22
REMARK                            x       y       z     vdW  Elec       q    Type
REMARK                         _______ _______ _______ _____ _____    ______ ____
ROOT
ATOM      1  C   UNL     1       2.824   5.117  20.402  0.00  0.00    +0.000 C 
ATOM      2  O   UNL     1       2.848   3.917  20.678  0.00  0.00    +0.000 OA
ATOM      3  N   UNL     1       1.791   5.933  20.820  0.00  0.00    +0.000 N 
ATOM      4  H   UNL     1       0.999   5.525  21.301  0.00  0.00    +0.000 HD
ENDROOT
BRANCH   3   5
ATOM      5  N   UNL     1       1.865   7.266  20.606  0.00  0.00    +0.000 NA
ATOM      6  C   UNL     1       0.796   7.973  20.696  0.00  0.00    +0.000 C 
BRANCH   6   7
ATOM      7  C   UNL     1       0.829   9.424  20.409  0.00  0.00    +0.000 A 
ATOM      8  C   UNL     1       1.108   9.965  19.133  0.00  0.00    +0.000 A 
ATOM      9  C   UNL     1       1.449   9.187  17.892  0.00  0.00    +0.000 C 
ATOM     10  C   UNL     1       1.123  11.367  18.986  0.00  0.00    +0.000 A 
ATOM     11  C   UNL     1       0.832  12.199  20.058  0.00  0.00    +0.000 A 
ATOM     12  C   UNL     1       0.510  11.673  21.300  0.00  0.00    +0.000 A 
ATOM     13  C   UNL     1       0.513  10.288  21.473  0.00  0.00    +0.000 A 
BRANCH  11  14
ATOM     14  O   UNL     1       0.857  13.557  19.927  0.00  0.00    +0.000 OA
ATOM     15  H   UNL     1       1.753  13.826  19.663  0.00  0.00    +0.000 HD
ENDBRANCH  11  14
BRANCH  13  16
ATOM     16  O   UNL     1       0.181   9.776  22.700  0.00  0.00    +0.000 OA
ATOM     17  H   UNL     1       0.339   8.816  22.695  0.00  0.00    +0.000 HD
ENDBRANCH  13  16
ENDBRANCH   6   7
ENDBRANCH   3   5
BRANCH   1  18
ATOM     18  C   UNL     1       3.942   5.817  19.614  0.00  0.00    +0.000 C 
BRANCH  18  19
ATOM     19  O   UNL     1       4.870   4.841  19.162  0.00  0.00    +0.000 OA
BRANCH  19  25
ATOM     20  C   UNL     1       6.640   4.050  13.803  0.00  0.00    +0.000 C 
ATOM     21  C   UNL     1       6.147   4.247  15.205  0.00  0.00    +0.000 A 
ATOM     22  C   UNL     1       6.926   4.886  16.165  0.00  0.00    +0.000 A 
ATOM     23  C   UNL     1       6.436   5.057  17.466  0.00  0.00    +0.000 A 
ATOM     24 BR   UNL     1       7.600   5.927  18.706  0.00  0.00    +0.000 Br
ATOM     25  C   UNL     1       5.146   4.619  17.848  0.00  0.00    +0.000 A 
ATOM     26  C   UNL     1       4.375   3.966  16.877  0.00  0.00    +0.000 A 
ATOM     27 BR   UNL     1       2.653   3.200  17.128  0.00  0.00    +0.000 Br
ATOM     28  C   UNL     1       4.882   3.783  15.575  0.00  0.00    +0.000 A 
ENDBRANCH  19  25
ENDBRANCH  18  19
ENDBRANCH   1  18
TORSDOF 7
ENDMDL
MODEL 8
REMARK VINA RESULT:      -6.9      3.612      9.070
REMARK  Name = 
REMARK  9 active torsions:
REMARK  status: ('A' for Active; 'I' for Inactive)
REMARK    1  A    between atoms: C_1  and  C_2
REMARK    2  A    between atoms: C_6  and  O_7
REMARK    3  A    between atoms: O_7  and  C_8
REMARK    4  A    between atoms: C_8  and  C_9
REMARK    5  A    between atoms: N_11  and  N_12
REMARK    6  A    between atoms: C_13  and  C_14
REMARK    7  A    between atoms: C_15  and  C_16
REMARK    8  A    between atoms: C_18  and  O_19
REMARK    9  A    between atoms: C_21  and  O_22
REMARK                            x       y       z     vdW  Elec       q    Type
REMARK                         _______ _______ _______ _____ _____    ______ ____
ROOT
ATOM      1  C   UNL     1       1.955  10.048  18.288  0.00  0.00    +0.000 C 
ATOM      2  O   UNL     1       2.335  11.205  18.102  0.00  0.00    +0.000 OA
ATOM      3  N   UNL     1       2.576   8.977  17.675  0.00  0.00    +0.000 N 
ATOM      4  H   UNL     1       3.312   9.149  17.001  0.00  0.00    +0.000 HD
ENDROOT
BRANCH   3   5
ATOM      5  N   UNL     1       2.212   7.717  18.003  0.00  0.00    +0.000 NA
ATOM      6  C   UNL     1       3.124   6.855  18.277  0.00  0.00    +0.000 C 
BRANCH   6   7
ATOM      7  C   UNL     1       2.765   5.452  18.580  0.00  0.00    +0.000 A 
ATOM      8  C   UNL     1       1.957   5.068  19.675  0.00  0.00    +0.000 A 
ATOM      9  C   UNL     1       1.371   5.986  20.713  0.00  0.00    +0.000 C 
ATOM     10  C   UNL     1       1.694   3.697  19.868  0.00  0.00    +0.000 A 
ATOM     11  C   UNL     1       2.184   2.746  18.983  0.00  0.00    +0.000 A 
ATOM     12  C   UNL     1       2.937   3.121  17.881  0.00  0.00    +0.000 A 
ATOM     13  C   UNL     1       3.228   4.472  17.685  0.00  0.00    +0.000 A 
BRANCH  11  14
ATOM     14  O   UNL     1       1.945   1.416  19.171  0.00  0.00    +0.000 OA
ATOM     15  H   UNL     1       2.236   1.172  20.065  0.00  0.00    +0.000 HD
ENDBRANCH  11  14
BRANCH  13  16
ATOM     16  O   UNL     1       3.962   4.836  16.586  0.00  0.00    +0.000 OA
ATOM     17  H   UNL     1       3.631   5.687  16.253  0.00  0.00    +0.000 HD
ENDBRANCH  13  16
ENDBRANCH   6   7
ENDBRANCH   3   5
BRANCH   1  18
ATOM     18  C   UNL     1       0.801   9.689  19.236  0.00  0.00    +0.000 C 
BRANCH  18  19
ATOM     19  O   UNL     1       0.863  10.528  20.380  0.00  0.00    +0.000 OA
BRANCH  19  25
ATOM     20  C   UNL     1      -3.487  13.038  23.073  0.00  0.00    +0.000 C 
ATOM     21  C   UNL     1      -2.349  12.394  22.340  0.00  0.00    +0.000 A 
ATOM     22  C   UNL     1      -1.619  11.352  22.904  0.00  0.00    +0.000 A 
ATOM     23  C   UNL     1      -0.563  10.769  22.192  0.00  0.00    +0.000 A 
ATOM     24 BR   UNL     1       0.382   9.362  23.073  0.00  0.00    +0.000 Br
ATOM     25  C   UNL     1      -0.213  11.189  20.887  0.00  0.00    +0.000 A 
ATOM     26  C   UNL     1      -0.946  12.247  20.334  0.00  0.00    +0.000 A 
ATOM     27 BR   UNL     1      -0.646  13.070  18.647  0.00  0.00    +0.000 Br
ATOM     28  C   UNL     1      -1.997  12.839  21.063  0.00  0.00    +0.000 A 
ENDBRANCH  19  25
ENDBRANCH  18  19
ENDBRANCH   1  18
TORSDOF 7
ENDMDL
MODEL 9
REMARK VINA RESULT:      -6.9      3.510      9.028
REMARK  Name = 
REMARK  9 active torsions:
REMARK  status: ('A' for Active; 'I' for Inactive)
REMARK    1  A    between atoms: C_1  and  C_2
REMARK    2  A    between atoms: C_6  and  O_7
REMARK    3  A    between atoms: O_7  and  C_8
REMARK    4  A    between atoms: C_8  and  C_9
REMARK    5  A    between atoms: N_11  and  N_12
REMARK    6  A    between atoms: C_13  and  C_14
REMARK    7  A    between atoms: C_15  and  C_16
REMARK    8  A    between atoms: C_18  and  O_19
REMARK    9  A    between atoms: C_21  and  O_22
REMARK                            x       y       z     vdW  Elec       q    Type
REMARK                         _______ _______ _______ _____ _____    ______ ____
ROOT
ATOM      1  C   UNL     1       1.667  10.054  18.541  0.00  0.00    +0.000 C 
ATOM      2  O   UNL     1       1.719  11.280  18.438  0.00  0.00    +0.000 OA
ATOM      3  N   UNL     1       2.251   9.226  17.603  0.00  0.00    +0.000 N 
ATOM      4  H   UNL     1       2.670   9.631  16.775  0.00  0.00    +0.000 HD
ENDROOT
BRANCH   3   5
ATOM      5  N   UNL     1       2.282   7.891  17.817  0.00  0.00    +0.000 NA
ATOM      6  C   UNL     1       3.418   7.305  17.945  0.00  0.00    +0.000 C 
BRANCH   6   7
ATOM      7  C   UNL     1       3.490   5.837  18.119  0.00  0.00    +0.000 A 
ATOM      8  C   UNL     1       2.828   5.137  19.153  0.00  0.00    +0.000 A 
ATOM      9  C   UNL     1       1.992   5.744  20.246  0.00  0.00    +0.000 C 
ATOM     10  C   UNL     1       2.983   3.737  19.223  0.00  0.00    +0.000 A 
ATOM     11  C   UNL     1       3.737   3.056  18.277  0.00  0.00    +0.000 A 
ATOM     12  C   UNL     1       4.349   3.733  17.233  0.00  0.00    +0.000 A 
ATOM     13  C   UNL     1       4.227   5.121  17.159  0.00  0.00    +0.000 A 
BRANCH  11  14
ATOM     14  O   UNL     1       3.903   1.703  18.346  0.00  0.00    +0.000 OA
ATOM     15  H   UNL     1       3.684   1.410  19.246  0.00  0.00    +0.000 HD
ENDBRANCH  11  14
BRANCH  13  16
ATOM     16  O   UNL     1       4.824   5.781  16.117  0.00  0.00    +0.000 OA
ATOM     17  H   UNL     1       4.205   6.445  15.767  0.00  0.00    +0.000 HD
ENDBRANCH  13  16
ENDBRANCH   6   7
ENDBRANCH   3   5
BRANCH   1  18
ATOM     18  C   UNL     1       0.993   9.341  19.724  0.00  0.00    +0.000 C 
BRANCH  18  19
ATOM     19  O   UNL     1      -0.359   9.769  19.812  0.00  0.00    +0.000 OA
BRANCH  19  25
ATOM     20  C   UNL     1      -2.507  14.035  22.921  0.00  0.00    +0.000 C 
ATOM     21  C   UNL     1      -1.930  12.902  22.128  0.00  0.00    +0.000 A 
ATOM     22  C   UNL     1      -2.031  12.860  20.741  0.00  0.00    +0.000 A 
ATOM     23  C   UNL     1      -1.478  11.788  20.029  0.00  0.00    +0.000 A 
ATOM     24 BR   UNL     1      -1.697  11.824  18.131  0.00  0.00    +0.000 Br
ATOM     25  C   UNL     1      -0.787  10.734  20.671  0.00  0.00    +0.000 A 
ATOM     26  C   UNL     1      -0.701  10.780  22.069  0.00  0.00    +0.000 A 
ATOM     27 BR   UNL     1       0.088   9.469  23.197  0.00  0.00    +0.000 Br
ATOM     28  C   UNL     1      -1.273  11.854  22.780  0.00  0.00    +0.000 A 
ENDBRANCH  19  25
ENDBRANCH  18  19
ENDBRANCH   1  18
TORSDOF 7
ENDMDL
