MODEL 1
REMARK VINA RESULT:      -8.3      0.000      0.000
REMARK  Name = 
REMARK  6 active torsions:
REMARK  status: ('A' for Active; 'I' for Inactive)
REMARK    1  A    between atoms: C_1  and  C_2
REMARK    2  A    between atoms: C_2  and  N_3
REMARK    3  A    between atoms: C_5  and  C_6
REMARK    4  A    between atoms: C_7  and  C_8
REMARK    5  A    between atoms: C_16  and  C_17
REMARK    6  A    between atoms: C_21  and  C_22
REMARK                            x       y       z     vdW  Elec       q    Type
REMARK                         _______ _______ _______ _____ _____    ______ ____
ROOT
ATOM      1  C   UNL     1       4.919   4.095  17.027  0.00  0.00    +0.000 C 
ATOM      2  O   UNL     1       3.762   3.806  16.778  0.00  0.00    +0.000 OA
ATOM      3  N   UNL     1       5.464   4.073  18.301  0.00  0.00    +0.000 N 
ATOM      4  C   UNL     1       4.771   3.450  19.312  0.00  0.00    +0.000 A 
ATOM      5  N   UNL     1       5.253   2.469  20.048  0.00  0.00    +0.000 NA
ATOM      6  N   UNL     1       4.207   1.943  20.785  0.00  0.00    +0.000 NA
ATOM      7  C   UNL     1       3.138   2.662  20.533  0.00  0.00    +0.000 A 
ATOM      8  C   UNL     1       1.781   2.600  20.954  0.00  0.00    +0.000 A 
ATOM      9  C   UNL     1       0.895   3.452  20.382  0.00  0.00    +0.000 A 
ATOM     10  C   UNL     1       0.282   3.004  19.049  0.00  0.00    +0.000 C 
ATOM     11  C   UNL     1       1.428   4.816  20.098  0.00  0.00    +0.000 A 
ATOM     12  C   UNL     1       2.692   4.894  19.649  0.00  0.00    +0.000 A 
ATOM     13  N   UNL     1       3.494   3.754  19.745  0.00  0.00    +0.000 N 
ATOM     14  H   UNL     1       6.463   3.926  18.345  0.00  0.00    +0.000 HD
ENDROOT
BRANCH   1  19
ATOM     15  N   UNL     1       7.027   4.936  14.153  0.00  0.00    +0.000 N 
ATOM     16  N   UNL     1       7.650   5.658  15.094  0.00  0.00    +0.000 NA
ATOM     17  C   UNL     1       6.919   5.469  16.196  0.00  0.00    +0.000 A 
ATOM     18  C   UNL     1       7.295   6.154  17.459  0.00  0.00    +0.000 C 
ATOM     19  C   UNL     1       5.842   4.560  15.981  0.00  0.00    +0.000 A 
ATOM     20  C   UNL     1       5.895   4.296  14.611  0.00  0.00    +0.000 A 
ATOM     21  C   UNL     1       4.995   3.550  13.689  0.00  0.00    +0.000 C 
BRANCH  15  23
ATOM     22  C   UNL     1       8.606   6.023  12.586  0.00  0.00    +0.000 C 
ATOM     23  C   UNL     1       7.599   4.908  12.814  0.00  0.00    +0.000 C 
ENDBRANCH  15  23
ENDBRANCH   1  19
TORSDOF 2
ENDMDL
MODEL 2
REMARK VINA RESULT:      -8.2      1.626      2.210
REMARK  Name = 
REMARK  6 active torsions:
REMARK  status: ('A' for Active; 'I' for Inactive)
REMARK    1  A    between atoms: C_1  and  C_2
REMARK    2  A    between atoms: C_2  and  N_3
REMARK    3  A    between atoms: C_5  and  C_6
REMARK    4  A    between atoms: C_7  and  C_8
REMARK    5  A    between atoms: C_16  and  C_17
REMARK    6  A    between atoms: C_21  and  C_22
REMARK                            x       y       z     vdW  Elec       q    Type
REMARK                         _______ _______ _______ _____ _____    ______ ____
ROOT
ATOM      1  C   UNL     1       4.794   4.816  17.240  0.00  0.00    +0.000 C 
ATOM      2  O   UNL     1       4.838   3.854  17.985  0.00  0.00    +0.000 OA
ATOM      3  N   UNL     1       3.787   5.769  17.269  0.00  0.00    +0.000 N 
ATOM      4  C   UNL     1       2.930   5.801  18.344  0.00  0.00    +0.000 A 
ATOM      5  N   UNL     1       2.737   6.858  19.107  0.00  0.00    +0.000 NA
ATOM      6  N   UNL     1       2.005   6.452  20.209  0.00  0.00    +0.000 NA
ATOM      7  C   UNL     1       1.713   5.183  20.050  0.00  0.00    +0.000 A 
ATOM      8  C   UNL     1       1.025   4.219  20.838  0.00  0.00    +0.000 A 
ATOM      9  C   UNL     1       1.017   2.932  20.411  0.00  0.00    +0.000 A 
ATOM     10  C   UNL     1       2.230   2.077  20.805  0.00  0.00    +0.000 C 
ATOM     11  C   UNL     1       0.915   2.760  18.933  0.00  0.00    +0.000 A 
ATOM     12  C   UNL     1       1.601   3.629  18.170  0.00  0.00    +0.000 A 
ATOM     13  N   UNL     1       2.119   4.772  18.782  0.00  0.00    +0.000 N 
ATOM     14  H   UNL     1       4.044   6.685  16.928  0.00  0.00    +0.000 HD
ENDROOT
BRANCH   1  19
ATOM     15  N   UNL     1       7.060   5.013  14.370  0.00  0.00    +0.000 N 
ATOM     16  N   UNL     1       7.758   5.749  15.245  0.00  0.00    +0.000 NA
ATOM     17  C   UNL     1       6.984   5.796  16.333  0.00  0.00    +0.000 A 
ATOM     18  C   UNL     1       7.425   6.568  17.522  0.00  0.00    +0.000 C 
ATOM     19  C   UNL     1       5.795   5.023  16.184  0.00  0.00    +0.000 A 
ATOM     20  C   UNL     1       5.839   4.593  14.856  0.00  0.00    +0.000 A 
ATOM     21  C   UNL     1       4.864   3.872  13.993  0.00  0.00    +0.000 C 
BRANCH  15  23
ATOM     22  C   UNL     1       8.478   5.913  12.552  0.00  0.00    +0.000 C 
ATOM     23  C   UNL     1       7.651   4.748  13.066  0.00  0.00    +0.000 C 
ENDBRANCH  15  23
ENDBRANCH   1  19
TORSDOF 2
ENDMDL
MODEL 3
REMARK VINA RESULT:      -8.1      1.405      1.822
REMARK  Name = 
REMARK  6 active torsions:
REMARK  status: ('A' for Active; 'I' for Inactive)
REMARK    1  A    between atoms: C_1  and  C_2
REMARK    2  A    between atoms: C_2  and  N_3
REMARK    3  A    between atoms: C_5  and  C_6
REMARK    4  A    between atoms: C_7  and  C_8
REMARK    5  A    between atoms: C_16  and  C_17
REMARK    6  A    between atoms: C_21  and  C_22
REMARK                            x       y       z     vdW  Elec       q    Type
REMARK                         _______ _______ _______ _____ _____    ______ ____
ROOT
ATOM      1  C   UNL     1       4.611   4.593  16.732  0.00  0.00    +0.000 C 
ATOM      2  O   UNL     1       4.025   5.502  17.293  0.00  0.00    +0.000 OA
ATOM      3  N   UNL     1       4.368   3.251  16.976  0.00  0.00    +0.000 N 
ATOM      4  C   UNL     1       3.242   2.894  17.681  0.00  0.00    +0.000 A 
ATOM      5  N   UNL     1       2.318   2.069  17.233  0.00  0.00    +0.000 NA
ATOM      6  N   UNL     1       1.240   2.137  18.098  0.00  0.00    +0.000 NA
ATOM      7  C   UNL     1       1.566   2.942  19.082  0.00  0.00    +0.000 A 
ATOM      8  C   UNL     1       0.885   3.425  20.234  0.00  0.00    +0.000 A 
ATOM      9  C   UNL     1       1.499   4.368  20.990  0.00  0.00    +0.000 A 
ATOM     10  C   UNL     1       1.326   5.824  20.537  0.00  0.00    +0.000 C 
ATOM     11  C   UNL     1       2.975   4.202  21.127  0.00  0.00    +0.000 A 
ATOM     12  C   UNL     1       3.646   3.797  20.035  0.00  0.00    +0.000 A 
ATOM     13  N   UNL     1       2.907   3.299  18.958  0.00  0.00    +0.000 N 
ATOM     14  H   UNL     1       4.585   2.623  16.214  0.00  0.00    +0.000 HD
ENDROOT
BRANCH   1  19
ATOM     15  N   UNL     1       7.099   4.924  14.065  0.00  0.00    +0.000 N 
ATOM     16  N   UNL     1       7.725   5.612  15.030  0.00  0.00    +0.000 NA
ATOM     17  C   UNL     1       6.867   5.607  16.053  0.00  0.00    +0.000 A 
ATOM     18  C   UNL     1       7.212   6.316  17.311  0.00  0.00    +0.000 C 
ATOM     19  C   UNL     1       5.693   4.849  15.770  0.00  0.00    +0.000 A 
ATOM     20  C   UNL     1       5.843   4.486  14.430  0.00  0.00    +0.000 A 
ATOM     21  C   UNL     1       4.940   3.814  13.457  0.00  0.00    +0.000 C 
BRANCH  15  23
ATOM     22  C   UNL     1       8.182   6.030  12.133  0.00  0.00    +0.000 C 
ATOM     23  C   UNL     1       7.792   4.722  12.801  0.00  0.00    +0.000 C 
ENDBRANCH  15  23
ENDBRANCH   1  19
TORSDOF 2
ENDMDL
MODEL 4
REMARK VINA RESULT:      -7.4      4.178      5.630
REMARK  Name = 
REMARK  6 active torsions:
REMARK  status: ('A' for Active; 'I' for Inactive)
REMARK    1  A    between atoms: C_1  and  C_2
REMARK    2  A    between atoms: C_2  and  N_3
REMARK    3  A    between atoms: C_5  and  C_6
REMARK    4  A    between atoms: C_7  and  C_8
REMARK    5  A    between atoms: C_16  and  C_17
REMARK    6  A    between atoms: C_21  and  C_22
REMARK                            x       y       z     vdW  Elec       q    Type
REMARK                         _______ _______ _______ _____ _____    ______ ____
ROOT
ATOM      1  C   UNL     1       2.400   6.730  18.259  0.00  0.00    +0.000 C 
ATOM      2  O   UNL     1       1.473   7.139  17.583  0.00  0.00    +0.000 OA
ATOM      3  N   UNL     1       2.703   7.206  19.524  0.00  0.00    +0.000 N 
ATOM      4  C   UNL     1       1.781   7.986  20.182  0.00  0.00    +0.000 A 
ATOM      5  N   UNL     1       1.286   7.708  21.370  0.00  0.00    +0.000 NA
ATOM      6  N   UNL     1       0.230   8.572  21.599  0.00  0.00    +0.000 NA
ATOM      7  C   UNL     1       0.159   9.396  20.580  0.00  0.00    +0.000 A 
ATOM      8  C   UNL     1      -0.713  10.463  20.228  0.00  0.00    +0.000 A 
ATOM      9  C   UNL     1      -0.565  11.033  19.006  0.00  0.00    +0.000 A 
ATOM     10  C   UNL     1      -1.284  10.340  17.840  0.00  0.00    +0.000 C 
ATOM     11  C   UNL     1       0.845  11.162  18.539  0.00  0.00    +0.000 A 
ATOM     12  C   UNL     1       1.675  10.141  18.816  0.00  0.00    +0.000 A 
ATOM     13  N   UNL     1       1.250   9.183  19.740  0.00  0.00    +0.000 N 
ATOM     14  H   UNL     1       3.190   6.558  20.129  0.00  0.00    +0.000 HD
ENDROOT
BRANCH   1  19
ATOM     15  N   UNL     1       4.987   4.551  16.854  0.00  0.00    +0.000 N 
ATOM     16  N   UNL     1       4.049   3.630  17.114  0.00  0.00    +0.000 NA
ATOM     17  C   UNL     1       3.061   4.316  17.694  0.00  0.00    +0.000 A 
ATOM     18  C   UNL     1       1.841   3.608  18.159  0.00  0.00    +0.000 C 
ATOM     19  C   UNL     1       3.335   5.714  17.753  0.00  0.00    +0.000 A 
ATOM     20  C   UNL     1       4.641   5.820  17.269  0.00  0.00    +0.000 A 
ATOM     21  C   UNL     1       5.600   6.955  17.185  0.00  0.00    +0.000 C 
BRANCH  15  23
ATOM     22  C   UNL     1       6.076   4.123  14.673  0.00  0.00    +0.000 C 
ATOM     23  C   UNL     1       6.207   4.122  16.186  0.00  0.00    +0.000 C 
ENDBRANCH  15  23
ENDBRANCH   1  19
TORSDOF 2
ENDMDL
MODEL 5
REMARK VINA RESULT:      -7.4      2.940      7.071
REMARK  Name = 
REMARK  6 active torsions:
REMARK  status: ('A' for Active; 'I' for Inactive)
REMARK    1  A    between atoms: C_1  and  C_2
REMARK    2  A    between atoms: C_2  and  N_3
REMARK    3  A    between atoms: C_5  and  C_6
REMARK    4  A    between atoms: C_7  and  C_8
REMARK    5  A    between atoms: C_16  and  C_17
REMARK    6  A    between atoms: C_21  and  C_22
REMARK                            x       y       z     vdW  Elec       q    Type
REMARK                         _______ _______ _______ _____ _____    ______ ____
ROOT
ATOM      1  C   UNL     1       3.460   6.540  18.893  0.00  0.00    +0.000 C 
ATOM      2  O   UNL     1       3.615   6.807  17.715  0.00  0.00    +0.000 OA
ATOM      3  N   UNL     1       4.263   5.656  19.597  0.00  0.00    +0.000 N 
ATOM      4  C   UNL     1       5.453   5.249  19.041  0.00  0.00    +0.000 A 
ATOM      5  N   UNL     1       6.629   5.393  19.617  0.00  0.00    +0.000 NA
ATOM      6  N   UNL     1       7.597   5.092  18.676  0.00  0.00    +0.000 NA
ATOM      7  C   UNL     1       6.986   4.705  17.582  0.00  0.00    +0.000 A 
ATOM      8  C   UNL     1       7.426   4.305  16.289  0.00  0.00    +0.000 A 
ATOM      9  C   UNL     1       6.489   4.085  15.335  0.00  0.00    +0.000 A 
ATOM     10  C   UNL     1       6.007   5.317  14.557  0.00  0.00    +0.000 C 
ATOM     11  C   UNL     1       5.232   3.447  15.822  0.00  0.00    +0.000 A 
ATOM     12  C   UNL     1       4.769   3.849  17.018  0.00  0.00    +0.000 A 
ATOM     13  N   UNL     1       5.618   4.605  17.830  0.00  0.00    +0.000 N 
ATOM     14  H   UNL     1       4.315   5.814  20.594  0.00  0.00    +0.000 HD
ENDROOT
BRANCH   1  19
ATOM     15  N   UNL     1       0.798   8.337  20.653  0.00  0.00    +0.000 N 
ATOM     16  N   UNL     1       0.713   7.158  21.283  0.00  0.00    +0.000 NA
ATOM     17  C   UNL     1       1.617   6.388  20.671  0.00  0.00    +0.000 A 
ATOM     18  C   UNL     1       1.786   4.972  21.087  0.00  0.00    +0.000 C 
ATOM     19  C   UNL     1       2.345   7.099  19.673  0.00  0.00    +0.000 A 
ATOM     20  C   UNL     1       1.725   8.349  19.632  0.00  0.00    +0.000 A 
ATOM     21  C   UNL     1       1.877   9.525  18.733  0.00  0.00    +0.000 C 
BRANCH  15  23
ATOM     22  C   UNL     1      -0.383   9.331  22.588  0.00  0.00    +0.000 C 
ATOM     23  C   UNL     1      -0.057   9.424  21.108  0.00  0.00    +0.000 C 
ENDBRANCH  15  23
ENDBRANCH   1  19
TORSDOF 2
ENDMDL
MODEL 6
REMARK VINA RESULT:      -7.2      4.211      7.322
REMARK  Name = 
REMARK  6 active torsions:
REMARK  status: ('A' for Active; 'I' for Inactive)
REMARK    1  A    between atoms: C_1  and  C_2
REMARK    2  A    between atoms: C_2  and  N_3
REMARK    3  A    between atoms: C_5  and  C_6
REMARK    4  A    between atoms: C_7  and  C_8
REMARK    5  A    between atoms: C_16  and  C_17
REMARK    6  A    between atoms: C_21  and  C_22
REMARK                            x       y       z     vdW  Elec       q    Type
REMARK                         _______ _______ _______ _____ _____    ______ ____
ROOT
ATOM      1  C   UNL     1       1.966   7.301  19.917  0.00  0.00    +0.000 C 
ATOM      2  O   UNL     1       2.911   7.154  19.162  0.00  0.00    +0.000 OA
ATOM      3  N   UNL     1       1.299   6.254  20.532  0.00  0.00    +0.000 N 
ATOM      4  C   UNL     1       1.868   5.002  20.519  0.00  0.00    +0.000 A 
ATOM      5  N   UNL     1       2.137   4.298  21.600  0.00  0.00    +0.000 NA
ATOM      6  N   UNL     1       2.910   3.216  21.215  0.00  0.00    +0.000 NA
ATOM      7  C   UNL     1       3.027   3.252  19.909  0.00  0.00    +0.000 A 
ATOM      8  C   UNL     1       3.709   2.449  18.953  0.00  0.00    +0.000 A 
ATOM      9  C   UNL     1       3.715   2.861  17.661  0.00  0.00    +0.000 A 
ATOM     10  C   UNL     1       4.802   3.872  17.274  0.00  0.00    +0.000 C 
ATOM     11  C   UNL     1       2.447   3.493  17.195  0.00  0.00    +0.000 A 
ATOM     12  C   UNL     1       1.813   4.298  18.066  0.00  0.00    +0.000 A 
ATOM     13  N   UNL     1       2.217   4.267  19.402  0.00  0.00    +0.000 N 
ATOM     14  H   UNL     1       0.840   6.481  21.403  0.00  0.00    +0.000 HD
ENDROOT
BRANCH   1  19
ATOM     15  N   UNL     1       0.548  10.478  21.060  0.00  0.00    +0.000 N 
ATOM     16  N   UNL     1       0.419  10.649  19.737  0.00  0.00    +0.000 NA
ATOM     17  C   UNL     1       0.968   9.554  19.205  0.00  0.00    +0.000 A 
ATOM     18  C   UNL     1       1.037   9.404  17.729  0.00  0.00    +0.000 C 
ATOM     19  C   UNL     1       1.402   8.629  20.199  0.00  0.00    +0.000 A 
ATOM     20  C   UNL     1       1.186   9.305  21.403  0.00  0.00    +0.000 A 
ATOM     21  C   UNL     1       1.538   8.993  22.814  0.00  0.00    +0.000 C 
BRANCH  15  23
ATOM     22  C   UNL     1      -1.246  11.061  22.662  0.00  0.00    +0.000 C 
ATOM     23  C   UNL     1       0.015  11.506  21.943  0.00  0.00    +0.000 C 
ENDBRANCH  15  23
ENDBRANCH   1  19
TORSDOF 2
ENDMDL
MODEL 7
REMARK VINA RESULT:      -7.1      5.118      7.223
REMARK  Name = 
REMARK  6 active torsions:
REMARK  status: ('A' for Active; 'I' for Inactive)
REMARK    1  A    between atoms: C_1  and  C_2
REMARK    2  A    between atoms: C_2  and  N_3
REMARK    3  A    between atoms: C_5  and  C_6
REMARK    4  A    between atoms: C_7  and  C_8
REMARK    5  A    between atoms: C_16  and  C_17
REMARK    6  A    between atoms: C_21  and  C_22
REMARK                            x       y       z     vdW  Elec       q    Type
REMARK                         _______ _______ _______ _____ _____    ______ ____
ROOT
ATOM      1  C   UNL     1       2.215   7.614  19.220  0.00  0.00    +0.000 C 
ATOM      2  O   UNL     1       1.890   8.027  20.318  0.00  0.00    +0.000 OA
ATOM      3  N   UNL     1       2.108   8.356  18.054  0.00  0.00    +0.000 N 
ATOM      4  C   UNL     1       1.879   9.709  18.143  0.00  0.00    +0.000 A 
ATOM      5  N   UNL     1       2.656  10.630  17.610  0.00  0.00    +0.000 NA
ATOM      6  N   UNL     1       2.250  11.858  18.101  0.00  0.00    +0.000 NA
ATOM      7  C   UNL     1       1.198  11.658  18.858  0.00  0.00    +0.000 A 
ATOM      8  C   UNL     1       0.369  12.505  19.646  0.00  0.00    +0.000 A 
ATOM      9  C   UNL     1      -0.583  11.927  20.420  0.00  0.00    +0.000 A 
ATOM     10  C   UNL     1      -0.131  11.437  21.802  0.00  0.00    +0.000 C 
ATOM     11  C   UNL     1      -1.252  10.740  19.813  0.00  0.00    +0.000 A 
ATOM     12  C   UNL     1      -0.477   9.898  19.108  0.00  0.00    +0.000 A 
ATOM     13  N   UNL     1       0.808  10.324  18.761  0.00  0.00    +0.000 N 
ATOM     14  H   UNL     1       2.750   8.102  17.315  0.00  0.00    +0.000 HD
ENDROOT
BRANCH   1  19
ATOM     15  N   UNL     1       3.157   4.078  19.080  0.00  0.00    +0.000 N 
ATOM     16  N   UNL     1       4.066   4.576  18.230  0.00  0.00    +0.000 NA
ATOM     17  C   UNL     1       3.774   5.877  18.156  0.00  0.00    +0.000 A 
ATOM     18  C   UNL     1       4.566   6.764  17.265  0.00  0.00    +0.000 C 
ATOM     19  C   UNL     1       2.701   6.241  19.022  0.00  0.00    +0.000 A 
ATOM     20  C   UNL     1       2.268   5.022  19.549  0.00  0.00    +0.000 A 
ATOM     21  C   UNL     1       1.109   4.644  20.402  0.00  0.00    +0.000 C 
BRANCH  15  23
ATOM     22  C   UNL     1       3.375   1.788  18.167  0.00  0.00    +0.000 C 
ATOM     23  C   UNL     1       3.219   2.659  19.401  0.00  0.00    +0.000 C 
ENDBRANCH  15  23
ENDBRANCH   1  19
TORSDOF 2
ENDMDL
MODEL 8
REMARK VINA RESULT:      -6.9      4.909      6.435
REMARK  Name = 
REMARK  6 active torsions:
REMARK  status: ('A' for Active; 'I' for Inactive)
REMARK    1  A    between atoms: C_1  and  C_2
REMARK    2  A    between atoms: C_2  and  N_3
REMARK    3  A    between atoms: C_5  and  C_6
REMARK    4  A    between atoms: C_7  and  C_8
REMARK    5  A    between atoms: C_16  and  C_17
REMARK    6  A    between atoms: C_21  and  C_22
REMARK                            x       y       z     vdW  Elec       q    Type
REMARK                         _______ _______ _______ _____ _____    ______ ____
ROOT
ATOM      1  C   UNL     1       2.677   7.588  18.462  0.00  0.00    +0.000 C 
ATOM      2  O   UNL     1       2.369   7.692  19.636  0.00  0.00    +0.000 OA
ATOM      3  N   UNL     1       2.427   8.563  17.509  0.00  0.00    +0.000 N 
ATOM      4  C   UNL     1       2.055   9.820  17.923  0.00  0.00    +0.000 A 
ATOM      5  N   UNL     1       2.695  10.926  17.604  0.00  0.00    +0.000 NA
ATOM      6  N   UNL     1       2.183  11.949  18.383  0.00  0.00    +0.000 NA
ATOM      7  C   UNL     1       1.201  11.453  19.099  0.00  0.00    +0.000 A 
ATOM      8  C   UNL     1       0.327  11.987  20.086  0.00  0.00    +0.000 A 
ATOM      9  C   UNL     1      -0.511  11.134  20.725  0.00  0.00    +0.000 A 
ATOM     10  C   UNL     1       0.066  10.394  21.940  0.00  0.00    +0.000 C 
ATOM     11  C   UNL     1      -1.077  10.050  19.872  0.00  0.00    +0.000 A 
ATOM     12  C   UNL     1      -0.252   9.494  18.967  0.00  0.00    +0.000 A 
ATOM     13  N   UNL     1       0.957  10.141  18.698  0.00  0.00    +0.000 N 
ATOM     14  H   UNL     1       3.052   8.566  16.715  0.00  0.00    +0.000 HD
ENDROOT
BRANCH   1  19
ATOM     15  N   UNL     1       4.552   4.823  16.961  0.00  0.00    +0.000 N 
ATOM     16  N   UNL     1       3.450   4.158  17.334  0.00  0.00    +0.000 NA
ATOM     17  C   UNL     1       2.703   5.073  17.957  0.00  0.00    +0.000 A 
ATOM     18  C   UNL     1       1.396   4.686  18.546  0.00  0.00    +0.000 C 
ATOM     19  C   UNL     1       3.302   6.367  17.932  0.00  0.00    +0.000 A 
ATOM     20  C   UNL     1       4.549   6.148  17.344  0.00  0.00    +0.000 A 
ATOM     21  C   UNL     1       5.736   7.021  17.135  0.00  0.00    +0.000 C 
BRANCH  15  23
ATOM     22  C   UNL     1       5.501   4.351  14.724  0.00  0.00    +0.000 C 
ATOM     23  C   UNL     1       5.575   4.100  16.220  0.00  0.00    +0.000 C 
ENDBRANCH  15  23
ENDBRANCH   1  19
TORSDOF 2
ENDMDL
MODEL 9
REMARK VINA RESULT:      -6.8      4.315      5.866
REMARK  Name = 
REMARK  6 active torsions:
REMARK  status: ('A' for Active; 'I' for Inactive)
REMARK    1  A    between atoms: C_1  and  C_2
REMARK    2  A    between atoms: C_2  and  N_3
REMARK    3  A    between atoms: C_5  and  C_6
REMARK    4  A    between atoms: C_7  and  C_8
REMARK    5  A    between atoms: C_16  and  C_17
REMARK    6  A    between atoms: C_21  and  C_22
REMARK                            x       y       z     vdW  Elec       q    Type
REMARK                         _______ _______ _______ _____ _____    ______ ____
ROOT
ATOM      1  C   UNL     1       2.921   6.989  18.578  0.00  0.00    +0.000 C 
ATOM      2  O   UNL     1       3.073   7.124  19.779  0.00  0.00    +0.000 OA
ATOM      3  N   UNL     1       2.140   7.829  17.800  0.00  0.00    +0.000 N 
ATOM      4  C   UNL     1       1.719   9.027  18.327  0.00  0.00    +0.000 A 
ATOM      5  N   UNL     1       1.960  10.203  17.784  0.00  0.00    +0.000 NA
ATOM      6  N   UNL     1       1.599  11.173  18.702  0.00  0.00    +0.000 NA
ATOM      7  C   UNL     1       1.083  10.564  19.744  0.00  0.00    +0.000 A 
ATOM      8  C   UNL     1       0.570  11.007  20.995  0.00  0.00    +0.000 A 
ATOM      9  C   UNL     1       0.223  10.069  21.911  0.00  0.00    +0.000 A 
ATOM     10  C   UNL     1       1.354   9.537  22.802  0.00  0.00    +0.000 C 
ATOM     11  C   UNL     1      -0.405   8.839  21.346  0.00  0.00    +0.000 A 
ATOM     12  C   UNL     1       0.100   8.374  20.190  0.00  0.00    +0.000 A 
ATOM     13  N   UNL     1       0.963   9.204  19.470  0.00  0.00    +0.000 N 
ATOM     14  H   UNL     1       2.399   7.884  16.824  0.00  0.00    +0.000 HD
ENDROOT
BRANCH   1  19
ATOM     15  N   UNL     1       4.734   4.479  16.623  0.00  0.00    +0.000 N 
ATOM     16  N   UNL     1       3.613   3.788  16.873  0.00  0.00    +0.000 NA
ATOM     17  C   UNL     1       2.886   4.601  17.644  0.00  0.00    +0.000 A 
ATOM     18  C   UNL     1       1.566   4.151  18.155  0.00  0.00    +0.000 C 
ATOM     19  C   UNL     1       3.517   5.863  17.845  0.00  0.00    +0.000 A 
ATOM     20  C   UNL     1       4.763   5.717  17.230  0.00  0.00    +0.000 A 
ATOM     21  C   UNL     1       5.973   6.582  17.178  0.00  0.00    +0.000 C 
BRANCH  15  23
ATOM     22  C   UNL     1       5.585   4.254  14.309  0.00  0.00    +0.000 C 
ATOM     23  C   UNL     1       5.744   3.869  15.770  0.00  0.00    +0.000 C 
ENDBRANCH  15  23
ENDBRANCH   1  19
TORSDOF 2
ENDMDL
