MODEL 1
REMARK VINA RESULT:      -8.4      0.000      0.000
REMARK  Name = 
REMARK  7 active torsions:
REMARK  status: ('A' for Active; 'I' for Inactive)
REMARK    1  A    between atoms: C_1  and  O_2
REMARK    2  A    between atoms: O_2  and  N_3
REMARK    3  A    between atoms: C_4  and  C_5
REMARK    4  A    between atoms: C_4  and  C_19
REMARK    5  A    between atoms: C_5  and  C_6
REMARK    6  A    between atoms: C_6  and  N_7
REMARK    7  A    between atoms: C_24  and  C_25
REMARK                            x       y       z     vdW  Elec       q    Type
REMARK                         _______ _______ _______ _____ _____    ______ ____
ROOT
ATOM      1  C   UNL     1       5.265   5.700  19.080  0.00  0.00    +0.000 C 
ENDROOT
BRANCH   1   2
ATOM      2  N   UNL     1       5.781   4.403  18.593  0.00  0.00    +0.000 NA
ATOM      3  C   UNL     1       4.928   3.825  17.520  0.00  0.00    +0.000 C 
ATOM      4  C   UNL     1       4.858   4.661  16.223  0.00  0.00    +0.000 C 
ATOM      5  N   UNL     1       6.196   5.012  15.729  0.00  0.00    +0.000 N 
ATOM      6  C   UNL     1       6.536   4.695  14.433  0.00  0.00    +0.000 A 
ATOM      7  C   UNL     1       7.508   5.417  13.738  0.00  0.00    +0.000 A 
ATOM      8  C   UNL     1       7.806   5.101  12.412  0.00  0.00    +0.000 A 
ATOM      9  C   UNL     1       7.137   4.054  11.802  0.00  0.00    +0.000 A 
ATOM     10  C   UNL     1       6.192   3.377  12.547  0.00  0.00    +0.000 A 
ATOM     11  N   UNL     1       5.881   3.683  13.824  0.00  0.00    +0.000 NA
ATOM     12  C   UNL     1       7.188   5.452  16.709  0.00  0.00    +0.000 C 
ATOM     13  C   UNL     1       7.132   4.586  17.999  0.00  0.00    +0.000 C 
ENDBRANCH   1   2
BRANCH   1  14
ATOM     14  C   UNL     1       3.984   6.216  18.404  0.00  0.00    +0.000 C 
BRANCH  14  16
ATOM     15  N   UNL     1       2.432   7.394  19.743  0.00  0.00    +0.000 NA
ATOM     16  C   UNL     1       2.819   6.193  19.405  0.00  0.00    +0.000 C 
BRANCH  16  17
ATOM     17  C   UNL     1       2.215   4.868  19.863  0.00  0.00    +0.000 A 
ATOM     18  C   UNL     1       2.374   4.530  21.224  0.00  0.00    +0.000 A 
ATOM     19  C   UNL     1       1.960   3.298  21.742  0.00  0.00    +0.000 A 
ATOM     20  C   UNL     1       1.330   2.380  20.918  0.00  0.00    +0.000 A 
ATOM     21  C   UNL     1       1.100   2.708  19.587  0.00  0.00    +0.000 A 
ATOM     22  C   UNL     1       1.527   3.942  19.038  0.00  0.00    +0.000 A 
ATOM     23  C   UNL     1       1.224   4.121  17.579  0.00  0.00    +0.000 C 
ENDBRANCH  16  17
BRANCH  15  25
ATOM     24  C   UNL     1       1.074   8.833  20.888  0.00  0.00    +0.000 C 
ATOM     25  O   UNL     1       1.393   7.459  20.673  0.00  0.00    +0.000 OA
ENDBRANCH  15  25
ENDBRANCH  14  16
ENDBRANCH   1  14
TORSDOF 5
ENDMDL
MODEL 2
REMARK VINA RESULT:      -7.8      2.419      7.136
REMARK  Name = 
REMARK  7 active torsions:
REMARK  status: ('A' for Active; 'I' for Inactive)
REMARK    1  A    between atoms: C_1  and  O_2
REMARK    2  A    between atoms: O_2  and  N_3
REMARK    3  A    between atoms: C_4  and  C_5
REMARK    4  A    between atoms: C_4  and  C_19
REMARK    5  A    between atoms: C_5  and  C_6
REMARK    6  A    between atoms: C_6  and  N_7
REMARK    7  A    between atoms: C_24  and  C_25
REMARK                            x       y       z     vdW  Elec       q    Type
REMARK                         _______ _______ _______ _____ _____    ______ ____
ROOT
ATOM      1  C   UNL     1       4.303   3.470  18.273  0.00  0.00    +0.000 C 
ENDROOT
BRANCH   1   2
ATOM      2  N   UNL     1       2.963   3.615  18.879  0.00  0.00    +0.000 NA
ATOM      3  C   UNL     1       2.996   4.412  20.135  0.00  0.00    +0.000 C 
ATOM      4  C   UNL     1       3.441   5.881  19.961  0.00  0.00    +0.000 C 
ATOM      5  N   UNL     1       2.681   6.558  18.903  0.00  0.00    +0.000 N 
ATOM      6  C   UNL     1       2.032   7.737  19.194  0.00  0.00    +0.000 A 
ATOM      7  C   UNL     1       1.758   8.682  18.203  0.00  0.00    +0.000 A 
ATOM      8  C   UNL     1       1.134   9.886  18.531  0.00  0.00    +0.000 A 
ATOM      9  C   UNL     1       0.777  10.124  19.848  0.00  0.00    +0.000 A 
ATOM     10  C   UNL     1       1.072   9.147  20.777  0.00  0.00    +0.000 A 
ATOM     11  N   UNL     1       1.690   7.984  20.478  0.00  0.00    +0.000 NA
ATOM     12  C   UNL     1       2.440   5.823  17.663  0.00  0.00    +0.000 C 
ATOM     13  C   UNL     1       2.062   4.342  17.947  0.00  0.00    +0.000 C 
ENDBRANCH   1   2
BRANCH   1  14
ATOM     14  C   UNL     1       4.337   3.084  16.785  0.00  0.00    +0.000 C 
BRANCH  14  16
ATOM     15  N   UNL     1       5.661   3.407  14.853  0.00  0.00    +0.000 NA
ATOM     16  C   UNL     1       5.485   3.821  16.080  0.00  0.00    +0.000 C 
BRANCH  16  17
ATOM     17  C   UNL     1       6.250   4.931  16.795  0.00  0.00    +0.000 A 
ATOM     18  C   UNL     1       7.253   4.533  17.705  0.00  0.00    +0.000 A 
ATOM     19  C   UNL     1       7.950   5.450  18.500  0.00  0.00    +0.000 A 
ATOM     20  C   UNL     1       7.694   6.805  18.374  0.00  0.00    +0.000 A 
ATOM     21  C   UNL     1       6.759   7.236  17.441  0.00  0.00    +0.000 A 
ATOM     22  C   UNL     1       6.029   6.324  16.639  0.00  0.00    +0.000 A 
ATOM     23  C   UNL     1       5.039   6.957  15.705  0.00  0.00    +0.000 C 
ENDBRANCH  16  17
BRANCH  15  25
ATOM     24  C   UNL     1       6.513   3.754  12.761  0.00  0.00    +0.000 C 
ATOM     25  O   UNL     1       6.706   4.011  14.152  0.00  0.00    +0.000 OA
ENDBRANCH  15  25
ENDBRANCH  14  16
ENDBRANCH   1  14
TORSDOF 5
ENDMDL
MODEL 3
REMARK VINA RESULT:      -7.4      2.198      3.031
REMARK  Name = 
REMARK  7 active torsions:
REMARK  status: ('A' for Active; 'I' for Inactive)
REMARK    1  A    between atoms: C_1  and  O_2
REMARK    2  A    between atoms: O_2  and  N_3
REMARK    3  A    between atoms: C_4  and  C_5
REMARK    4  A    between atoms: C_4  and  C_19
REMARK    5  A    between atoms: C_5  and  C_6
REMARK    6  A    between atoms: C_6  and  N_7
REMARK    7  A    between atoms: C_24  and  C_25
REMARK                            x       y       z     vdW  Elec       q    Type
REMARK                         _______ _______ _______ _____ _____    ______ ____
ROOT
ATOM      1  C   UNL     1       5.991   5.735  18.897  0.00  0.00    +0.000 C 
ENDROOT
BRANCH   1   2
ATOM      2  N   UNL     1       6.035   6.698  17.776  0.00  0.00    +0.000 NA
ATOM      3  C   UNL     1       7.298   6.597  16.996  0.00  0.00    +0.000 C 
ATOM      4  C   UNL     1       7.514   5.245  16.280  0.00  0.00    +0.000 C 
ATOM      5  N   UNL     1       6.344   4.862  15.479  0.00  0.00    +0.000 N 
ATOM      6  C   UNL     1       6.513   4.565  14.145  0.00  0.00    +0.000 A 
ATOM      7  C   UNL     1       5.631   3.720  13.469  0.00  0.00    +0.000 A 
ATOM      8  C   UNL     1       5.848   3.404  12.127  0.00  0.00    +0.000 A 
ATOM      9  C   UNL     1       6.938   3.953  11.472  0.00  0.00    +0.000 A 
ATOM     10  C   UNL     1       7.766   4.786  12.197  0.00  0.00    +0.000 A 
ATOM     11  N   UNL     1       7.580   5.086  13.500  0.00  0.00    +0.000 NA
ATOM     12  C   UNL     1       5.022   5.056  16.071  0.00  0.00    +0.000 C 
ATOM     13  C   UNL     1       4.932   6.415  16.821  0.00  0.00    +0.000 C 
ENDBRANCH   1   2
BRANCH   1  14
ATOM     14  C   UNL     1       4.621   5.537  19.567  0.00  0.00    +0.000 C 
BRANCH  14  16
ATOM     15  N   UNL     1       5.332   3.283  19.634  0.00  0.00    +0.000 NA
ATOM     16  C   UNL     1       4.269   4.043  19.604  0.00  0.00    +0.000 C 
BRANCH  16  17
ATOM     17  C   UNL     1       2.813   3.588  19.646  0.00  0.00    +0.000 A 
ATOM     18  C   UNL     1       2.190   3.556  20.913  0.00  0.00    +0.000 A 
ATOM     19  C   UNL     1       0.895   3.057  21.097  0.00  0.00    +0.000 A 
ATOM     20  C   UNL     1       0.164   2.615  20.006  0.00  0.00    +0.000 A 
ATOM     21  C   UNL     1       0.724   2.695  18.737  0.00  0.00    +0.000 A 
ATOM     22  C   UNL     1       2.040   3.179  18.530  0.00  0.00    +0.000 A 
ATOM     23  C   UNL     1       2.498   3.169  17.100  0.00  0.00    +0.000 C 
ENDBRANCH  16  17
BRANCH  15  25
ATOM     24  C   UNL     1       5.286   1.433  20.974  0.00  0.00    +0.000 C 
ATOM     25  O   UNL     1       5.096   1.908  19.642  0.00  0.00    +0.000 OA
ENDBRANCH  15  25
ENDBRANCH  14  16
ENDBRANCH   1  14
TORSDOF 5
ENDMDL
MODEL 4
REMARK VINA RESULT:      -7.3      2.394      7.681
REMARK  Name = 
REMARK  7 active torsions:
REMARK  status: ('A' for Active; 'I' for Inactive)
REMARK    1  A    between atoms: C_1  and  O_2
REMARK    2  A    between atoms: O_2  and  N_3
REMARK    3  A    between atoms: C_4  and  C_5
REMARK    4  A    between atoms: C_4  and  C_19
REMARK    5  A    between atoms: C_5  and  C_6
REMARK    6  A    between atoms: C_6  and  N_7
REMARK    7  A    between atoms: C_24  and  C_25
REMARK                            x       y       z     vdW  Elec       q    Type
REMARK                         _______ _______ _______ _____ _____    ______ ____
ROOT
ATOM      1  C   UNL     1       3.920   4.367  18.641  0.00  0.00    +0.000 C 
ENDROOT
BRANCH   1   2
ATOM      2  N   UNL     1       2.446   4.460  18.684  0.00  0.00    +0.000 NA
ATOM      3  C   UNL     1       1.934   4.656  20.067  0.00  0.00    +0.000 C 
ATOM      4  C   UNL     1       2.369   5.977  20.740  0.00  0.00    +0.000 C 
ATOM      5  N   UNL     1       2.093   7.139  19.884  0.00  0.00    +0.000 N 
ATOM      6  C   UNL     1       1.348   8.181  20.389  0.00  0.00    +0.000 A 
ATOM      7  C   UNL     1       1.480   9.479  19.891  0.00  0.00    +0.000 A 
ATOM      8  C   UNL     1       0.741  10.524  20.447  0.00  0.00    +0.000 A 
ATOM      9  C   UNL     1      -0.134  10.254  21.486  0.00  0.00    +0.000 A 
ATOM     10  C   UNL     1      -0.221   8.949  21.926  0.00  0.00    +0.000 A 
ATOM     11  N   UNL     1       0.500   7.930  21.411  0.00  0.00    +0.000 NA
ATOM     12  C   UNL     1       2.407   7.024  18.461  0.00  0.00    +0.000 C 
ATOM     13  C   UNL     1       1.989   5.637  17.899  0.00  0.00    +0.000 C 
ENDBRANCH   1   2
BRANCH   1  14
ATOM     14  C   UNL     1       4.506   3.322  17.677  0.00  0.00    +0.000 C 
BRANCH  14  16
ATOM     15  N   UNL     1       5.595   3.418  15.581  0.00  0.00    +0.000 NA
ATOM     16  C   UNL     1       5.544   3.982  16.758  0.00  0.00    +0.000 C 
BRANCH  16  17
ATOM     17  C   UNL     1       6.350   5.187  17.236  0.00  0.00    +0.000 A 
ATOM     18  C   UNL     1       7.382   4.937  18.167  0.00  0.00    +0.000 A 
ATOM     19  C   UNL     1       8.120   5.967  18.761  0.00  0.00    +0.000 A 
ATOM     20  C   UNL     1       7.876   7.284  18.405  0.00  0.00    +0.000 A 
ATOM     21  C   UNL     1       6.912   7.559  17.442  0.00  0.00    +0.000 A 
ATOM     22  C   UNL     1       6.141   6.533  16.842  0.00  0.00    +0.000 A 
ATOM     23  C   UNL     1       5.124   7.009  15.846  0.00  0.00    +0.000 C 
ENDBRANCH  16  17
BRANCH  15  25
ATOM     24  C   UNL     1       6.100   3.661  13.365  0.00  0.00    +0.000 C 
ATOM     25  O   UNL     1       6.535   3.945  14.694  0.00  0.00    +0.000 OA
ENDBRANCH  15  25
ENDBRANCH  14  16
ENDBRANCH   1  14
TORSDOF 5
ENDMDL
MODEL 5
REMARK VINA RESULT:      -7.3      3.509      9.243
REMARK  Name = 
REMARK  7 active torsions:
REMARK  status: ('A' for Active; 'I' for Inactive)
REMARK    1  A    between atoms: C_1  and  O_2
REMARK    2  A    between atoms: O_2  and  N_3
REMARK    3  A    between atoms: C_4  and  C_5
REMARK    4  A    between atoms: C_4  and  C_19
REMARK    5  A    between atoms: C_5  and  C_6
REMARK    6  A    between atoms: C_6  and  N_7
REMARK    7  A    between atoms: C_24  and  C_25
REMARK                            x       y       z     vdW  Elec       q    Type
REMARK                         _______ _______ _______ _____ _____    ______ ____
ROOT
ATOM      1  C   UNL     1       1.550   8.990  18.788  0.00  0.00    +0.000 C 
ENDROOT
BRANCH   1   2
ATOM      2  N   UNL     1       1.058  10.301  18.316  0.00  0.00    +0.000 NA
ATOM      3  C   UNL     1      -0.428  10.375  18.304  0.00  0.00    +0.000 C 
ATOM      4  C   UNL     1      -1.096  10.251  19.691  0.00  0.00    +0.000 C 
ATOM      5  N   UNL     1      -0.510  11.184  20.662  0.00  0.00    +0.000 N 
ATOM      6  C   UNL     1      -1.337  12.048  21.345  0.00  0.00    +0.000 A 
ATOM      7  C   UNL     1      -0.984  12.558  22.596  0.00  0.00    +0.000 A 
ATOM      8  C   UNL     1      -1.858  13.400  23.284  0.00  0.00    +0.000 A 
ATOM      9  C   UNL     1      -3.069  13.736  22.703  0.00  0.00    +0.000 A 
ATOM     10  C   UNL     1      -3.353  13.203  21.462  0.00  0.00    +0.000 A 
ATOM     11  N   UNL     1      -2.526  12.372  20.792  0.00  0.00    +0.000 NA
ATOM     12  C   UNL     1       0.945  11.325  20.675  0.00  0.00    +0.000 C 
ATOM     13  C   UNL     1       1.522  11.376  19.232  0.00  0.00    +0.000 C 
ENDBRANCH   1   2
BRANCH   1  14
ATOM     14  C   UNL     1       2.204   8.088  17.727  0.00  0.00    +0.000 C 
BRANCH  14  16
ATOM     15  N   UNL     1       2.460   6.710  19.630  0.00  0.00    +0.000 NA
ATOM     16  C   UNL     1       2.879   6.888  18.405  0.00  0.00    +0.000 C 
BRANCH  16  17
ATOM     17  C   UNL     1       3.883   6.028  17.643  0.00  0.00    +0.000 A 
ATOM     18  C   UNL     1       5.134   6.612  17.352  0.00  0.00    +0.000 A 
ATOM     19  C   UNL     1       6.098   5.967  16.568  0.00  0.00    +0.000 A 
ATOM     20  C   UNL     1       5.852   4.691  16.086  0.00  0.00    +0.000 A 
ATOM     21  C   UNL     1       4.657   4.062  16.408  0.00  0.00    +0.000 A 
ATOM     22  C   UNL     1       3.661   4.704  17.185  0.00  0.00    +0.000 A 
ATOM     23  C   UNL     1       2.418   3.892  17.414  0.00  0.00    +0.000 C 
ENDBRANCH  16  17
BRANCH  15  25
ATOM     24  C   UNL     1       2.004   4.858  20.890  0.00  0.00    +0.000 C 
ATOM     25  O   UNL     1       3.047   5.652  20.326  0.00  0.00    +0.000 OA
ENDBRANCH  15  25
ENDBRANCH  14  16
ENDBRANCH   1  14
TORSDOF 5
ENDMDL
MODEL 6
REMARK VINA RESULT:      -7.3      0.490      1.462
REMARK  Name = 
REMARK  7 active torsions:
REMARK  status: ('A' for Active; 'I' for Inactive)
REMARK    1  A    between atoms: C_1  and  O_2
REMARK    2  A    between atoms: O_2  and  N_3
REMARK    3  A    between atoms: C_4  and  C_5
REMARK    4  A    between atoms: C_4  and  C_19
REMARK    5  A    between atoms: C_5  and  C_6
REMARK    6  A    between atoms: C_6  and  N_7
REMARK    7  A    between atoms: C_24  and  C_25
REMARK                            x       y       z     vdW  Elec       q    Type
REMARK                         _______ _______ _______ _____ _____    ______ ____
ROOT
ATOM      1  C   UNL     1       5.342   5.566  19.156  0.00  0.00    +0.000 C 
ENDROOT
BRANCH   1   2
ATOM      2  N   UNL     1       5.901   4.302  18.631  0.00  0.00    +0.000 NA
ATOM      3  C   UNL     1       5.058   3.719  17.553  0.00  0.00    +0.000 C 
ATOM      4  C   UNL     1       4.942   4.584  16.278  0.00  0.00    +0.000 C 
ATOM      5  N   UNL     1       6.261   4.996  15.780  0.00  0.00    +0.000 N 
ATOM      6  C   UNL     1       6.599   4.725  14.472  0.00  0.00    +0.000 A 
ATOM      7  C   UNL     1       7.535   5.500  13.786  0.00  0.00    +0.000 A 
ATOM      8  C   UNL     1       7.830   5.228  12.450  0.00  0.00    +0.000 A 
ATOM      9  C   UNL     1       7.194   4.171  11.820  0.00  0.00    +0.000 A 
ATOM     10  C   UNL     1       6.284   3.441  12.557  0.00  0.00    +0.000 A 
ATOM     11  N   UNL     1       5.975   3.703  13.845  0.00  0.00    +0.000 NA
ATOM     12  C   UNL     1       7.246   5.449  16.760  0.00  0.00    +0.000 C 
ATOM     13  C   UNL     1       7.237   4.551  18.029  0.00  0.00    +0.000 C 
ENDBRANCH   1   2
BRANCH   1  14
ATOM     14  C   UNL     1       4.192   6.187  18.345  0.00  0.00    +0.000 C 
BRANCH  14  16
ATOM     15  N   UNL     1       2.495   7.210  19.633  0.00  0.00    +0.000 NA
ATOM     16  C   UNL     1       2.877   6.067  19.127  0.00  0.00    +0.000 C 
BRANCH  16  17
ATOM     17  C   UNL     1       2.142   4.732  19.212  0.00  0.00    +0.000 A 
ATOM     18  C   UNL     1       1.583   4.233  18.017  0.00  0.00    +0.000 A 
ATOM     19  C   UNL     1       0.796   3.075  17.985  0.00  0.00    +0.000 A 
ATOM     20  C   UNL     1       0.582   2.355  19.149  0.00  0.00    +0.000 A 
ATOM     21  C   UNL     1       1.173   2.784  20.331  0.00  0.00    +0.000 A 
ATOM     22  C   UNL     1       1.958   3.962  20.389  0.00  0.00    +0.000 A 
ATOM     23  C   UNL     1       2.495   4.295  21.751  0.00  0.00    +0.000 C 
ENDBRANCH  16  17
BRANCH  15  25
ATOM     24  C   UNL     1       1.355   8.264  21.310  0.00  0.00    +0.000 C 
ATOM     25  O   UNL     1       1.318   7.180  20.383  0.00  0.00    +0.000 OA
ENDBRANCH  15  25
ENDBRANCH  14  16
ENDBRANCH   1  14
TORSDOF 5
ENDMDL
MODEL 7
REMARK VINA RESULT:      -7.2      2.641      7.588
REMARK  Name = 
REMARK  7 active torsions:
REMARK  status: ('A' for Active; 'I' for Inactive)
REMARK    1  A    between atoms: C_1  and  O_2
REMARK    2  A    between atoms: O_2  and  N_3
REMARK    3  A    between atoms: C_4  and  C_5
REMARK    4  A    between atoms: C_4  and  C_19
REMARK    5  A    between atoms: C_5  and  C_6
REMARK    6  A    between atoms: C_6  and  N_7
REMARK    7  A    between atoms: C_24  and  C_25
REMARK                            x       y       z     vdW  Elec       q    Type
REMARK                         _______ _______ _______ _____ _____    ______ ____
ROOT
ATOM      1  C   UNL     1       3.853   5.171  19.314  0.00  0.00    +0.000 C 
ENDROOT
BRANCH   1   2
ATOM      2  N   UNL     1       2.385   5.238  19.162  0.00  0.00    +0.000 NA
ATOM      3  C   UNL     1       1.721   5.831  20.354  0.00  0.00    +0.000 C 
ATOM      4  C   UNL     1       2.091   7.304  20.638  0.00  0.00    +0.000 C 
ATOM      5  N   UNL     1       1.927   8.145  19.445  0.00  0.00    +0.000 N 
ATOM      6  C   UNL     1       1.141   9.273  19.523  0.00  0.00    +0.000 A 
ATOM      7  C   UNL     1       1.343  10.362  18.673  0.00  0.00    +0.000 A 
ATOM      8  C   UNL     1       0.559  11.508  18.799  0.00  0.00    +0.000 A 
ATOM      9  C   UNL     1      -0.432  11.545  19.766  0.00  0.00    +0.000 A 
ATOM     10  C   UNL     1      -0.583  10.433  20.569  0.00  0.00    +0.000 A 
ATOM     11  N   UNL     1       0.180   9.323  20.471  0.00  0.00    +0.000 NA
ATOM     12  C   UNL     1       2.400   7.613  18.168  0.00  0.00    +0.000 C 
ATOM     13  C   UNL     1       2.033   6.110  18.011  0.00  0.00    +0.000 C 
ENDBRANCH   1   2
BRANCH   1  14
ATOM     14  C   UNL     1       4.537   3.910  18.759  0.00  0.00    +0.000 C 
BRANCH  14  16
ATOM     15  N   UNL     1       5.419   3.472  16.610  0.00  0.00    +0.000 NA
ATOM     16  C   UNL     1       5.496   4.293  17.623  0.00  0.00    +0.000 C 
BRANCH  16  17
ATOM     17  C   UNL     1       6.374   5.537  17.733  0.00  0.00    +0.000 A 
ATOM     18  C   UNL     1       7.461   5.475  18.631  0.00  0.00    +0.000 A 
ATOM     19  C   UNL     1       8.273   6.583  18.901  0.00  0.00    +0.000 A 
ATOM     20  C   UNL     1       8.047   7.780  18.242  0.00  0.00    +0.000 A 
ATOM     21  C   UNL     1       7.026   7.856  17.303  0.00  0.00    +0.000 A 
ATOM     22  C   UNL     1       6.180   6.753  17.028  0.00  0.00    +0.000 A 
ATOM     23  C   UNL     1       5.110   7.017  16.009  0.00  0.00    +0.000 C 
ENDBRANCH  16  17
BRANCH  15  25
ATOM     24  C   UNL     1       5.490   3.972  14.381  0.00  0.00    +0.000 C 
ATOM     25  O   UNL     1       6.281   3.736  15.545  0.00  0.00    +0.000 OA
ENDBRANCH  15  25
ENDBRANCH  14  16
ENDBRANCH   1  14
TORSDOF 5
ENDMDL
MODEL 8
REMARK VINA RESULT:      -7.1      3.480      9.096
REMARK  Name = 
REMARK  7 active torsions:
REMARK  status: ('A' for Active; 'I' for Inactive)
REMARK    1  A    between atoms: C_1  and  O_2
REMARK    2  A    between atoms: O_2  and  N_3
REMARK    3  A    between atoms: C_4  and  C_5
REMARK    4  A    between atoms: C_4  and  C_19
REMARK    5  A    between atoms: C_5  and  C_6
REMARK    6  A    between atoms: C_6  and  N_7
REMARK    7  A    between atoms: C_24  and  C_25
REMARK                            x       y       z     vdW  Elec       q    Type
REMARK                         _______ _______ _______ _____ _____    ______ ____
ROOT
ATOM      1  C   UNL     1       1.884   8.908  19.156  0.00  0.00    +0.000 C 
ENDROOT
BRANCH   1   2
ATOM      2  N   UNL     1       0.515   9.466  19.135  0.00  0.00    +0.000 NA
ATOM      3  C   UNL     1      -0.089   9.528  20.493  0.00  0.00    +0.000 C 
ATOM      4  C   UNL     1       0.635  10.466  21.485  0.00  0.00    +0.000 C 
ATOM      5  N   UNL     1       0.841  11.804  20.915  0.00  0.00    +0.000 N 
ATOM      6  C   UNL     1       0.390  12.904  21.610  0.00  0.00    +0.000 A 
ATOM      7  C   UNL     1       0.975  14.161  21.443  0.00  0.00    +0.000 A 
ATOM      8  C   UNL     1       0.524  15.251  22.188  0.00  0.00    +0.000 A 
ATOM      9  C   UNL     1      -0.520  15.073  23.081  0.00  0.00    +0.000 A 
ATOM     10  C   UNL     1      -1.057  13.807  23.192  0.00  0.00    +0.000 A 
ATOM     11  N   UNL     1      -0.620  12.739  22.492  0.00  0.00    +0.000 NA
ATOM     12  C   UNL     1       1.289  11.890  19.527  0.00  0.00    +0.000 C 
ATOM     13  C   UNL     1       0.545  10.863  18.627  0.00  0.00    +0.000 C 
ENDBRANCH   1   2
BRANCH   1  14
ATOM     14  C   UNL     1       2.252   7.972  17.992  0.00  0.00    +0.000 C 
BRANCH  14  16
ATOM     15  N   UNL     1       2.514   6.396  19.734  0.00  0.00    +0.000 NA
ATOM     16  C   UNL     1       2.930   6.706  18.535  0.00  0.00    +0.000 C 
BRANCH  16  17
ATOM     17  C   UNL     1       3.932   5.934  17.681  0.00  0.00    +0.000 A 
ATOM     18  C   UNL     1       5.150   6.582  17.383  0.00  0.00    +0.000 A 
ATOM     19  C   UNL     1       6.104   6.024  16.523  0.00  0.00    +0.000 A 
ATOM     20  C   UNL     1       5.884   4.774  15.968  0.00  0.00    +0.000 A 
ATOM     21  C   UNL     1       4.724   4.081  16.293  0.00  0.00    +0.000 A 
ATOM     22  C   UNL     1       3.738   4.635  17.146  0.00  0.00    +0.000 A 
ATOM     23  C   UNL     1       2.534   3.765  17.367  0.00  0.00    +0.000 C 
ENDBRANCH  16  17
BRANCH  15  25
ATOM     24  C   UNL     1       2.117   4.607  21.100  0.00  0.00    +0.000 C 
ATOM     25  O   UNL     1       3.103   5.270  20.310  0.00  0.00    +0.000 OA
ENDBRANCH  15  25
ENDBRANCH  14  16
ENDBRANCH   1  14
TORSDOF 5
ENDMDL
MODEL 9
REMARK VINA RESULT:      -7.0      3.620      8.762
REMARK  Name = 
REMARK  7 active torsions:
REMARK  status: ('A' for Active; 'I' for Inactive)
REMARK    1  A    between atoms: C_1  and  O_2
REMARK    2  A    between atoms: O_2  and  N_3
REMARK    3  A    between atoms: C_4  and  C_5
REMARK    4  A    between atoms: C_4  and  C_19
REMARK    5  A    between atoms: C_5  and  C_6
REMARK    6  A    between atoms: C_6  and  N_7
REMARK    7  A    between atoms: C_24  and  C_25
REMARK                            x       y       z     vdW  Elec       q    Type
REMARK                         _______ _______ _______ _____ _____    ______ ____
ROOT
ATOM      1  C   UNL     1       1.695   7.928  20.389  0.00  0.00    +0.000 C 
ENDROOT
BRANCH   1   2
ATOM      2  N   UNL     1       0.277   8.346  20.367  0.00  0.00    +0.000 NA
ATOM      3  C   UNL     1      -0.233   8.681  21.724  0.00  0.00    +0.000 C 
ATOM      4  C   UNL     1       0.458   9.888  22.398  0.00  0.00    +0.000 C 
ATOM      5  N   UNL     1       0.482  11.063  21.517  0.00  0.00    +0.000 N 
ATOM      6  C   UNL     1      -0.033  12.255  21.975  0.00  0.00    +0.000 A 
ATOM      7  C   UNL     1       0.404  13.480  21.467  0.00  0.00    +0.000 A 
ATOM      8  C   UNL     1      -0.105  14.675  21.977  0.00  0.00    +0.000 A 
ATOM      9  C   UNL     1      -1.059  14.629  22.979  0.00  0.00    +0.000 A 
ATOM     10  C   UNL     1      -1.451  13.386  23.432  0.00  0.00    +0.000 A 
ATOM     11  N   UNL     1      -0.955  12.221  22.962  0.00  0.00    +0.000 NA
ATOM     12  C   UNL     1       0.819  10.850  20.110  0.00  0.00    +0.000 C 
ATOM     13  C   UNL     1       0.125   9.577  19.548  0.00  0.00    +0.000 C 
ENDBRANCH   1   2
BRANCH   1  14
ATOM     14  C   UNL     1       2.326   7.596  19.027  0.00  0.00    +0.000 C 
BRANCH  14  16
ATOM     15  N   UNL     1       4.280   6.312  18.679  0.00  0.00    +0.000 NA
ATOM     16  C   UNL     1       3.045   6.242  19.100  0.00  0.00    +0.000 C 
BRANCH  16  17
ATOM     17  C   UNL     1       2.334   5.013  19.660  0.00  0.00    +0.000 A 
ATOM     18  C   UNL     1       2.470   4.770  21.044  0.00  0.00    +0.000 A 
ATOM     19  C   UNL     1       1.957   3.621  21.657  0.00  0.00    +0.000 A 
ATOM     20  C   UNL     1       1.248   2.698  20.906  0.00  0.00    +0.000 A 
ATOM     21  C   UNL     1       1.039   2.939  19.553  0.00  0.00    +0.000 A 
ATOM     22  C   UNL     1       1.566   4.086  18.909  0.00  0.00    +0.000 A 
ATOM     23  C   UNL     1       1.272   4.175  17.440  0.00  0.00    +0.000 C 
ENDBRANCH  16  17
BRANCH  15  25
ATOM     24  C   UNL     1       6.275   5.366  19.269  0.00  0.00    +0.000 C 
ATOM     25  O   UNL     1       4.996   5.114  18.688  0.00  0.00    +0.000 OA
ENDBRANCH  15  25
ENDBRANCH  14  16
ENDBRANCH   1  14
TORSDOF 5
ENDMDL
