MODEL 1
REMARK VINA RESULT:      -6.7      0.000      0.000
REMARK  Name = 
REMARK  4 active torsions:
REMARK  status: ('A' for Active; 'I' for Inactive)
REMARK    1  A    between atoms: C_1  and  C_2
REMARK    2  A    between atoms: C_2  and  C_3
REMARK    3  A    between atoms: C_2  and  C_4
REMARK    4  A    between atoms: C_4  and  C_5
REMARK                            x       y       z     vdW  Elec       q    Type
REMARK                         _______ _______ _______ _____ _____    ______ ____
ROOT
ATOM      1  C   UNL     1       4.064   5.045  18.342  0.00  0.00    +0.000 C 
ATOM      2  N   UNL     1       4.936   5.517  19.402  0.00  0.00    +0.000 N 
ATOM      3  C   UNL     1       6.219   5.044  19.290  0.00  0.00    +0.000 C 
ATOM      4  O   UNL     1       7.138   5.330  20.037  0.00  0.00    +0.000 OA
ATOM      5  N   UNL     1       6.288   4.221  18.224  0.00  0.00    +0.000 N 
ATOM      6  C   UNL     1       5.074   4.115  17.615  0.00  0.00    +0.000 C 
ATOM      7  O   UNL     1       4.861   3.412  16.639  0.00  0.00    +0.000 OA
ATOM      8  H   UNL     1       4.670   6.128  20.161  0.00  0.00    +0.000 HD
ATOM      9  H   UNL     1       7.118   3.732  17.936  0.00  0.00    +0.000 HD
ENDROOT
BRANCH   1  10
ATOM     10  C   UNL     1       2.907   4.303  18.994  0.00  0.00    +0.000 A 
ATOM     11  C   UNL     1       1.826   3.681  18.262  0.00  0.00    +0.000 A 
ATOM     12  C   UNL     1       0.973   2.961  19.067  0.00  0.00    +0.000 A 
ATOM     13  S   UNL     1       1.401   3.074  20.714  0.00  0.00    +0.000 S 
ATOM     14  C   UNL     1       2.749   4.060  20.349  0.00  0.00    +0.000 A 
ENDBRANCH   1  10
BRANCH   1  16
ATOM     15  C   UNL     1       2.849   7.326  18.187  0.00  0.00    +0.000 C 
ATOM     16  C   UNL     1       3.593   6.216  17.430  0.00  0.00    +0.000 C 
ATOM     17  C   UNL     1       4.743   6.846  16.628  0.00  0.00    +0.000 C 
ENDBRANCH   1  16
TORSDOF 2
ENDMDL
MODEL 2
REMARK VINA RESULT:      -6.4      0.537      1.050
REMARK  Name = 
REMARK  4 active torsions:
REMARK  status: ('A' for Active; 'I' for Inactive)
REMARK    1  A    between atoms: C_1  and  C_2
REMARK    2  A    between atoms: C_2  and  C_3
REMARK    3  A    between atoms: C_2  and  C_4
REMARK    4  A    between atoms: C_4  and  C_5
REMARK                            x       y       z     vdW  Elec       q    Type
REMARK                         _______ _______ _______ _____ _____    ______ ____
ROOT
ATOM      1  C   UNL     1       4.161   5.044  18.338  0.00  0.00    +0.000 C 
ATOM      2  N   UNL     1       5.026   5.544  19.391  0.00  0.00    +0.000 N 
ATOM      3  C   UNL     1       6.317   5.094  19.282  0.00  0.00    +0.000 C 
ATOM      4  O   UNL     1       7.232   5.406  20.024  0.00  0.00    +0.000 OA
ATOM      5  N   UNL     1       6.399   4.260  18.225  0.00  0.00    +0.000 N 
ATOM      6  C   UNL     1       5.187   4.125  17.620  0.00  0.00    +0.000 C 
ATOM      7  O   UNL     1       4.984   3.406  16.654  0.00  0.00    +0.000 OA
ATOM      8  H   UNL     1       4.750   6.160  20.143  0.00  0.00    +0.000 HD
ATOM      9  H   UNL     1       7.238   3.783  17.942  0.00  0.00    +0.000 HD
ENDROOT
BRANCH   1  10
ATOM     10  C   UNL     1       3.019   4.289  19.002  0.00  0.00    +0.000 A 
ATOM     11  C   UNL     1       2.746   4.313  20.421  0.00  0.00    +0.000 A 
ATOM     12  C   UNL     1       1.583   3.658  20.760  0.00  0.00    +0.000 A 
ATOM     13  S   UNL     1       0.837   2.943  19.404  0.00  0.00    +0.000 S 
ATOM     14  C   UNL     1       2.051   3.536  18.356  0.00  0.00    +0.000 A 
ENDBRANCH   1  10
BRANCH   1  16
ATOM     15  C   UNL     1       2.923   7.311  18.162  0.00  0.00    +0.000 C 
ATOM     16  C   UNL     1       3.667   6.195  17.414  0.00  0.00    +0.000 C 
ATOM     17  C   UNL     1       4.800   6.823  16.586  0.00  0.00    +0.000 C 
ENDBRANCH   1  16
TORSDOF 2
ENDMDL
MODEL 3
REMARK VINA RESULT:      -6.2      1.402      1.674
REMARK  Name = 
REMARK  4 active torsions:
REMARK  status: ('A' for Active; 'I' for Inactive)
REMARK    1  A    between atoms: C_1  and  C_2
REMARK    2  A    between atoms: C_2  and  C_3
REMARK    3  A    between atoms: C_2  and  C_4
REMARK    4  A    between atoms: C_4  and  C_5
REMARK                            x       y       z     vdW  Elec       q    Type
REMARK                         _______ _______ _______ _____ _____    ______ ____
ROOT
ATOM      1  C   UNL     1       5.004   4.778  17.643  0.00  0.00    +0.000 C 
ATOM      2  N   UNL     1       5.847   5.241  18.730  0.00  0.00    +0.000 N 
ATOM      3  C   UNL     1       7.181   5.012  18.507  0.00  0.00    +0.000 C 
ATOM      4  O   UNL     1       8.083   5.344  19.256  0.00  0.00    +0.000 OA
ATOM      5  N   UNL     1       7.322   4.366  17.331  0.00  0.00    +0.000 N 
ATOM      6  C   UNL     1       6.108   4.142  16.755  0.00  0.00    +0.000 C 
ATOM      7  O   UNL     1       5.956   3.552  15.696  0.00  0.00    +0.000 OA
ATOM      8  H   UNL     1       5.530   5.688  19.578  0.00  0.00    +0.000 HD
ATOM      9  H   UNL     1       8.202   4.070  16.948  0.00  0.00    +0.000 HD
ENDROOT
BRANCH   1  10
ATOM     10  C   UNL     1       4.022   3.769  18.219  0.00  0.00    +0.000 A 
ATOM     11  C   UNL     1       4.052   3.297  19.585  0.00  0.00    +0.000 A 
ATOM     12  C   UNL     1       2.983   2.490  19.902  0.00  0.00    +0.000 A 
ATOM     13  S   UNL     1       1.966   2.222  18.559  0.00  0.00    +0.000 S 
ATOM     14  C   UNL     1       2.937   3.213  17.560  0.00  0.00    +0.000 A 
ENDBRANCH   1  10
BRANCH   1  16
ATOM     15  C   UNL     1       3.600   6.939  17.889  0.00  0.00    +0.000 C 
ATOM     16  C   UNL     1       4.297   5.967  16.926  0.00  0.00    +0.000 C 
ATOM     17  C   UNL     1       5.245   6.763  16.016  0.00  0.00    +0.000 C 
ENDBRANCH   1  16
TORSDOF 2
ENDMDL
MODEL 4
REMARK VINA RESULT:      -6.1      1.516      1.630
REMARK  Name = 
REMARK  4 active torsions:
REMARK  status: ('A' for Active; 'I' for Inactive)
REMARK    1  A    between atoms: C_1  and  C_2
REMARK    2  A    between atoms: C_2  and  C_3
REMARK    3  A    between atoms: C_2  and  C_4
REMARK    4  A    between atoms: C_4  and  C_5
REMARK                            x       y       z     vdW  Elec       q    Type
REMARK                         _______ _______ _______ _____ _____    ______ ____
ROOT
ATOM      1  C   UNL     1       5.160   4.826  17.405  0.00  0.00    +0.000 C 
ATOM      2  N   UNL     1       5.964   5.268  18.531  0.00  0.00    +0.000 N 
ATOM      3  C   UNL     1       7.304   5.031  18.357  0.00  0.00    +0.000 C 
ATOM      4  O   UNL     1       8.178   5.347  19.145  0.00  0.00    +0.000 OA
ATOM      5  N   UNL     1       7.485   4.400  17.179  0.00  0.00    +0.000 N 
ATOM      6  C   UNL     1       6.294   4.193  16.553  0.00  0.00    +0.000 C 
ATOM      7  O   UNL     1       6.179   3.620  15.480  0.00  0.00    +0.000 OA
ATOM      8  H   UNL     1       5.617   5.706  19.372  0.00  0.00    +0.000 HD
ATOM      9  H   UNL     1       8.378   4.102  16.826  0.00  0.00    +0.000 HD
ENDROOT
BRANCH   1  10
ATOM     10  C   UNL     1       4.149   3.818  17.929  0.00  0.00    +0.000 A 
ATOM     11  C   UNL     1       2.994   3.366  17.187  0.00  0.00    +0.000 A 
ATOM     12  C   UNL     1       2.306   2.355  17.820  0.00  0.00    +0.000 A 
ATOM     13  S   UNL     1       2.981   1.979  19.341  0.00  0.00    +0.000 S 
ATOM     14  C   UNL     1       4.215   3.145  19.139  0.00  0.00    +0.000 A 
ENDBRANCH   1  10
BRANCH   1  16
ATOM     15  C   UNL     1       3.935   7.095  17.635  0.00  0.00    +0.000 C 
ATOM     16  C   UNL     1       4.491   6.030  16.679  0.00  0.00    +0.000 C 
ATOM     17  C   UNL     1       5.427   6.711  15.667  0.00  0.00    +0.000 C 
ENDBRANCH   1  16
TORSDOF 2
ENDMDL
MODEL 5
REMARK VINA RESULT:      -6.1      2.431      3.557
REMARK  Name = 
REMARK  4 active torsions:
REMARK  status: ('A' for Active; 'I' for Inactive)
REMARK    1  A    between atoms: C_1  and  C_2
REMARK    2  A    between atoms: C_2  and  C_3
REMARK    3  A    between atoms: C_2  and  C_4
REMARK    4  A    between atoms: C_4  and  C_5
REMARK                            x       y       z     vdW  Elec       q    Type
REMARK                         _______ _______ _______ _____ _____    ______ ____
ROOT
ATOM      1  C   UNL     1       5.263   4.394  17.019  0.00  0.00    +0.000 C 
ATOM      2  N   UNL     1       5.736   3.564  15.925  0.00  0.00    +0.000 N 
ATOM      3  C   UNL     1       6.000   4.281  14.785  0.00  0.00    +0.000 C 
ATOM      4  O   UNL     1       6.443   3.813  13.751  0.00  0.00    +0.000 OA
ATOM      5  N   UNL     1       5.692   5.576  15.005  0.00  0.00    +0.000 N 
ATOM      6  C   UNL     1       5.214   5.752  16.267  0.00  0.00    +0.000 C 
ATOM      7  O   UNL     1       4.840   6.828  16.710  0.00  0.00    +0.000 OA
ATOM      8  H   UNL     1       5.872   2.564  15.955  0.00  0.00    +0.000 HD
ATOM      9  H   UNL     1       5.781   6.305  14.318  0.00  0.00    +0.000 HD
ENDROOT
BRANCH   1  10
ATOM     10  C   UNL     1       3.895   3.871  17.433  0.00  0.00    +0.000 A 
ATOM     11  C   UNL     1       3.610   2.484  17.721  0.00  0.00    +0.000 A 
ATOM     12  C   UNL     1       2.335   2.282  18.201  0.00  0.00    +0.000 A 
ATOM     13  S   UNL     1       1.435   3.730  18.247  0.00  0.00    +0.000 S 
ATOM     14  C   UNL     1       2.760   4.634  17.656  0.00  0.00    +0.000 A 
ENDBRANCH   1  10
BRANCH   1  16
ATOM     15  C   UNL     1       7.705   4.810  17.770  0.00  0.00    +0.000 C 
ATOM     16  C   UNL     1       6.282   4.418  18.196  0.00  0.00    +0.000 C 
ATOM     17  C   UNL     1       5.839   5.332  19.349  0.00  0.00    +0.000 C 
ENDBRANCH   1  16
TORSDOF 2
ENDMDL
MODEL 6
REMARK VINA RESULT:      -6.1      2.367      3.538
REMARK  Name = 
REMARK  4 active torsions:
REMARK  status: ('A' for Active; 'I' for Inactive)
REMARK    1  A    between atoms: C_1  and  C_2
REMARK    2  A    between atoms: C_2  and  C_3
REMARK    3  A    between atoms: C_2  and  C_4
REMARK    4  A    between atoms: C_4  and  C_5
REMARK                            x       y       z     vdW  Elec       q    Type
REMARK                         _______ _______ _______ _____ _____    ______ ____
ROOT
ATOM      1  C   UNL     1       5.268   4.413  17.068  0.00  0.00    +0.000 C 
ATOM      2  N   UNL     1       5.689   3.548  15.980  0.00  0.00    +0.000 N 
ATOM      3  C   UNL     1       5.921   4.231  14.812  0.00  0.00    +0.000 C 
ATOM      4  O   UNL     1       6.318   3.729  13.776  0.00  0.00    +0.000 OA
ATOM      5  N   UNL     1       5.640   5.536  15.009  0.00  0.00    +0.000 N 
ATOM      6  C   UNL     1       5.212   5.752  16.283  0.00  0.00    +0.000 C 
ATOM      7  O   UNL     1       4.870   6.844  16.710  0.00  0.00    +0.000 OA
ATOM      8  H   UNL     1       5.811   2.547  16.031  0.00  0.00    +0.000 HD
ATOM      9  H   UNL     1       5.714   6.245  14.300  0.00  0.00    +0.000 HD
ENDROOT
BRANCH   1  10
ATOM     10  C   UNL     1       3.910   3.923  17.545  0.00  0.00    +0.000 A 
ATOM     11  C   UNL     1       2.725   4.748  17.606  0.00  0.00    +0.000 A 
ATOM     12  C   UNL     1       1.592   4.043  17.946  0.00  0.00    +0.000 A 
ATOM     13  S   UNL     1       1.934   2.404  18.270  0.00  0.00    +0.000 S 
ATOM     14  C   UNL     1       3.593   2.628  17.923  0.00  0.00    +0.000 A 
ENDBRANCH   1  10
BRANCH   1  16
ATOM     15  C   UNL     1       7.728   4.876  17.729  0.00  0.00    +0.000 C 
ATOM     16  C   UNL     1       6.331   4.452  18.205  0.00  0.00    +0.000 C 
ATOM     17  C   UNL     1       5.913   5.349  19.381  0.00  0.00    +0.000 C 
ENDBRANCH   1  16
TORSDOF 2
ENDMDL
MODEL 7
REMARK VINA RESULT:      -6.0      3.009      4.442
REMARK  Name = 
REMARK  4 active torsions:
REMARK  status: ('A' for Active; 'I' for Inactive)
REMARK    1  A    between atoms: C_1  and  C_2
REMARK    2  A    between atoms: C_2  and  C_3
REMARK    3  A    between atoms: C_2  and  C_4
REMARK    4  A    between atoms: C_4  and  C_5
REMARK                            x       y       z     vdW  Elec       q    Type
REMARK                         _______ _______ _______ _____ _____    ______ ____
ROOT
ATOM      1  C   UNL     1       3.113   4.038  19.052  0.00  0.00    +0.000 C 
ATOM      2  N   UNL     1       1.918   3.724  18.290  0.00  0.00    +0.000 N 
ATOM      3  C   UNL     1       1.303   2.571  18.709  0.00  0.00    +0.000 C 
ATOM      4  O   UNL     1       0.267   2.123  18.250  0.00  0.00    +0.000 OA
ATOM      5  N   UNL     1       2.032   2.027  19.706  0.00  0.00    +0.000 N 
ATOM      6  C   UNL     1       3.136   2.781  19.965  0.00  0.00    +0.000 C 
ATOM      7  O   UNL     1       3.974   2.494  20.806  0.00  0.00    +0.000 OA
ATOM      8  H   UNL     1       1.542   4.266  17.525  0.00  0.00    +0.000 HD
ATOM      9  H   UNL     1       1.802   1.167  20.174  0.00  0.00    +0.000 HD
ENDROOT
BRANCH   1  10
ATOM     10  C   UNL     1       4.276   4.109  18.075  0.00  0.00    +0.000 A 
ATOM     11  C   UNL     1       4.151   3.910  16.649  0.00  0.00    +0.000 A 
ATOM     12  C   UNL     1       5.320   4.155  15.964  0.00  0.00    +0.000 A 
ATOM     13  S   UNL     1       6.603   4.555  17.015  0.00  0.00    +0.000 S 
ATOM     14  C   UNL     1       5.587   4.433  18.385  0.00  0.00    +0.000 A 
ENDBRANCH   1  10
BRANCH   1  16
ATOM     15  C   UNL     1       2.751   6.601  19.005  0.00  0.00    +0.000 C 
ATOM     16  C   UNL     1       2.933   5.348  19.874  0.00  0.00    +0.000 C 
ATOM     17  C   UNL     1       1.773   5.268  20.879  0.00  0.00    +0.000 C 
ENDBRANCH   1  16
TORSDOF 2
ENDMDL
MODEL 8
REMARK VINA RESULT:      -6.0      3.035      4.335
REMARK  Name = 
REMARK  4 active torsions:
REMARK  status: ('A' for Active; 'I' for Inactive)
REMARK    1  A    between atoms: C_1  and  C_2
REMARK    2  A    between atoms: C_2  and  C_3
REMARK    3  A    between atoms: C_2  and  C_4
REMARK    4  A    between atoms: C_4  and  C_5
REMARK                            x       y       z     vdW  Elec       q    Type
REMARK                         _______ _______ _______ _____ _____    ______ ____
ROOT
ATOM      1  C   UNL     1       3.490   4.304  18.935  0.00  0.00    +0.000 C 
ATOM      2  N   UNL     1       3.452   3.332  20.012  0.00  0.00    +0.000 N 
ATOM      3  C   UNL     1       2.773   3.783  21.116  0.00  0.00    +0.000 C 
ATOM      4  O   UNL     1       2.575   3.136  22.129  0.00  0.00    +0.000 OA
ATOM      5  N   UNL     1       2.365   5.049  20.889  0.00  0.00    +0.000 N 
ATOM      6  C   UNL     1       2.763   5.471  19.657  0.00  0.00    +0.000 C 
ATOM      7  O   UNL     1       2.542   6.589  19.216  0.00  0.00    +0.000 OA
ATOM      8  H   UNL     1       3.867   2.412  19.997  0.00  0.00    +0.000 HD
ATOM      9  H   UNL     1       1.858   5.610  21.552  0.00  0.00    +0.000 HD
ENDROOT
BRANCH   1  10
ATOM     10  C   UNL     1       4.951   4.589  18.623  0.00  0.00    +0.000 A 
ATOM     11  C   UNL     1       5.594   4.256  17.373  0.00  0.00    +0.000 A 
ATOM     12  C   UNL     1       6.883   4.733  17.284  0.00  0.00    +0.000 A 
ATOM     13  S   UNL     1       7.372   5.520  18.715  0.00  0.00    +0.000 S 
ATOM     14  C   UNL     1       5.849   5.254  19.444  0.00  0.00    +0.000 A 
ENDBRANCH   1  10
BRANCH   1  16
ATOM     15  C   UNL     1       2.574   2.276  17.611  0.00  0.00    +0.000 C 
ATOM     16  C   UNL     1       2.694   3.805  17.693  0.00  0.00    +0.000 C 
ATOM     17  C   UNL     1       1.288   4.419  17.599  0.00  0.00    +0.000 C 
ENDBRANCH   1  16
TORSDOF 2
ENDMDL
MODEL 9
REMARK VINA RESULT:      -6.0      3.278      4.491
REMARK  Name = 
REMARK  4 active torsions:
REMARK  status: ('A' for Active; 'I' for Inactive)
REMARK    1  A    between atoms: C_1  and  C_2
REMARK    2  A    between atoms: C_2  and  C_3
REMARK    3  A    between atoms: C_2  and  C_4
REMARK    4  A    between atoms: C_4  and  C_5
REMARK                            x       y       z     vdW  Elec       q    Type
REMARK                         _______ _______ _______ _____ _____    ______ ____
ROOT
ATOM      1  C   UNL     1       2.458   4.018  19.361  0.00  0.00    +0.000 C 
ATOM      2  N   UNL     1       2.557   3.752  20.785  0.00  0.00    +0.000 N 
ATOM      3  C   UNL     1       1.572   2.914  21.243  0.00  0.00    +0.000 C 
ATOM      4  O   UNL     1       1.469   2.516  22.389  0.00  0.00    +0.000 OA
ATOM      5  N   UNL     1       0.749   2.609  20.218  0.00  0.00    +0.000 N 
ATOM      6  C   UNL     1       1.149   3.232  19.075  0.00  0.00    +0.000 C 
ATOM      7  O   UNL     1       0.560   3.141  18.008  0.00  0.00    +0.000 OA
ATOM      8  H   UNL     1       3.259   4.121  21.410  0.00  0.00    +0.000 HD
ATOM      9  H   UNL     1      -0.064   2.023  20.297  0.00  0.00    +0.000 HD
ENDROOT
BRANCH   1  10
ATOM     10  C   UNL     1       2.322   5.523  19.183  0.00  0.00    +0.000 A 
ATOM     11  C   UNL     1       1.971   6.437  20.247  0.00  0.00    +0.000 A 
ATOM     12  C   UNL     1       2.040   7.759  19.868  0.00  0.00    +0.000 A 
ATOM     13  S   UNL     1       2.453   7.930  18.222  0.00  0.00    +0.000 S 
ATOM     14  C   UNL     1       2.572   6.236  18.022  0.00  0.00    +0.000 A 
ENDBRANCH   1  10
BRANCH   1  16
ATOM     15  C   UNL     1       5.033   3.829  19.173  0.00  0.00    +0.000 C 
ATOM     16  C   UNL     1       3.672   3.426  18.586  0.00  0.00    +0.000 C 
ATOM     17  C   UNL     1       3.615   1.895  18.470  0.00  0.00    +0.000 C 
ENDBRANCH   1  16
TORSDOF 2
ENDMDL
