MODEL 1
REMARK VINA RESULT:      -8.3      0.000      0.000
REMARK  Name = 
REMARK  13 active torsions:
REMARK  status: ('A' for Active; 'I' for Inactive)
REMARK    1  A    between atoms: C_1  and  C_2
REMARK    2  A    between atoms: C_2  and  C_3
REMARK    3  A    between atoms: C_2  and  C_4
REMARK    4  A    between atoms: C_2  and  C_5
REMARK    5  A    between atoms: C_7  and  C_8
REMARK    6  A    between atoms: C_8  and  N_9
REMARK    7  A    between atoms: C_11  and  C_12
REMARK    8  A    between atoms: C_12  and  C_13
REMARK    9  A    between atoms: C_13  and  N_14
REMARK   10  A    between atoms: C_21  and  C_22
REMARK   11  A    between atoms: C_22  and  C_23
REMARK   12  A    between atoms: C_22  and  C_24
REMARK   13  A    between atoms: C_22  and  C_25
REMARK                            x       y       z     vdW  Elec       q    Type
REMARK                         _______ _______ _______ _____ _____    ______ ____
ROOT
ATOM      1  C   UNL     1       2.453   8.286  17.723  0.00  0.00    +0.000 C 
ENDROOT
BRANCH   1   4
ATOM      2  C   UNL     1       5.353   5.809  18.045  0.00  0.00    +0.000 A 
ATOM      3  C   UNL     1       4.601   6.968  17.778  0.00  0.00    +0.000 A 
ATOM      4  C   UNL     1       3.196   6.976  17.860  0.00  0.00    +0.000 A 
ATOM      5  C   UNL     1       2.537   5.797  18.234  0.00  0.00    +0.000 A 
ATOM      6  C   UNL     1       3.241   4.633  18.576  0.00  0.00    +0.000 A 
ATOM      7  C   UNL     1       4.642   4.660  18.442  0.00  0.00    +0.000 A 
BRANCH   2   9
ATOM      8  C   UNL     1       7.369   4.636  17.167  0.00  0.00    +0.000 C 
ATOM      9  C   UNL     1       6.896   5.817  18.038  0.00  0.00    +0.000 C 
ATOM     10  C   UNL     1       7.506   5.665  19.450  0.00  0.00    +0.000 C 
ATOM     11  C   UNL     1       7.488   7.122  17.450  0.00  0.00    +0.000 C 
ENDBRANCH   2   9
BRANCH   6  12
ATOM     12  C   UNL     1       2.506   3.386  19.107  0.00  0.00    +0.000 C 
ATOM     13  C   UNL     1       3.397   2.686  20.147  0.00  0.00    +0.000 C 
ATOM     14  C   UNL     1       1.153   3.748  19.768  0.00  0.00    +0.000 C 
ATOM     15  C   UNL     1       2.173   2.376  17.984  0.00  0.00    +0.000 C 
ENDBRANCH   6  12
ENDBRANCH   1   4
BRANCH   1  16
ATOM     16  N   UNL     1       1.668   8.667  18.888  0.00  0.00    +0.000 N 
ATOM     17  C   UNL     1       0.802   9.714  18.999  0.00  0.00    +0.000 A 
ATOM     18  C   UNL     1       0.478   9.745  20.340  0.00  0.00    +0.000 A 
ATOM     19  N   UNL     1       1.133   8.725  20.978  0.00  0.00    +0.000 NA
ATOM     20  N   UNL     1       1.871   8.080  20.083  0.00  0.00    +0.000 NA
BRANCH  18  21
ATOM     21  C   UNL     1      -0.387  10.692  21.097  0.00  0.00    +0.000 C 
BRANCH  21  22
ATOM     22  C   UNL     1      -0.774  11.908  20.258  0.00  0.00    +0.000 C 
BRANCH  22  23
ATOM     23  N   UNL     1      -1.934  11.667  19.419  0.00  0.00    +0.000 N 
ATOM     24  C   UNL     1      -1.989  12.097  18.139  0.00  0.00    +0.000 C 
ATOM     25  N   UNL     1      -1.064  12.645  17.440  0.00  0.00    +0.000 NA
ATOM     26  N   UNL     1      -3.191  11.875  17.582  0.00  0.00    +0.000 N 
ATOM     27  H   UNL     1      -2.826  11.786  19.893  0.00  0.00    +0.000 HD
ATOM     28  H   UNL     1      -0.216  12.743  17.990  0.00  0.00    +0.000 HD
ATOM     29  H   UNL     1      -3.523  10.934  17.750  0.00  0.00    +0.000 HD
ATOM     30  H   UNL     1      -3.121  12.050  16.581  0.00  0.00    +0.000 HD
ENDBRANCH  22  23
ENDBRANCH  21  22
ENDBRANCH  18  21
ENDBRANCH   1  16
TORSDOF 7
ENDMDL
MODEL 2
REMARK VINA RESULT:      -8.3      0.863      3.662
REMARK  Name = 
REMARK  13 active torsions:
REMARK  status: ('A' for Active; 'I' for Inactive)
REMARK    1  A    between atoms: C_1  and  C_2
REMARK    2  A    between atoms: C_2  and  C_3
REMARK    3  A    between atoms: C_2  and  C_4
REMARK    4  A    between atoms: C_2  and  C_5
REMARK    5  A    between atoms: C_7  and  C_8
REMARK    6  A    between atoms: C_8  and  N_9
REMARK    7  A    between atoms: C_11  and  C_12
REMARK    8  A    between atoms: C_12  and  C_13
REMARK    9  A    between atoms: C_13  and  N_14
REMARK   10  A    between atoms: C_21  and  C_22
REMARK   11  A    between atoms: C_22  and  C_23
REMARK   12  A    between atoms: C_22  and  C_24
REMARK   13  A    between atoms: C_22  and  C_25
REMARK                            x       y       z     vdW  Elec       q    Type
REMARK                         _______ _______ _______ _____ _____    ______ ____
ROOT
ATOM      1  C   UNL     1       2.251   8.080  17.413  0.00  0.00    +0.000 C 
ENDROOT
BRANCH   1   4
ATOM      2  C   UNL     1       3.220   4.775  19.084  0.00  0.00    +0.000 A 
ATOM      3  C   UNL     1       2.480   5.878  18.619  0.00  0.00    +0.000 A 
ATOM      4  C   UNL     1       3.103   7.000  18.042  0.00  0.00    +0.000 A 
ATOM      5  C   UNL     1       4.499   7.004  17.918  0.00  0.00    +0.000 A 
ATOM      6  C   UNL     1       5.280   5.905  18.303  0.00  0.00    +0.000 A 
ATOM      7  C   UNL     1       4.617   4.821  18.910  0.00  0.00    +0.000 A 
BRANCH   2   9
ATOM      8  C   UNL     1       3.645   2.535  20.091  0.00  0.00    +0.000 C 
ATOM      9  C   UNL     1       2.537   3.508  19.640  0.00  0.00    +0.000 C 
ATOM     10  C   UNL     1       1.647   2.796  18.597  0.00  0.00    +0.000 C 
ATOM     11  C   UNL     1       1.624   3.803  20.856  0.00  0.00    +0.000 C 
ENDBRANCH   2   9
BRANCH   6  12
ATOM     12  C   UNL     1       6.799   5.876  18.040  0.00  0.00    +0.000 C 
ATOM     13  C   UNL     1       7.210   7.183  17.342  0.00  0.00    +0.000 C 
ATOM     14  C   UNL     1       7.612   5.728  19.350  0.00  0.00    +0.000 C 
ATOM     15  C   UNL     1       7.218   4.686  17.144  0.00  0.00    +0.000 C 
ENDBRANCH   6  12
ENDBRANCH   1   4
BRANCH   1  16
ATOM     16  N   UNL     1       1.877   9.162  18.311  0.00  0.00    +0.000 N 
ATOM     17  C   UNL     1       1.125   9.077  19.445  0.00  0.00    +0.000 A 
ATOM     18  C   UNL     1       0.907  10.390  19.808  0.00  0.00    +0.000 A 
ATOM     19  N   UNL     1       1.537  11.208  18.907  0.00  0.00    +0.000 NA
ATOM     20  N   UNL     1       2.115  10.447  17.987  0.00  0.00    +0.000 NA
BRANCH  18  21
ATOM     21  C   UNL     1       0.113  10.957  20.933  0.00  0.00    +0.000 C 
BRANCH  21  22
ATOM     22  C   UNL     1      -0.808  12.083  20.471  0.00  0.00    +0.000 C 
BRANCH  22  23
ATOM     23  N   UNL     1      -1.717  11.672  19.415  0.00  0.00    +0.000 N 
ATOM     24  C   UNL     1      -1.674  12.223  18.183  0.00  0.00    +0.000 C 
ATOM     25  N   UNL     1      -0.821  13.057  17.710  0.00  0.00    +0.000 NA
ATOM     26  N   UNL     1      -2.672  11.787  17.398  0.00  0.00    +0.000 N 
ATOM     27  H   UNL     1      -2.674  11.515  19.724  0.00  0.00    +0.000 HD
ATOM     28  H   UNL     1      -0.126  13.290  18.414  0.00  0.00    +0.000 HD
ATOM     29  H   UNL     1      -2.774  10.781  17.431  0.00  0.00    +0.000 HD
ATOM     30  H   UNL     1      -2.490  12.091  16.443  0.00  0.00    +0.000 HD
ENDBRANCH  22  23
ENDBRANCH  21  22
ENDBRANCH  18  21
ENDBRANCH   1  16
TORSDOF 7
ENDMDL
MODEL 3
REMARK VINA RESULT:      -8.2      1.800      2.372
REMARK  Name = 
REMARK  13 active torsions:
REMARK  status: ('A' for Active; 'I' for Inactive)
REMARK    1  A    between atoms: C_1  and  C_2
REMARK    2  A    between atoms: C_2  and  C_3
REMARK    3  A    between atoms: C_2  and  C_4
REMARK    4  A    between atoms: C_2  and  C_5
REMARK    5  A    between atoms: C_7  and  C_8
REMARK    6  A    between atoms: C_8  and  N_9
REMARK    7  A    between atoms: C_11  and  C_12
REMARK    8  A    between atoms: C_12  and  C_13
REMARK    9  A    between atoms: C_13  and  N_14
REMARK   10  A    between atoms: C_21  and  C_22
REMARK   11  A    between atoms: C_22  and  C_23
REMARK   12  A    between atoms: C_22  and  C_24
REMARK   13  A    between atoms: C_22  and  C_25
REMARK                            x       y       z     vdW  Elec       q    Type
REMARK                         _______ _______ _______ _____ _____    ______ ____
ROOT
ATOM      1  C   UNL     1       2.416   8.508  17.824  0.00  0.00    +0.000 C 
ENDROOT
BRANCH   1   4
ATOM      2  C   UNL     1       5.232   5.925  18.047  0.00  0.00    +0.000 A 
ATOM      3  C   UNL     1       4.513   7.108  17.799  0.00  0.00    +0.000 A 
ATOM      4  C   UNL     1       3.115   7.171  17.945  0.00  0.00    +0.000 A 
ATOM      5  C   UNL     1       2.430   6.023  18.366  0.00  0.00    +0.000 A 
ATOM      6  C   UNL     1       3.104   4.837  18.691  0.00  0.00    +0.000 A 
ATOM      7  C   UNL     1       4.498   4.809  18.492  0.00  0.00    +0.000 A 
BRANCH   2   9
ATOM      8  C   UNL     1       7.157   4.695  17.052  0.00  0.00    +0.000 C 
ATOM      9  C   UNL     1       6.772   5.873  17.969  0.00  0.00    +0.000 C 
ATOM     10  C   UNL     1       7.439   5.666  19.347  0.00  0.00    +0.000 C 
ATOM     11  C   UNL     1       7.388   7.167  17.381  0.00  0.00    +0.000 C 
ENDBRANCH   2   9
BRANCH   6  12
ATOM     12  C   UNL     1       2.348   3.627  19.274  0.00  0.00    +0.000 C 
ATOM     13  C   UNL     1       1.825   2.759  18.116  0.00  0.00    +0.000 C 
ATOM     14  C   UNL     1       3.253   2.759  20.182  0.00  0.00    +0.000 C 
ATOM     15  C   UNL     1       1.147   4.051  20.152  0.00  0.00    +0.000 C 
ENDBRANCH   6  12
ENDBRANCH   1   4
BRANCH   1  16
ATOM     16  N   UNL     1       1.599   8.874  18.971  0.00  0.00    +0.000 N 
ATOM     17  C   UNL     1       1.480   8.204  20.154  0.00  0.00    +0.000 A 
ATOM     18  C   UNL     1       0.454   8.853  20.810  0.00  0.00    +0.000 A 
ATOM     19  N   UNL     1       0.008   9.883  20.024  0.00  0.00    +0.000 NA
ATOM     20  N   UNL     1       0.705   9.878  18.895  0.00  0.00    +0.000 NA
BRANCH  18  21
ATOM     21  C   UNL     1      -0.181   8.562  22.125  0.00  0.00    +0.000 C 
BRANCH  21  22
ATOM     22  C   UNL     1       0.028   9.697  23.124  0.00  0.00    +0.000 C 
BRANCH  22  23
ATOM     23  N   UNL     1      -1.100  10.611  23.182  0.00  0.00    +0.000 N 
ATOM     24  C   UNL     1      -1.019  11.873  22.708  0.00  0.00    +0.000 C 
ATOM     25  N   UNL     1      -0.058  12.424  22.062  0.00  0.00    +0.000 NA
ATOM     26  N   UNL     1      -2.129  12.583  22.965  0.00  0.00    +0.000 N 
ATOM     27  H   UNL     1      -1.628  10.569  24.050  0.00  0.00    +0.000 HD
ATOM     28  H   UNL     1       0.708  11.767  21.938  0.00  0.00    +0.000 HD
ATOM     29  H   UNL     1      -2.972  12.073  22.733  0.00  0.00    +0.000 HD
ATOM     30  H   UNL     1      -2.087  13.453  22.438  0.00  0.00    +0.000 HD
ENDBRANCH  22  23
ENDBRANCH  21  22
ENDBRANCH  18  21
ENDBRANCH   1  16
TORSDOF 7
ENDMDL
MODEL 4
REMARK VINA RESULT:      -8.2      1.184      3.794
REMARK  Name = 
REMARK  13 active torsions:
REMARK  status: ('A' for Active; 'I' for Inactive)
REMARK    1  A    between atoms: C_1  and  C_2
REMARK    2  A    between atoms: C_2  and  C_3
REMARK    3  A    between atoms: C_2  and  C_4
REMARK    4  A    between atoms: C_2  and  C_5
REMARK    5  A    between atoms: C_7  and  C_8
REMARK    6  A    between atoms: C_8  and  N_9
REMARK    7  A    between atoms: C_11  and  C_12
REMARK    8  A    between atoms: C_12  and  C_13
REMARK    9  A    between atoms: C_13  and  N_14
REMARK   10  A    between atoms: C_21  and  C_22
REMARK   11  A    between atoms: C_22  and  C_23
REMARK   12  A    between atoms: C_22  and  C_24
REMARK   13  A    between atoms: C_22  and  C_25
REMARK                            x       y       z     vdW  Elec       q    Type
REMARK                         _______ _______ _______ _____ _____    ______ ____
ROOT
ATOM      1  C   UNL     1       2.222   7.448  17.475  0.00  0.00    +0.000 C 
ENDROOT
BRANCH   1   4
ATOM      2  C   UNL     1       3.559   4.400  19.364  0.00  0.00    +0.000 A 
ATOM      3  C   UNL     1       2.701   5.384  18.840  0.00  0.00    +0.000 A 
ATOM      4  C   UNL     1       3.194   6.511  18.158  0.00  0.00    +0.000 A 
ATOM      5  C   UNL     1       4.579   6.642  17.987  0.00  0.00    +0.000 A 
ATOM      6  C   UNL     1       5.475   5.659  18.431  0.00  0.00    +0.000 A 
ATOM      7  C   UNL     1       4.940   4.568  19.142  0.00  0.00    +0.000 A 
BRANCH   2   9
ATOM      8  C   UNL     1       4.224   2.204  20.338  0.00  0.00    +0.000 C 
ATOM      9  C   UNL     1       3.021   3.121  20.039  0.00  0.00    +0.000 C 
ATOM     10  C   UNL     1       2.018   2.348  19.154  0.00  0.00    +0.000 C 
ATOM     11  C   UNL     1       2.286   3.409  21.373  0.00  0.00    +0.000 C 
ENDBRANCH   2   9
BRANCH   6  12
ATOM     12  C   UNL     1       6.982   5.758  18.121  0.00  0.00    +0.000 C 
ATOM     13  C   UNL     1       7.769   5.693  19.441  0.00  0.00    +0.000 C 
ATOM     14  C   UNL     1       7.461   4.614  17.194  0.00  0.00    +0.000 C 
ATOM     15  C   UNL     1       7.347   7.074  17.394  0.00  0.00    +0.000 C 
ENDBRANCH   6  12
ENDBRANCH   1   4
BRANCH   1  16
ATOM     16  N   UNL     1       1.913   8.658  18.223  0.00  0.00    +0.000 N 
ATOM     17  C   UNL     1       1.351   8.746  19.462  0.00  0.00    +0.000 A 
ATOM     18  C   UNL     1       1.098  10.093  19.625  0.00  0.00    +0.000 A 
ATOM     19  N   UNL     1       1.524  10.761  18.508  0.00  0.00    +0.000 NA
ATOM     20  N   UNL     1       2.008   9.872  17.650  0.00  0.00    +0.000 NA
BRANCH  18  21
ATOM     21  C   UNL     1       0.447  10.818  20.751  0.00  0.00    +0.000 C 
BRANCH  21  22
ATOM     22  C   UNL     1      -0.862  11.478  20.323  0.00  0.00    +0.000 C 
BRANCH  22  23
ATOM     23  N   UNL     1      -0.700  12.880  19.980  0.00  0.00    +0.000 N 
ATOM     24  C   UNL     1      -0.765  13.313  18.702  0.00  0.00    +0.000 C 
ATOM     25  N   UNL     1      -1.074  12.650  17.648  0.00  0.00    +0.000 NA
ATOM     26  N   UNL     1      -0.473  14.619  18.594  0.00  0.00    +0.000 N 
ATOM     27  H   UNL     1       0.031  13.357  20.501  0.00  0.00    +0.000 HD
ATOM     28  H   UNL     1      -1.274  11.682  17.885  0.00  0.00    +0.000 HD
ATOM     29  H   UNL     1      -0.964  15.179  19.279  0.00  0.00    +0.000 HD
ATOM     30  H   UNL     1      -0.709  14.927  17.653  0.00  0.00    +0.000 HD
ENDBRANCH  22  23
ENDBRANCH  21  22
ENDBRANCH  18  21
ENDBRANCH   1  16
TORSDOF 7
ENDMDL
MODEL 5
REMARK VINA RESULT:      -8.2      0.678      1.495
REMARK  Name = 
REMARK  13 active torsions:
REMARK  status: ('A' for Active; 'I' for Inactive)
REMARK    1  A    between atoms: C_1  and  C_2
REMARK    2  A    between atoms: C_2  and  C_3
REMARK    3  A    between atoms: C_2  and  C_4
REMARK    4  A    between atoms: C_2  and  C_5
REMARK    5  A    between atoms: C_7  and  C_8
REMARK    6  A    between atoms: C_8  and  N_9
REMARK    7  A    between atoms: C_11  and  C_12
REMARK    8  A    between atoms: C_12  and  C_13
REMARK    9  A    between atoms: C_13  and  N_14
REMARK   10  A    between atoms: C_21  and  C_22
REMARK   11  A    between atoms: C_22  and  C_23
REMARK   12  A    between atoms: C_22  and  C_24
REMARK   13  A    between atoms: C_22  and  C_25
REMARK                            x       y       z     vdW  Elec       q    Type
REMARK                         _______ _______ _______ _____ _____    ______ ____
ROOT
ATOM      1  C   UNL     1       2.445   8.303  17.710  0.00  0.00    +0.000 C 
ENDROOT
BRANCH   1   4
ATOM      2  C   UNL     1       5.302   5.777  18.036  0.00  0.00    +0.000 A 
ATOM      3  C   UNL     1       4.568   6.944  17.755  0.00  0.00    +0.000 A 
ATOM      4  C   UNL     1       3.166   6.982  17.864  0.00  0.00    +0.000 A 
ATOM      5  C   UNL     1       2.492   5.826  18.280  0.00  0.00    +0.000 A 
ATOM      6  C   UNL     1       3.179   4.657  18.637  0.00  0.00    +0.000 A 
ATOM      7  C   UNL     1       4.578   4.652  18.475  0.00  0.00    +0.000 A 
BRANCH   2   9
ATOM      8  C   UNL     1       7.320   7.067  17.346  0.00  0.00    +0.000 C 
ATOM      9  C   UNL     1       6.845   5.754  17.999  0.00  0.00    +0.000 C 
ATOM     10  C   UNL     1       7.410   4.566  17.189  0.00  0.00    +0.000 C 
ATOM     11  C   UNL     1       7.479   5.656  19.409  0.00  0.00    +0.000 C 
ENDBRANCH   2   9
BRANCH   6  12
ATOM     12  C   UNL     1       2.431   3.438  19.214  0.00  0.00    +0.000 C 
ATOM     13  C   UNL     1       1.196   3.930  19.989  0.00  0.00    +0.000 C 
ATOM     14  C   UNL     1       1.970   2.461  18.105  0.00  0.00    +0.000 C 
ATOM     15  C   UNL     1       3.314   2.606  20.173  0.00  0.00    +0.000 C 
ENDBRANCH   6  12
ENDBRANCH   1   4
BRANCH   1  16
ATOM     16  N   UNL     1       1.677   8.718  18.873  0.00  0.00    +0.000 N 
ATOM     17  C   UNL     1       0.833   9.785  18.973  0.00  0.00    +0.000 A 
ATOM     18  C   UNL     1       0.518   9.845  20.315  0.00  0.00    +0.000 A 
ATOM     19  N   UNL     1       1.157   8.821  20.965  0.00  0.00    +0.000 NA
ATOM     20  N   UNL     1       1.875   8.147  20.076  0.00  0.00    +0.000 NA
BRANCH  18  21
ATOM     21  C   UNL     1      -0.322  10.822  21.063  0.00  0.00    +0.000 C 
BRANCH  21  22
ATOM     22  C   UNL     1      -1.354  11.494  20.161  0.00  0.00    +0.000 C 
BRANCH  22  23
ATOM     23  N   UNL     1      -1.036  12.883  19.880  0.00  0.00    +0.000 N 
ATOM     24  C   UNL     1      -0.855  13.332  18.619  0.00  0.00    +0.000 C 
ATOM     25  N   UNL     1      -1.030  12.703  17.514  0.00  0.00    +0.000 NA
ATOM     26  N   UNL     1      -0.455  14.613  18.589  0.00  0.00    +0.000 N 
ATOM     27  H   UNL     1      -0.370  13.300  20.526  0.00  0.00    +0.000 HD
ATOM     28  H   UNL     1      -1.336  11.751  17.694  0.00  0.00    +0.000 HD
ATOM     29  H   UNL     1      -1.013  15.202  19.195  0.00  0.00    +0.000 HD
ATOM     30  H   UNL     1      -0.507  14.947  17.629  0.00  0.00    +0.000 HD
ENDBRANCH  22  23
ENDBRANCH  21  22
ENDBRANCH  18  21
ENDBRANCH   1  16
TORSDOF 7
ENDMDL
MODEL 6
REMARK VINA RESULT:      -8.2      0.374      1.301
REMARK  Name = 
REMARK  13 active torsions:
REMARK  status: ('A' for Active; 'I' for Inactive)
REMARK    1  A    between atoms: C_1  and  C_2
REMARK    2  A    between atoms: C_2  and  C_3
REMARK    3  A    between atoms: C_2  and  C_4
REMARK    4  A    between atoms: C_2  and  C_5
REMARK    5  A    between atoms: C_7  and  C_8
REMARK    6  A    between atoms: C_8  and  N_9
REMARK    7  A    between atoms: C_11  and  C_12
REMARK    8  A    between atoms: C_12  and  C_13
REMARK    9  A    between atoms: C_13  and  N_14
REMARK   10  A    between atoms: C_21  and  C_22
REMARK   11  A    between atoms: C_22  and  C_23
REMARK   12  A    between atoms: C_22  and  C_24
REMARK   13  A    between atoms: C_22  and  C_25
REMARK                            x       y       z     vdW  Elec       q    Type
REMARK                         _______ _______ _______ _____ _____    ______ ____
ROOT
ATOM      1  C   UNL     1       2.393   8.346  17.705  0.00  0.00    +0.000 C 
ENDROOT
BRANCH   1   4
ATOM      2  C   UNL     1       5.242   5.815  18.062  0.00  0.00    +0.000 A 
ATOM      3  C   UNL     1       4.509   6.977  17.758  0.00  0.00    +0.000 A 
ATOM      4  C   UNL     1       3.109   7.026  17.888  0.00  0.00    +0.000 A 
ATOM      5  C   UNL     1       2.436   5.887  18.349  0.00  0.00    +0.000 A 
ATOM      6  C   UNL     1       3.123   4.725  18.730  0.00  0.00    +0.000 A 
ATOM      7  C   UNL     1       4.518   4.708  18.546  0.00  0.00    +0.000 A 
BRANCH   2   9
ATOM      8  C   UNL     1       7.310   5.666  19.446  0.00  0.00    +0.000 C 
ATOM      9  C   UNL     1       6.784   5.782  18.001  0.00  0.00    +0.000 C 
ATOM     10  C   UNL     1       7.389   7.048  17.354  0.00  0.00    +0.000 C 
ATOM     11  C   UNL     1       7.327   4.580  17.188  0.00  0.00    +0.000 C 
ENDBRANCH   2   9
BRANCH   6  12
ATOM     12  C   UNL     1       2.377   3.529  19.355  0.00  0.00    +0.000 C 
ATOM     13  C   UNL     1       1.590   2.799  18.253  0.00  0.00    +0.000 C 
ATOM     14  C   UNL     1       3.348   2.527  20.026  0.00  0.00    +0.000 C 
ATOM     15  C   UNL     1       1.387   3.966  20.461  0.00  0.00    +0.000 C 
ENDBRANCH   6  12
ENDBRANCH   1   4
BRANCH   1  16
ATOM     16  N   UNL     1       1.623   8.787  18.858  0.00  0.00    +0.000 N 
ATOM     17  C   UNL     1       0.752   9.835  18.923  0.00  0.00    +0.000 A 
ATOM     18  C   UNL     1       0.446   9.939  20.265  0.00  0.00    +0.000 A 
ATOM     19  N   UNL     1       1.116   8.958  20.948  0.00  0.00    +0.000 NA
ATOM     20  N   UNL     1       1.844   8.268  20.080  0.00  0.00    +0.000 NA
BRANCH  18  21
ATOM     21  C   UNL     1      -0.413  10.922  20.980  0.00  0.00    +0.000 C 
BRANCH  21  22
ATOM     22  C   UNL     1      -0.855  12.064  20.069  0.00  0.00    +0.000 C 
BRANCH  22  23
ATOM     23  N   UNL     1      -2.211  11.898  19.574  0.00  0.00    +0.000 N 
ATOM     24  C   UNL     1      -2.504  11.985  18.258  0.00  0.00    +0.000 C 
ATOM     25  N   UNL     1      -1.700  12.099  17.266  0.00  0.00    +0.000 NA
ATOM     26  N   UNL     1      -3.826  11.918  18.029  0.00  0.00    +0.000 N 
ATOM     27  H   UNL     1      -2.923  12.343  20.148  0.00  0.00    +0.000 HD
ATOM     28  H   UNL     1      -0.738  12.131  17.592  0.00  0.00    +0.000 HD
ATOM     29  H   UNL     1      -4.265  11.159  18.534  0.00  0.00    +0.000 HD
ATOM     30  H   UNL     1      -3.976  11.809  17.028  0.00  0.00    +0.000 HD
ENDBRANCH  22  23
ENDBRANCH  21  22
ENDBRANCH  18  21
ENDBRANCH   1  16
TORSDOF 7
ENDMDL
MODEL 7
REMARK VINA RESULT:      -8.1      1.008      3.653
REMARK  Name = 
REMARK  13 active torsions:
REMARK  status: ('A' for Active; 'I' for Inactive)
REMARK    1  A    between atoms: C_1  and  C_2
REMARK    2  A    between atoms: C_2  and  C_3
REMARK    3  A    between atoms: C_2  and  C_4
REMARK    4  A    between atoms: C_2  and  C_5
REMARK    5  A    between atoms: C_7  and  C_8
REMARK    6  A    between atoms: C_8  and  N_9
REMARK    7  A    between atoms: C_11  and  C_12
REMARK    8  A    between atoms: C_12  and  C_13
REMARK    9  A    between atoms: C_13  and  N_14
REMARK   10  A    between atoms: C_21  and  C_22
REMARK   11  A    between atoms: C_22  and  C_23
REMARK   12  A    between atoms: C_22  and  C_24
REMARK   13  A    between atoms: C_22  and  C_25
REMARK                            x       y       z     vdW  Elec       q    Type
REMARK                         _______ _______ _______ _____ _____    ______ ____
ROOT
ATOM      1  C   UNL     1       2.003   7.875  17.454  0.00  0.00    +0.000 C 
ENDROOT
BRANCH   1   4
ATOM      2  C   UNL     1       3.409   4.743  19.146  0.00  0.00    +0.000 A 
ATOM      3  C   UNL     1       2.542   5.772  18.736  0.00  0.00    +0.000 A 
ATOM      4  C   UNL     1       3.003   6.885  18.009  0.00  0.00    +0.000 A 
ATOM      5  C   UNL     1       4.363   6.955  17.677  0.00  0.00    +0.000 A 
ATOM      6  C   UNL     1       5.258   5.926  18.002  0.00  0.00    +0.000 A 
ATOM      7  C   UNL     1       4.760   4.851  18.763  0.00  0.00    +0.000 A 
BRANCH   2   9
ATOM      8  C   UNL     1       4.092   2.530  20.067  0.00  0.00    +0.000 C 
ATOM      9  C   UNL     1       2.895   3.481  19.870  0.00  0.00    +0.000 C 
ATOM     10  C   UNL     1       1.797   2.737  19.077  0.00  0.00    +0.000 C 
ATOM     11  C   UNL     1       2.287   3.792  21.261  0.00  0.00    +0.000 C 
ENDBRANCH   2   9
BRANCH   6  12
ATOM     12  C   UNL     1       6.721   5.961  17.517  0.00  0.00    +0.000 C 
ATOM     13  C   UNL     1       7.586   5.127  18.477  0.00  0.00    +0.000 C 
ATOM     14  C   UNL     1       6.871   5.392  16.084  0.00  0.00    +0.000 C 
ATOM     15  C   UNL     1       7.289   7.399  17.464  0.00  0.00    +0.000 C 
ENDBRANCH   6  12
ENDBRANCH   1   4
BRANCH   1  16
ATOM     16  N   UNL     1       1.794   9.058  18.276  0.00  0.00    +0.000 N 
ATOM     17  C   UNL     1       1.206   9.121  19.505  0.00  0.00    +0.000 A 
ATOM     18  C   UNL     1       1.085  10.473  19.754  0.00  0.00    +0.000 A 
ATOM     19  N   UNL     1       1.610  11.167  18.696  0.00  0.00    +0.000 NA
ATOM     20  N   UNL     1       2.028  10.291  17.790  0.00  0.00    +0.000 NA
BRANCH  18  21
ATOM     21  C   UNL     1       0.476  11.185  20.911  0.00  0.00    +0.000 C 
BRANCH  21  22
ATOM     22  C   UNL     1      -0.412  12.344  20.465  0.00  0.00    +0.000 C 
BRANCH  22  23
ATOM     23  N   UNL     1      -1.578  11.906  19.717  0.00  0.00    +0.000 N 
ATOM     24  C   UNL     1      -1.757  12.234  18.419  0.00  0.00    +0.000 C 
ATOM     25  N   UNL     1      -0.948  12.840  17.629  0.00  0.00    +0.000 NA
ATOM     26  N   UNL     1      -2.950  11.829  17.954  0.00  0.00    +0.000 N 
ATOM     27  H   UNL     1      -2.450  11.948  20.239  0.00  0.00    +0.000 HD
ATOM     28  H   UNL     1      -0.089  13.079  18.118  0.00  0.00    +0.000 HD
ATOM     29  H   UNL     1      -3.152  10.870  18.202  0.00  0.00    +0.000 HD
ATOM     30  H   UNL     1      -2.958  11.941  16.942  0.00  0.00    +0.000 HD
ENDBRANCH  22  23
ENDBRANCH  21  22
ENDBRANCH  18  21
ENDBRANCH   1  16
TORSDOF 7
ENDMDL
MODEL 8
REMARK VINA RESULT:      -8.1      1.884      2.370
REMARK  Name = 
REMARK  13 active torsions:
REMARK  status: ('A' for Active; 'I' for Inactive)
REMARK    1  A    between atoms: C_1  and  C_2
REMARK    2  A    between atoms: C_2  and  C_3
REMARK    3  A    between atoms: C_2  and  C_4
REMARK    4  A    between atoms: C_2  and  C_5
REMARK    5  A    between atoms: C_7  and  C_8
REMARK    6  A    between atoms: C_8  and  N_9
REMARK    7  A    between atoms: C_11  and  C_12
REMARK    8  A    between atoms: C_12  and  C_13
REMARK    9  A    between atoms: C_13  and  N_14
REMARK   10  A    between atoms: C_21  and  C_22
REMARK   11  A    between atoms: C_22  and  C_23
REMARK   12  A    between atoms: C_22  and  C_24
REMARK   13  A    between atoms: C_22  and  C_25
REMARK                            x       y       z     vdW  Elec       q    Type
REMARK                         _______ _______ _______ _____ _____    ______ ____
ROOT
ATOM      1  C   UNL     1       2.404   8.381  17.855  0.00  0.00    +0.000 C 
ENDROOT
BRANCH   1   4
ATOM      2  C   UNL     1       5.243   5.822  18.061  0.00  0.00    +0.000 A 
ATOM      3  C   UNL     1       4.512   6.999  17.817  0.00  0.00    +0.000 A 
ATOM      4  C   UNL     1       3.115   7.050  17.972  0.00  0.00    +0.000 A 
ATOM      5  C   UNL     1       2.442   5.897  18.397  0.00  0.00    +0.000 A 
ATOM      6  C   UNL     1       3.128   4.717  18.718  0.00  0.00    +0.000 A 
ATOM      7  C   UNL     1       4.521   4.699  18.511  0.00  0.00    +0.000 A 
BRANCH   2   9
ATOM      8  C   UNL     1       7.332   5.606  19.403  0.00  0.00    +0.000 C 
ATOM      9  C   UNL     1       6.783   5.782  17.973  0.00  0.00    +0.000 C 
ATOM     10  C   UNL     1       7.386   7.070  17.367  0.00  0.00    +0.000 C 
ATOM     11  C   UNL     1       7.305   4.611  17.104  0.00  0.00    +0.000 C 
ENDBRANCH   2   9
BRANCH   6  12
ATOM     12  C   UNL     1       2.386   3.500  19.306  0.00  0.00    +0.000 C 
ATOM     13  C   UNL     1       3.419   2.456  19.762  0.00  0.00    +0.000 C 
ATOM     14  C   UNL     1       1.498   3.889  20.513  0.00  0.00    +0.000 C 
ATOM     15  C   UNL     1       1.437   2.837  18.278  0.00  0.00    +0.000 C 
ENDBRANCH   6  12
ENDBRANCH   1   4
BRANCH   1  16
ATOM     16  N   UNL     1       1.716   8.812  19.062  0.00  0.00    +0.000 N 
ATOM     17  C   UNL     1       1.463   8.075  20.182  0.00  0.00    +0.000 A 
ATOM     18  C   UNL     1       0.629   8.876  20.934  0.00  0.00    +0.000 A 
ATOM     19  N   UNL     1       0.424  10.054  20.265  0.00  0.00    +0.000 NA
ATOM     20  N   UNL     1       1.081   9.999  19.114  0.00  0.00    +0.000 NA
BRANCH  18  21
ATOM     21  C   UNL     1      -0.034   8.612  22.242  0.00  0.00    +0.000 C 
BRANCH  21  22
ATOM     22  C   UNL     1       0.044   9.817  23.175  0.00  0.00    +0.000 C 
BRANCH  22  23
ATOM     23  N   UNL     1      -1.188  10.587  23.206  0.00  0.00    +0.000 N 
ATOM     24  C   UNL     1      -1.235  11.872  22.794  0.00  0.00    +0.000 C 
ATOM     25  N   UNL     1      -0.314  12.565  22.231  0.00  0.00    +0.000 NA
ATOM     26  N   UNL     1      -2.436  12.431  23.016  0.00  0.00    +0.000 N 
ATOM     27  H   UNL     1      -1.753  10.438  24.039  0.00  0.00    +0.000 HD
ATOM     28  H   UNL     1       0.531  12.011  22.125  0.00  0.00    +0.000 HD
ATOM     29  H   UNL     1      -3.197  11.837  22.711  0.00  0.00    +0.000 HD
ATOM     30  H   UNL     1      -2.472  13.325  22.531  0.00  0.00    +0.000 HD
ENDBRANCH  22  23
ENDBRANCH  21  22
ENDBRANCH  18  21
ENDBRANCH   1  16
TORSDOF 7
ENDMDL
MODEL 9
REMARK VINA RESULT:      -8.0      2.049      4.199
REMARK  Name = 
REMARK  13 active torsions:
REMARK  status: ('A' for Active; 'I' for Inactive)
REMARK    1  A    between atoms: C_1  and  C_2
REMARK    2  A    between atoms: C_2  and  C_3
REMARK    3  A    between atoms: C_2  and  C_4
REMARK    4  A    between atoms: C_2  and  C_5
REMARK    5  A    between atoms: C_7  and  C_8
REMARK    6  A    between atoms: C_8  and  N_9
REMARK    7  A    between atoms: C_11  and  C_12
REMARK    8  A    between atoms: C_12  and  C_13
REMARK    9  A    between atoms: C_13  and  N_14
REMARK   10  A    between atoms: C_21  and  C_22
REMARK   11  A    between atoms: C_22  and  C_23
REMARK   12  A    between atoms: C_22  and  C_24
REMARK   13  A    between atoms: C_22  and  C_25
REMARK                            x       y       z     vdW  Elec       q    Type
REMARK                         _______ _______ _______ _____ _____    ______ ____
ROOT
ATOM      1  C   UNL     1       1.878   7.947  17.960  0.00  0.00    +0.000 C 
ENDROOT
BRANCH   1   4
ATOM      2  C   UNL     1       3.103   4.385  18.639  0.00  0.00    +0.000 A 
ATOM      3  C   UNL     1       2.308   5.545  18.592  0.00  0.00    +0.000 A 
ATOM      4  C   UNL     1       2.819   6.776  18.144  0.00  0.00    +0.000 A 
ATOM      5  C   UNL     1       4.153   6.837  17.720  0.00  0.00    +0.000 A 
ATOM      6  C   UNL     1       4.970   5.698  17.682  0.00  0.00    +0.000 A 
ATOM      7  C   UNL     1       4.429   4.496  18.177  0.00  0.00    +0.000 A 
BRANCH   2   9
ATOM      8  C   UNL     1       1.096   2.915  18.481  0.00  0.00    +0.000 C 
ATOM      9  C   UNL     1       2.526   3.014  19.051  0.00  0.00    +0.000 C 
ATOM     10  C   UNL     1       2.462   2.822  20.583  0.00  0.00    +0.000 C 
ATOM     11  C   UNL     1       3.352   1.825  18.501  0.00  0.00    +0.000 C 
ENDBRANCH   2   9
BRANCH   6  12
ATOM     12  C   UNL     1       6.393   5.758  17.092  0.00  0.00    +0.000 C 
ATOM     13  C   UNL     1       6.981   7.157  17.345  0.00  0.00    +0.000 C 
ATOM     14  C   UNL     1       7.329   4.699  17.724  0.00  0.00    +0.000 C 
ATOM     15  C   UNL     1       6.410   5.485  15.569  0.00  0.00    +0.000 C 
ENDBRANCH   6  12
ENDBRANCH   1   4
BRANCH   1  16
ATOM     16  N   UNL     1       1.587   8.691  19.176  0.00  0.00    +0.000 N 
ATOM     17  C   UNL     1       1.537   8.211  20.452  0.00  0.00    +0.000 A 
ATOM     18  C   UNL     1       1.038   9.263  21.192  0.00  0.00    +0.000 A 
ATOM     19  N   UNL     1       0.823  10.329  20.357  0.00  0.00    +0.000 NA
ATOM     20  N   UNL     1       1.148   9.963  19.124  0.00  0.00    +0.000 NA
BRANCH  18  21
ATOM     21  C   UNL     1       0.706   9.346  22.641  0.00  0.00    +0.000 C 
BRANCH  21  22
ATOM     22  C   UNL     1      -0.674   9.956  22.877  0.00  0.00    +0.000 C 
BRANCH  22  23
ATOM     23  N   UNL     1      -0.684  11.401  22.729  0.00  0.00    +0.000 N 
ATOM     24  C   UNL     1      -1.788  12.135  22.986  0.00  0.00    +0.000 C 
ATOM     25  N   UNL     1      -2.907  11.750  23.482  0.00  0.00    +0.000 NA
ATOM     26  N   UNL     1      -1.618  13.430  22.675  0.00  0.00    +0.000 N 
ATOM     27  H   UNL     1      -0.189  11.742  21.908  0.00  0.00    +0.000 HD
ATOM     28  H   UNL     1      -2.885  10.752  23.670  0.00  0.00    +0.000 HD
ATOM     29  H   UNL     1      -0.746  13.799  23.031  0.00  0.00    +0.000 HD
ATOM     30  H   UNL     1      -2.404  13.959  23.050  0.00  0.00    +0.000 HD
ENDBRANCH  22  23
ENDBRANCH  21  22
ENDBRANCH  18  21
ENDBRANCH   1  16
TORSDOF 7
ENDMDL
