MODEL 1
REMARK VINA RESULT:      -7.1      0.000      0.000
REMARK  Name = 
REMARK  7 active torsions:
REMARK  status: ('A' for Active; 'I' for Inactive)
REMARK    1  A    between atoms: C_1  and  N_2
REMARK    2  A    between atoms: C_3  and  N_4
REMARK    3  A    between atoms: C_5  and  N_6
REMARK    4  A    between atoms: N_7  and  C_8
REMARK    5  A    between atoms: C_11  and  S_12
REMARK    6  A    between atoms: S_12  and  N_13
REMARK    7  A    between atoms: N_20  and  C_21
REMARK                            x       y       z     vdW  Elec       q    Type
REMARK                         _______ _______ _______ _____ _____    ______ ____
ROOT
ATOM      1  N   UNL     1       3.910   3.853  18.915  0.00  0.00    +0.000 NA
ATOM      2  N   UNL     1       2.923   4.456  19.405  0.00  0.00    +0.000 NA
ENDROOT
BRANCH   1   6
ATOM      3  C   UNL     1       7.815   6.629  18.169  0.00  0.00    +0.000 C 
ATOM      4  N   UNL     1       6.804   5.695  17.692  0.00  0.00    +0.000 N 
ATOM      5  C   UNL     1       5.955   5.034  18.571  0.00  0.00    +0.000 A 
ATOM      6  C   UNL     1       4.861   4.395  18.083  0.00  0.00    +0.000 A 
ATOM      7  C   UNL     1       4.781   4.128  16.618  0.00  0.00    +0.000 A 
ATOM      8  O   UNL     1       3.834   3.504  16.135  0.00  0.00    +0.000 OA
ATOM      9  N   UNL     1       5.858   4.549  15.863  0.00  0.00    +0.000 N 
ATOM     10  C   UNL     1       5.940   4.137  14.478  0.00  0.00    +0.000 C 
ATOM     11  C   UNL     1       6.803   5.451  16.318  0.00  0.00    +0.000 A 
ATOM     12  O   UNL     1       7.614   5.985  15.554  0.00  0.00    +0.000 OA
BRANCH   5  13
ATOM     13  N   UNL     1       6.217   5.012  19.932  0.00  0.00    +0.000 N 
ATOM     14  H   UNL     1       7.159   4.827  20.244  0.00  0.00    +0.000 HD
ATOM     15  H   UNL     1       5.693   5.683  20.490  0.00  0.00    +0.000 HD
ENDBRANCH   5  13
ENDBRANCH   1   6
BRANCH   2  16
ATOM     16  C   UNL     1       2.713   5.848  19.322  0.00  0.00    +0.000 A 
ATOM     17  C   UNL     1       2.719   6.427  18.038  0.00  0.00    +0.000 A 
ATOM     18  C   UNL     1       2.263   7.732  17.818  0.00  0.00    +0.000 A 
ATOM     19  C   UNL     1       1.790   8.473  18.899  0.00  0.00    +0.000 A 
ATOM     20  C   UNL     1       1.861   7.961  20.196  0.00  0.00    +0.000 A 
ATOM     21  C   UNL     1       2.299   6.646  20.399  0.00  0.00    +0.000 A 
BRANCH  19  22
ATOM     22  S   UNL     1       0.989  10.031  18.619  0.00  0.00    +0.000 S 
ATOM     23  O   UNL     1      -0.230   9.790  17.880  0.00  0.00    +0.000 OA
ATOM     24  O   UNL     1       1.033  10.804  19.837  0.00  0.00    +0.000 OA
BRANCH  22  25
ATOM     25  N   UNL     1       2.069  10.733  17.550  0.00  0.00    +0.000 NA
ATOM     26  H   UNL     1       2.517  11.580  17.895  0.00  0.00    +0.000 HD
ATOM     27  H   UNL     1       1.806  10.687  16.569  0.00  0.00    +0.000 HD
ENDBRANCH  22  25
ENDBRANCH  19  22
ENDBRANCH   2  16
TORSDOF 5
ENDMDL
MODEL 2
REMARK VINA RESULT:      -7.0      1.120      2.238
REMARK  Name = 
REMARK  7 active torsions:
REMARK  status: ('A' for Active; 'I' for Inactive)
REMARK    1  A    between atoms: C_1  and  N_2
REMARK    2  A    between atoms: C_3  and  N_4
REMARK    3  A    between atoms: C_5  and  N_6
REMARK    4  A    between atoms: N_7  and  C_8
REMARK    5  A    between atoms: C_11  and  S_12
REMARK    6  A    between atoms: S_12  and  N_13
REMARK    7  A    between atoms: N_20  and  C_21
REMARK                            x       y       z     vdW  Elec       q    Type
REMARK                         _______ _______ _______ _____ _____    ______ ____
ROOT
ATOM      1  N   UNL     1       3.919   3.777  19.061  0.00  0.00    +0.000 NA
ATOM      2  N   UNL     1       2.945   4.398  19.555  0.00  0.00    +0.000 NA
ENDROOT
BRANCH   1   6
ATOM      3  C   UNL     1       5.721   4.267  14.585  0.00  0.00    +0.000 C 
ATOM      4  N   UNL     1       5.721   4.600  16.004  0.00  0.00    +0.000 N 
ATOM      5  C   UNL     1       4.684   4.205  16.841  0.00  0.00    +0.000 A 
ATOM      6  C   UNL     1       4.849   4.289  18.186  0.00  0.00    +0.000 A 
ATOM      7  C   UNL     1       5.976   5.105  18.721  0.00  0.00    +0.000 A 
ATOM      8  O   UNL     1       6.133   5.256  19.934  0.00  0.00    +0.000 OA
ATOM      9  N   UNL     1       6.769   5.736  17.783  0.00  0.00    +0.000 N 
ATOM     10  C   UNL     1       7.743   6.705  18.235  0.00  0.00    +0.000 C 
ATOM     11  C   UNL     1       6.777   5.401  16.440  0.00  0.00    +0.000 A 
ATOM     12  O   UNL     1       7.652   5.812  15.672  0.00  0.00    +0.000 OA
BRANCH   5  13
ATOM     13  N   UNL     1       3.488   3.738  16.319  0.00  0.00    +0.000 N 
ATOM     14  H   UNL     1       3.273   2.754  16.397  0.00  0.00    +0.000 HD
ATOM     15  H   UNL     1       2.694   4.370  16.408  0.00  0.00    +0.000 HD
ENDBRANCH   5  13
ENDBRANCH   1   6
BRANCH   2  16
ATOM     16  C   UNL     1       2.735   5.787  19.431  0.00  0.00    +0.000 A 
ATOM     17  C   UNL     1       2.755   6.331  18.132  0.00  0.00    +0.000 A 
ATOM     18  C   UNL     1       2.301   7.629  17.871  0.00  0.00    +0.000 A 
ATOM     19  C   UNL     1       1.815   8.398  18.925  0.00  0.00    +0.000 A 
ATOM     20  C   UNL     1       1.871   7.922  20.237  0.00  0.00    +0.000 A 
ATOM     21  C   UNL     1       2.308   6.614  20.481  0.00  0.00    +0.000 A 
BRANCH  19  22
ATOM     22  S   UNL     1       1.016   9.948  18.594  0.00  0.00    +0.000 S 
ATOM     23  O   UNL     1      -0.184   9.686  17.831  0.00  0.00    +0.000 OA
ATOM     24  O   UNL     1       1.030  10.746  19.795  0.00  0.00    +0.000 OA
BRANCH  22  25
ATOM     25  N   UNL     1       2.119  10.630  17.535  0.00  0.00    +0.000 NA
ATOM     26  H   UNL     1       2.536  11.500  17.860  0.00  0.00    +0.000 HD
ATOM     27  H   UNL     1       1.892  10.539  16.548  0.00  0.00    +0.000 HD
ENDBRANCH  22  25
ENDBRANCH  19  22
ENDBRANCH   2  16
TORSDOF 5
ENDMDL
MODEL 3
REMARK VINA RESULT:      -6.8      3.455      6.726
REMARK  Name = 
REMARK  7 active torsions:
REMARK  status: ('A' for Active; 'I' for Inactive)
REMARK    1  A    between atoms: C_1  and  N_2
REMARK    2  A    between atoms: C_3  and  N_4
REMARK    3  A    between atoms: C_5  and  N_6
REMARK    4  A    between atoms: N_7  and  C_8
REMARK    5  A    between atoms: C_11  and  S_12
REMARK    6  A    between atoms: S_12  and  N_13
REMARK    7  A    between atoms: N_20  and  C_21
REMARK                            x       y       z     vdW  Elec       q    Type
REMARK                         _______ _______ _______ _____ _____    ______ ____
ROOT
ATOM      1  N   UNL     1       6.543   4.382  18.913  0.00  0.00    +0.000 NA
ATOM      2  N   UNL     1       7.240   4.465  17.872  0.00  0.00    +0.000 NA
ENDROOT
BRANCH   1   6
ATOM      3  C   UNL     1       2.299   2.094  19.435  0.00  0.00    +0.000 C 
ATOM      4  N   UNL     1       3.081   3.316  19.285  0.00  0.00    +0.000 N 
ATOM      5  C   UNL     1       4.466   3.307  19.388  0.00  0.00    +0.000 A 
ATOM      6  C   UNL     1       5.169   4.392  18.973  0.00  0.00    +0.000 A 
ATOM      7  C   UNL     1       4.441   5.673  18.743  0.00  0.00    +0.000 A 
ATOM      8  O   UNL     1       5.043   6.698  18.419  0.00  0.00    +0.000 OA
ATOM      9  N   UNL     1       3.083   5.653  18.991  0.00  0.00    +0.000 N 
ATOM     10  C   UNL     1       2.358   6.906  18.991  0.00  0.00    +0.000 C 
ATOM     11  C   UNL     1       2.345   4.489  19.115  0.00  0.00    +0.000 A 
ATOM     12  O   UNL     1       1.110   4.496  19.103  0.00  0.00    +0.000 OA
BRANCH   5  13
ATOM     13  N   UNL     1       5.133   2.212  19.916  0.00  0.00    +0.000 N 
ATOM     14  H   UNL     1       6.143   2.218  19.933  0.00  0.00    +0.000 HD
ATOM     15  H   UNL     1       4.682   1.766  20.712  0.00  0.00    +0.000 HD
ENDBRANCH   5  13
ENDBRANCH   1   6
BRANCH   2  16
ATOM     16  C   UNL     1       6.728   4.408  16.559  0.00  0.00    +0.000 A 
ATOM     17  C   UNL     1       7.362   5.202  15.583  0.00  0.00    +0.000 A 
ATOM     18  C   UNL     1       7.114   5.026  14.217  0.00  0.00    +0.000 A 
ATOM     19  C   UNL     1       6.219   4.037  13.815  0.00  0.00    +0.000 A 
ATOM     20  C   UNL     1       5.505   3.299  14.762  0.00  0.00    +0.000 A 
ATOM     21  C   UNL     1       5.778   3.470  16.125  0.00  0.00    +0.000 A 
BRANCH  19  22
ATOM     22  S   UNL     1       6.064   3.630  12.095  0.00  0.00    +0.000 S 
ATOM     23  O   UNL     1       4.669   3.726  11.729  0.00  0.00    +0.000 OA
ATOM     24  O   UNL     1       7.120   4.286  11.364  0.00  0.00    +0.000 OA
BRANCH  22  25
ATOM     25  N   UNL     1       6.438   1.998  12.142  0.00  0.00    +0.000 NA
ATOM     26  H   UNL     1       6.263   1.498  11.273  0.00  0.00    +0.000 HD
ATOM     27  H   UNL     1       6.236   1.529  13.022  0.00  0.00    +0.000 HD
ENDBRANCH  22  25
ENDBRANCH  19  22
ENDBRANCH   2  16
TORSDOF 5
ENDMDL
MODEL 4
REMARK VINA RESULT:      -6.6      1.788      1.938
REMARK  Name = 
REMARK  7 active torsions:
REMARK  status: ('A' for Active; 'I' for Inactive)
REMARK    1  A    between atoms: C_1  and  N_2
REMARK    2  A    between atoms: C_3  and  N_4
REMARK    3  A    between atoms: C_5  and  N_6
REMARK    4  A    between atoms: N_7  and  C_8
REMARK    5  A    between atoms: C_11  and  S_12
REMARK    6  A    between atoms: S_12  and  N_13
REMARK    7  A    between atoms: N_20  and  C_21
REMARK                            x       y       z     vdW  Elec       q    Type
REMARK                         _______ _______ _______ _____ _____    ______ ____
ROOT
ATOM      1  N   UNL     1       3.570   3.230  17.545  0.00  0.00    +0.000 NA
ATOM      2  N   UNL     1       2.519   3.581  18.136  0.00  0.00    +0.000 NA
ENDROOT
BRANCH   1   6
ATOM      3  C   UNL     1       7.365   5.574  19.449  0.00  0.00    +0.000 C 
ATOM      4  N   UNL     1       6.612   5.086  18.300  0.00  0.00    +0.000 N 
ATOM      5  C   UNL     1       5.556   4.196  18.451  0.00  0.00    +0.000 A 
ATOM      6  C   UNL     1       4.713   3.983  17.408  0.00  0.00    +0.000 A 
ATOM      7  C   UNL     1       5.128   4.432  16.048  0.00  0.00    +0.000 A 
ATOM      8  O   UNL     1       4.422   4.213  15.062  0.00  0.00    +0.000 OA
ATOM      9  N   UNL     1       6.370   5.028  15.957  0.00  0.00    +0.000 N 
ATOM     10  C   UNL     1       6.919   5.295  14.645  0.00  0.00    +0.000 C 
ATOM     11  C   UNL     1       7.071   5.505  17.051  0.00  0.00    +0.000 A 
ATOM     12  O   UNL     1       8.060   6.234  16.924  0.00  0.00    +0.000 OA
BRANCH   5  13
ATOM     13  N   UNL     1       5.360   3.520  19.646  0.00  0.00    +0.000 N 
ATOM     14  H   UNL     1       6.156   3.345  20.242  0.00  0.00    +0.000 HD
ATOM     15  H   UNL     1       4.485   3.722  20.125  0.00  0.00    +0.000 HD
ENDBRANCH   5  13
ENDBRANCH   1   6
BRANCH   2  16
ATOM     16  C   UNL     1       2.389   4.750  18.915  0.00  0.00    +0.000 A 
ATOM     17  C   UNL     1       2.456   5.985  18.243  0.00  0.00    +0.000 A 
ATOM     18  C   UNL     1       2.079   7.181  18.864  0.00  0.00    +0.000 A 
ATOM     19  C   UNL     1       1.624   7.145  20.179  0.00  0.00    +0.000 A 
ATOM     20  C   UNL     1       1.636   5.950  20.902  0.00  0.00    +0.000 A 
ATOM     21  C   UNL     1       1.996   4.756  20.262  0.00  0.00    +0.000 A 
BRANCH  19  22
ATOM     22  S   UNL     1       0.917   8.599  20.912  0.00  0.00    +0.000 S 
ATOM     23  O   UNL     1       1.133   9.711  20.014  0.00  0.00    +0.000 OA
ATOM     24  O   UNL     1      -0.375   8.265  21.458  0.00  0.00    +0.000 OA
BRANCH  22  25
ATOM     25  N   UNL     1       1.959   8.815  22.205  0.00  0.00    +0.000 NA
ATOM     26  H   UNL     1       2.695   9.500  22.047  0.00  0.00    +0.000 HD
ATOM     27  H   UNL     1       2.182   7.974  22.731  0.00  0.00    +0.000 HD
ENDBRANCH  22  25
ENDBRANCH  19  22
ENDBRANCH   2  16
TORSDOF 5
ENDMDL
MODEL 5
REMARK VINA RESULT:      -6.6      3.452      6.588
REMARK  Name = 
REMARK  7 active torsions:
REMARK  status: ('A' for Active; 'I' for Inactive)
REMARK    1  A    between atoms: C_1  and  N_2
REMARK    2  A    between atoms: C_3  and  N_4
REMARK    3  A    between atoms: C_5  and  N_6
REMARK    4  A    between atoms: N_7  and  C_8
REMARK    5  A    between atoms: C_11  and  S_12
REMARK    6  A    between atoms: S_12  and  N_13
REMARK    7  A    between atoms: N_20  and  C_21
REMARK                            x       y       z     vdW  Elec       q    Type
REMARK                         _______ _______ _______ _____ _____    ______ ____
ROOT
ATOM      1  N   UNL     1       6.586   4.500  18.998  0.00  0.00    +0.000 NA
ATOM      2  N   UNL     1       7.270   4.513  17.945  0.00  0.00    +0.000 NA
ENDROOT
BRANCH   1   6
ATOM      3  C   UNL     1       2.454   7.031  18.796  0.00  0.00    +0.000 C 
ATOM      4  N   UNL     1       3.172   5.769  18.923  0.00  0.00    +0.000 N 
ATOM      5  C   UNL     1       4.539   5.686  18.683  0.00  0.00    +0.000 A 
ATOM      6  C   UNL     1       5.214   4.575  19.075  0.00  0.00    +0.000 A 
ATOM      7  C   UNL     1       4.439   3.353  19.432  0.00  0.00    +0.000 A 
ATOM      8  O   UNL     1       5.009   2.305  19.740  0.00  0.00    +0.000 OA
ATOM      9  N   UNL     1       3.066   3.449  19.319  0.00  0.00    +0.000 N 
ATOM     10  C   UNL     1       2.272   2.246  19.446  0.00  0.00    +0.000 C 
ATOM     11  C   UNL     1       2.390   4.652  19.217  0.00  0.00    +0.000 A 
ATOM     12  O   UNL     1       1.164   4.724  19.351  0.00  0.00    +0.000 OA
BRANCH   5  13
ATOM     13  N   UNL     1       5.213   6.716  18.044  0.00  0.00    +0.000 N 
ATOM     14  H   UNL     1       5.618   7.452  18.602  0.00  0.00    +0.000 HD
ATOM     15  H   UNL     1       5.743   6.445  17.218  0.00  0.00    +0.000 HD
ENDBRANCH   5  13
ENDBRANCH   1   6
BRANCH   2  16
ATOM     16  C   UNL     1       6.737   4.434  16.642  0.00  0.00    +0.000 A 
ATOM     17  C   UNL     1       7.323   5.249  15.653  0.00  0.00    +0.000 A 
ATOM     18  C   UNL     1       7.057   5.059  14.293  0.00  0.00    +0.000 A 
ATOM     19  C   UNL     1       6.193   4.037  13.909  0.00  0.00    +0.000 A 
ATOM     20  C   UNL     1       5.523   3.276  14.870  0.00  0.00    +0.000 A 
ATOM     21  C   UNL     1       5.815   3.461  16.228  0.00  0.00    +0.000 A 
BRANCH  19  22
ATOM     22  S   UNL     1       6.022   3.620  12.193  0.00  0.00    +0.000 S 
ATOM     23  O   UNL     1       4.619   3.676  11.849  0.00  0.00    +0.000 OA
ATOM     24  O   UNL     1       7.047   4.303  11.442  0.00  0.00    +0.000 OA
BRANCH  22  25
ATOM     25  N   UNL     1       6.442   1.999  12.239  0.00  0.00    +0.000 NA
ATOM     26  H   UNL     1       7.102   1.753  12.974  0.00  0.00    +0.000 HD
ATOM     27  H   UNL     1       6.531   1.545  11.333  0.00  0.00    +0.000 HD
ENDBRANCH  22  25
ENDBRANCH  19  22
ENDBRANCH   2  16
TORSDOF 5
ENDMDL
MODEL 6
REMARK VINA RESULT:      -6.5      0.903      1.446
REMARK  Name = 
REMARK  7 active torsions:
REMARK  status: ('A' for Active; 'I' for Inactive)
REMARK    1  A    between atoms: C_1  and  N_2
REMARK    2  A    between atoms: C_3  and  N_4
REMARK    3  A    between atoms: C_5  and  N_6
REMARK    4  A    between atoms: N_7  and  C_8
REMARK    5  A    between atoms: C_11  and  S_12
REMARK    6  A    between atoms: S_12  and  N_13
REMARK    7  A    between atoms: N_20  and  C_21
REMARK                            x       y       z     vdW  Elec       q    Type
REMARK                         _______ _______ _______ _____ _____    ______ ____
ROOT
ATOM      1  N   UNL     1       4.587   3.850  19.391  0.00  0.00    +0.000 NA
ATOM      2  N   UNL     1       3.467   4.242  19.803  0.00  0.00    +0.000 NA
ENDROOT
BRANCH   1   6
ATOM      3  C   UNL     1       7.795   7.044  17.651  0.00  0.00    +0.000 C 
ATOM      4  N   UNL     1       6.911   5.898  17.475  0.00  0.00    +0.000 N 
ATOM      5  C   UNL     1       6.322   5.264  18.562  0.00  0.00    +0.000 A 
ATOM      6  C   UNL     1       5.303   4.392  18.349  0.00  0.00    +0.000 A 
ATOM      7  C   UNL     1       5.073   3.883  16.967  0.00  0.00    +0.000 A 
ATOM      8  O   UNL     1       4.195   3.049  16.734  0.00  0.00    +0.000 OA
ATOM      9  N   UNL     1       5.943   4.339  15.998  0.00  0.00    +0.000 N 
ATOM     10  C   UNL     1       5.907   3.727  14.687  0.00  0.00    +0.000 C 
ATOM     11  C   UNL     1       6.766   5.439  16.166  0.00  0.00    +0.000 A 
ATOM     12  O   UNL     1       7.357   5.962  15.216  0.00  0.00    +0.000 OA
BRANCH   5  13
ATOM     13  N   UNL     1       6.768   5.504  19.853  0.00  0.00    +0.000 N 
ATOM     14  H   UNL     1       7.116   4.730  20.400  0.00  0.00    +0.000 HD
ATOM     15  H   UNL     1       7.244   6.393  19.994  0.00  0.00    +0.000 HD
ENDBRANCH   5  13
ENDBRANCH   1   6
BRANCH   2  16
ATOM     16  C   UNL     1       2.824   5.422  19.376  0.00  0.00    +0.000 A 
ATOM     17  C   UNL     1       2.178   6.198  20.357  0.00  0.00    +0.000 A 
ATOM     18  C   UNL     1       1.744   7.502  20.096  0.00  0.00    +0.000 A 
ATOM     19  C   UNL     1       1.961   8.045  18.831  0.00  0.00    +0.000 A 
ATOM     20  C   UNL     1       2.512   7.268  17.810  0.00  0.00    +0.000 A 
ATOM     21  C   UNL     1       2.962   5.971  18.092  0.00  0.00    +0.000 A 
BRANCH  19  22
ATOM     22  S   UNL     1       1.641   9.766  18.541  0.00  0.00    +0.000 S 
ATOM     23  O   UNL     1       1.338  10.393  19.808  0.00  0.00    +0.000 OA
ATOM     24  O   UNL     1       2.631  10.276  17.624  0.00  0.00    +0.000 OA
BRANCH  22  25
ATOM     25  N   UNL     1       0.197   9.661  17.698  0.00  0.00    +0.000 NA
ATOM     26  H   UNL     1       0.265   9.190  16.799  0.00  0.00    +0.000 HD
ATOM     27  H   UNL     1      -0.416  10.468  17.780  0.00  0.00    +0.000 HD
ENDBRANCH  22  25
ENDBRANCH  19  22
ENDBRANCH   2  16
TORSDOF 5
ENDMDL
MODEL 7
REMARK VINA RESULT:      -6.4      1.388      2.650
REMARK  Name = 
REMARK  7 active torsions:
REMARK  status: ('A' for Active; 'I' for Inactive)
REMARK    1  A    between atoms: C_1  and  N_2
REMARK    2  A    between atoms: C_3  and  N_4
REMARK    3  A    between atoms: C_5  and  N_6
REMARK    4  A    between atoms: N_7  and  C_8
REMARK    5  A    between atoms: C_11  and  S_12
REMARK    6  A    between atoms: S_12  and  N_13
REMARK    7  A    between atoms: N_20  and  C_21
REMARK                            x       y       z     vdW  Elec       q    Type
REMARK                         _______ _______ _______ _____ _____    ______ ____
ROOT
ATOM      1  N   UNL     1       4.429   3.647  19.363  0.00  0.00    +0.000 NA
ATOM      2  N   UNL     1       3.304   4.040  19.760  0.00  0.00    +0.000 NA
ENDROOT
BRANCH   1   6
ATOM      3  C   UNL     1       5.730   4.039  14.708  0.00  0.00    +0.000 C 
ATOM      4  N   UNL     1       5.801   4.483  16.095  0.00  0.00    +0.000 N 
ATOM      5  C   UNL     1       4.918   4.004  17.055  0.00  0.00    +0.000 A 
ATOM      6  C   UNL     1       5.184   4.222  18.368  0.00  0.00    +0.000 A 
ATOM      7  C   UNL     1       6.208   5.242  18.732  0.00  0.00    +0.000 A 
ATOM      8  O   UNL     1       6.446   5.514  19.911  0.00  0.00    +0.000 OA
ATOM      9  N   UNL     1       6.805   5.908  17.680  0.00  0.00    +0.000 N 
ATOM     10  C   UNL     1       7.648   7.049  17.966  0.00  0.00    +0.000 C 
ATOM     11  C   UNL     1       6.749   5.469  16.368  0.00  0.00    +0.000 A 
ATOM     12  O   UNL     1       7.476   5.945  15.491  0.00  0.00    +0.000 OA
BRANCH   5  13
ATOM     13  N   UNL     1       3.771   3.318  16.687  0.00  0.00    +0.000 N 
ATOM     14  H   UNL     1       3.603   3.139  15.708  0.00  0.00    +0.000 HD
ATOM     15  H   UNL     1       3.477   2.582  17.326  0.00  0.00    +0.000 HD
ENDBRANCH   5  13
ENDBRANCH   1   6
BRANCH   2  16
ATOM     16  C   UNL     1       2.694   5.250  19.370  0.00  0.00    +0.000 A 
ATOM     17  C   UNL     1       2.243   6.106  20.392  0.00  0.00    +0.000 A 
ATOM     18  C   UNL     1       1.871   7.430  20.132  0.00  0.00    +0.000 A 
ATOM     19  C   UNL     1       1.953   7.911  18.828  0.00  0.00    +0.000 A 
ATOM     20  C   UNL     1       2.306   7.060  17.778  0.00  0.00    +0.000 A 
ATOM     21  C   UNL     1       2.697   5.743  18.055  0.00  0.00    +0.000 A 
BRANCH  19  22
ATOM     22  S   UNL     1       1.720   9.640  18.506  0.00  0.00    +0.000 S 
ATOM     23  O   UNL     1       1.461  10.306  19.762  0.00  0.00    +0.000 OA
ATOM     24  O   UNL     1       2.727  10.081  17.572  0.00  0.00    +0.000 OA
BRANCH  22  25
ATOM     25  N   UNL     1       0.266   9.594  17.677  0.00  0.00    +0.000 NA
ATOM     26  H   UNL     1      -0.528   9.966  18.193  0.00  0.00    +0.000 HD
ATOM     27  H   UNL     1       0.124   8.776  17.089  0.00  0.00    +0.000 HD
ENDBRANCH  22  25
ENDBRANCH  19  22
ENDBRANCH   2  16
TORSDOF 5
ENDMDL
MODEL 8
REMARK VINA RESULT:      -6.3      1.941      2.995
REMARK  Name = 
REMARK  7 active torsions:
REMARK  status: ('A' for Active; 'I' for Inactive)
REMARK    1  A    between atoms: C_1  and  N_2
REMARK    2  A    between atoms: C_3  and  N_4
REMARK    3  A    between atoms: C_5  and  N_6
REMARK    4  A    between atoms: N_7  and  C_8
REMARK    5  A    between atoms: C_11  and  S_12
REMARK    6  A    between atoms: S_12  and  N_13
REMARK    7  A    between atoms: N_20  and  C_21
REMARK                            x       y       z     vdW  Elec       q    Type
REMARK                         _______ _______ _______ _____ _____    ______ ____
ROOT
ATOM      1  N   UNL     1       4.979   3.169  19.463  0.00  0.00    +0.000 NA
ATOM      2  N   UNL     1       3.893   3.374  20.059  0.00  0.00    +0.000 NA
ENDROOT
BRANCH   1   6
ATOM      3  C   UNL     1       5.483   4.532  14.836  0.00  0.00    +0.000 C 
ATOM      4  N   UNL     1       5.764   4.707  16.256  0.00  0.00    +0.000 N 
ATOM      5  C   UNL     1       5.069   3.994  17.225  0.00  0.00    +0.000 A 
ATOM      6  C   UNL     1       5.539   3.974  18.499  0.00  0.00    +0.000 A 
ATOM      7  C   UNL     1       6.572   4.974  18.897  0.00  0.00    +0.000 A 
ATOM      8  O   UNL     1       6.989   5.031  20.055  0.00  0.00    +0.000 OA
ATOM      9  N   UNL     1       6.963   5.867  17.920  0.00  0.00    +0.000 N 
ATOM     10  C   UNL     1       7.799   6.987  18.295  0.00  0.00    +0.000 C 
ATOM     11  C   UNL     1       6.708   5.684  16.572  0.00  0.00    +0.000 A 
ATOM     12  O   UNL     1       7.263   6.368  15.706  0.00  0.00    +0.000 OA
BRANCH   5  13
ATOM     13  N   UNL     1       3.903   3.314  16.909  0.00  0.00    +0.000 N 
ATOM     14  H   UNL     1       3.961   2.340  16.651  0.00  0.00    +0.000 HD
ATOM     15  H   UNL     1       3.082   3.578  17.450  0.00  0.00    +0.000 HD
ENDBRANCH   5  13
ENDBRANCH   1   6
BRANCH   2  16
ATOM     16  C   UNL     1       3.139   4.563  19.966  0.00  0.00    +0.000 A 
ATOM     17  C   UNL     1       1.880   4.581  20.596  0.00  0.00    +0.000 A 
ATOM     18  C   UNL     1       1.173   5.773  20.792  0.00  0.00    +0.000 A 
ATOM     19  C   UNL     1       1.734   6.970  20.355  0.00  0.00    +0.000 A 
ATOM     20  C   UNL     1       2.935   6.973  19.642  0.00  0.00    +0.000 A 
ATOM     21  C   UNL     1       3.642   5.776  19.471  0.00  0.00    +0.000 A 
BRANCH  19  22
ATOM     22  S   UNL     1       0.980   8.514  20.799  0.00  0.00    +0.000 S 
ATOM     23  O   UNL     1       1.259   9.473  19.753  0.00  0.00    +0.000 OA
ATOM     24  O   UNL     1      -0.347   8.259  21.302  0.00  0.00    +0.000 OA
BRANCH  22  25
ATOM     25  N   UNL     1       1.931   8.942  22.110  0.00  0.00    +0.000 NA
ATOM     26  H   UNL     1       2.879   8.572  22.084  0.00  0.00    +0.000 HD
ATOM     27  H   UNL     1       1.449   8.983  23.004  0.00  0.00    +0.000 HD
ENDBRANCH  22  25
ENDBRANCH  19  22
ENDBRANCH   2  16
TORSDOF 5
ENDMDL
MODEL 9
REMARK VINA RESULT:      -6.2      7.356     10.533
REMARK  Name = 
REMARK  7 active torsions:
REMARK  status: ('A' for Active; 'I' for Inactive)
REMARK    1  A    between atoms: C_1  and  N_2
REMARK    2  A    between atoms: C_3  and  N_4
REMARK    3  A    between atoms: C_5  and  N_6
REMARK    4  A    between atoms: N_7  and  C_8
REMARK    5  A    between atoms: C_11  and  S_12
REMARK    6  A    between atoms: S_12  and  N_13
REMARK    7  A    between atoms: N_20  and  C_21
REMARK                            x       y       z     vdW  Elec       q    Type
REMARK                         _______ _______ _______ _____ _____    ______ ____
ROOT
ATOM      1  N   UNL     1      -0.499  13.392  23.191  0.00  0.00    +0.000 NA
ATOM      2  N   UNL     1      -1.484  13.865  23.810  0.00  0.00    +0.000 NA
ENDROOT
BRANCH   1   6
ATOM      3  C   UNL     1      -0.959  12.658  18.419  0.00  0.00    +0.000 C 
ATOM      4  N   UNL     1      -0.712  12.164  19.768  0.00  0.00    +0.000 N 
ATOM      5  C   UNL     1      -0.502  13.035  20.831  0.00  0.00    +0.000 A 
ATOM      6  C   UNL     1      -0.552  12.555  22.101  0.00  0.00    +0.000 A 
ATOM      7  C   UNL     1      -0.488  11.081  22.313  0.00  0.00    +0.000 A 
ATOM      8  O   UNL     1      -0.475  10.601  23.448  0.00  0.00    +0.000 OA
ATOM      9  N   UNL     1      -0.367  10.307  21.176  0.00  0.00    +0.000 N 
ATOM     10  C   UNL     1      -0.090   8.894  21.323  0.00  0.00    +0.000 C 
ATOM     11  C   UNL     1      -0.621  10.778  19.901  0.00  0.00    +0.000 A 
ATOM     12  O   UNL     1      -0.731  10.016  18.935  0.00  0.00    +0.000 OA
BRANCH   5  13
ATOM     13  N   UNL     1      -0.234  14.377  20.609  0.00  0.00    +0.000 N 
ATOM     14  H   UNL     1       0.727  14.681  20.563  0.00  0.00    +0.000 HD
ATOM     15  H   UNL     1      -0.877  14.854  19.981  0.00  0.00    +0.000 HD
ENDBRANCH   5  13
ENDBRANCH   1   6
BRANCH   2  16
ATOM     16  C   UNL     1      -2.824  13.756  23.386  0.00  0.00    +0.000 A 
ATOM     17  C   UNL     1      -3.626  12.787  24.019  0.00  0.00    +0.000 A 
ATOM     18  C   UNL     1      -5.018  12.772  23.869  0.00  0.00    +0.000 A 
ATOM     19  C   UNL     1      -5.622  13.743  23.075  0.00  0.00    +0.000 A 
ATOM     20  C   UNL     1      -4.847  14.658  22.359  0.00  0.00    +0.000 A 
ATOM     21  C   UNL     1      -3.456  14.676  22.535  0.00  0.00    +0.000 A 
BRANCH  19  22
ATOM     22  S   UNL     1      -7.390  13.897  23.056  0.00  0.00    +0.000 S 
ATOM     23  O   UNL     1      -7.749  15.099  23.774  0.00  0.00    +0.000 OA
ATOM     24  O   UNL     1      -7.870  13.596  21.730  0.00  0.00    +0.000 OA
BRANCH  22  25
ATOM     25  N   UNL     1      -7.810  12.607  24.038  0.00  0.00    +0.000 NA
ATOM     26  H   UNL     1      -8.009  12.857  25.005  0.00  0.00    +0.000 HD
ATOM     27  H   UNL     1      -7.316  11.738  23.852  0.00  0.00    +0.000 HD
ENDBRANCH  22  25
ENDBRANCH  19  22
ENDBRANCH   2  16
TORSDOF 5
ENDMDL
