MODEL 1
REMARK VINA RESULT:      -8.5      0.000      0.000
REMARK  Name = 
REMARK  6 active torsions:
REMARK  status: ('A' for Active; 'I' for Inactive)
REMARK    1  A    between atoms: C_1  and  C_2
REMARK    2  A    between atoms: C_2  and  O_3
REMARK    3  A    between atoms: O_3  and  C_4
REMARK    4  A    between atoms: C_9  and  N_10
REMARK    5  A    between atoms: N_10  and  S_11
REMARK    6  A    between atoms: S_11  and  C_14
REMARK                            x       y       z     vdW  Elec       q    Type
REMARK                         _______ _______ _______ _____ _____    ______ ____
ROOT
ATOM      1  C   UNL     1       2.788   4.158  18.990  0.00  0.00    +0.000 A 
ATOM      2  C   UNL     1       2.384   3.798  20.282  0.00  0.00    +0.000 A 
ATOM      3  C   UNL     1       1.903   4.780  21.193  0.00  0.00    +0.000 A 
ATOM      4  C   UNL     1       1.822   6.111  20.733  0.00  0.00    +0.000 A 
ATOM      5  N   UNL     1       1.368   7.311  21.290  0.00  0.00    +0.000 N 
ATOM      6  C   UNL     1       1.460   8.364  20.371  0.00  0.00    +0.000 A 
ATOM      7  C   UNL     1       2.079   7.793  19.238  0.00  0.00    +0.000 A 
ATOM      8  C   UNL     1       2.240   6.431  19.453  0.00  0.00    +0.000 A 
ATOM      9  C   UNL     1       2.709   5.466  18.579  0.00  0.00    +0.000 A 
ATOM     10  C   UNL     1       2.451   8.447  17.895  0.00  0.00    +0.000 C 
ATOM     11  C   UNL     1       1.884   9.764  18.152  0.00  0.00    +0.000 C 
ATOM     12  C   UNL     1       1.396  11.126  18.203  0.00  0.00    +0.000 C 
ATOM     13  C   UNL     1       0.774  11.094  19.672  0.00  0.00    +0.000 C 
ATOM     14  C   UNL     1       0.950   9.828  20.718  0.00  0.00    +0.000 C 
ATOM     15  H   UNL     1       0.991   7.394  22.224  0.00  0.00    +0.000 HD
ENDROOT
BRANCH   1  16
ATOM     16  S   UNL     1       3.395   3.059  17.745  0.00  0.00    +0.000 S 
ATOM     17  O   UNL     1       3.082   3.620  16.446  0.00  0.00    +0.000 OA
ATOM     18  O   UNL     1       2.967   1.717  18.098  0.00  0.00    +0.000 OA
BRANCH  16  19
ATOM     19  N   UNL     1       5.064   3.087  17.960  0.00  0.00    +0.000 N 
ATOM     20  H   UNL     1       5.416   2.344  18.544  0.00  0.00    +0.000 HD
BRANCH  19  26
ATOM     21  C   UNL     1       6.319   4.528  16.368  0.00  0.00    +0.000 A 
ATOM     22  C   UNL     1       7.072   5.704  16.161  0.00  0.00    +0.000 A 
ATOM     23  C   UNL     1       7.380   6.556  17.211  0.00  0.00    +0.000 A 
ATOM     24  C   UNL     1       6.976   6.229  18.500  0.00  0.00    +0.000 A 
ATOM     25  C   UNL     1       6.235   5.059  18.725  0.00  0.00    +0.000 A 
ATOM     26  C   UNL     1       5.884   4.212  17.665  0.00  0.00    +0.000 A 
BRANCH  21  27
ATOM     27  O   UNL     1       6.188   3.801  15.221  0.00  0.00    +0.000 OA
BRANCH  27  29
ATOM     28  C   UNL     1       5.968   3.553  12.799  0.00  0.00    +0.000 C 
ATOM     29  C   UNL     1       6.551   4.337  13.960  0.00  0.00    +0.000 C 
ENDBRANCH  27  29
ENDBRANCH  21  27
ENDBRANCH  19  26
ENDBRANCH  16  19
ENDBRANCH   1  16
TORSDOF 5
ENDMDL
MODEL 2
REMARK VINA RESULT:      -8.2      0.896      2.280
REMARK  Name = 
REMARK  6 active torsions:
REMARK  status: ('A' for Active; 'I' for Inactive)
REMARK    1  A    between atoms: C_1  and  C_2
REMARK    2  A    between atoms: C_2  and  O_3
REMARK    3  A    between atoms: O_3  and  C_4
REMARK    4  A    between atoms: C_9  and  N_10
REMARK    5  A    between atoms: N_10  and  S_11
REMARK    6  A    between atoms: S_11  and  C_14
REMARK                            x       y       z     vdW  Elec       q    Type
REMARK                         _______ _______ _______ _____ _____    ______ ____
ROOT
ATOM      1  C   UNL     1       2.832   4.037  18.962  0.00  0.00    +0.000 A 
ATOM      2  C   UNL     1       2.440   3.679  20.258  0.00  0.00    +0.000 A 
ATOM      3  C   UNL     1       1.971   4.662  21.173  0.00  0.00    +0.000 A 
ATOM      4  C   UNL     1       1.888   5.993  20.713  0.00  0.00    +0.000 A 
ATOM      5  N   UNL     1       1.443   7.194  21.275  0.00  0.00    +0.000 N 
ATOM      6  C   UNL     1       1.528   8.247  20.354  0.00  0.00    +0.000 A 
ATOM      7  C   UNL     1       2.134   7.674  19.216  0.00  0.00    +0.000 A 
ATOM      8  C   UNL     1       2.294   6.311  19.429  0.00  0.00    +0.000 A 
ATOM      9  C   UNL     1       2.752   5.345  18.551  0.00  0.00    +0.000 A 
ATOM     10  C   UNL     1       2.495   8.326  17.868  0.00  0.00    +0.000 C 
ATOM     11  C   UNL     1       1.933   9.645  18.130  0.00  0.00    +0.000 C 
ATOM     12  C   UNL     1       1.450  11.008  18.186  0.00  0.00    +0.000 C 
ATOM     13  C   UNL     1       0.842  10.978  19.660  0.00  0.00    +0.000 C 
ATOM     14  C   UNL     1       1.025   9.713  20.706  0.00  0.00    +0.000 C 
ATOM     15  H   UNL     1       1.075   7.279  22.212  0.00  0.00    +0.000 HD
ENDROOT
BRANCH   1  16
ATOM     16  S   UNL     1       3.424   2.936  17.712  0.00  0.00    +0.000 S 
ATOM     17  O   UNL     1       2.764   3.263  16.464  0.00  0.00    +0.000 OA
ATOM     18  O   UNL     1       3.369   1.589  18.252  0.00  0.00    +0.000 OA
BRANCH  16  19
ATOM     19  N   UNL     1       5.058   3.317  17.578  0.00  0.00    +0.000 N 
ATOM     20  H   UNL     1       5.561   3.281  18.451  0.00  0.00    +0.000 HD
BRANCH  19  26
ATOM     21  C   UNL     1       6.197   5.250  16.506  0.00  0.00    +0.000 A 
ATOM     22  C   UNL     1       6.806   5.787  15.350  0.00  0.00    +0.000 A 
ATOM     23  C   UNL     1       6.864   5.066  14.167  0.00  0.00    +0.000 A 
ATOM     24  C   UNL     1       6.278   3.809  14.101  0.00  0.00    +0.000 A 
ATOM     25  C   UNL     1       5.660   3.264  15.238  0.00  0.00    +0.000 A 
ATOM     26  C   UNL     1       5.631   3.967  16.450  0.00  0.00    +0.000 A 
BRANCH  21  27
ATOM     27  O   UNL     1       6.187   6.146  17.536  0.00  0.00    +0.000 OA
BRANCH  27  29
ATOM     28  C   UNL     1       7.930   5.702  19.191  0.00  0.00    +0.000 C 
ATOM     29  C   UNL     1       7.390   6.623  18.113  0.00  0.00    +0.000 C 
ENDBRANCH  27  29
ENDBRANCH  21  27
ENDBRANCH  19  26
ENDBRANCH  16  19
ENDBRANCH   1  16
TORSDOF 5
ENDMDL
MODEL 3
REMARK VINA RESULT:      -7.9      2.202      7.495
REMARK  Name = 
REMARK  6 active torsions:
REMARK  status: ('A' for Active; 'I' for Inactive)
REMARK    1  A    between atoms: C_1  and  C_2
REMARK    2  A    between atoms: C_2  and  O_3
REMARK    3  A    between atoms: O_3  and  C_4
REMARK    4  A    between atoms: C_9  and  N_10
REMARK    5  A    between atoms: N_10  and  S_11
REMARK    6  A    between atoms: S_11  and  C_14
REMARK                            x       y       z     vdW  Elec       q    Type
REMARK                         _______ _______ _______ _____ _____    ______ ____
ROOT
ATOM      1  C   UNL     1       4.524   5.070  18.570  0.00  0.00    +0.000 A 
ATOM      2  C   UNL     1       5.595   5.832  19.053  0.00  0.00    +0.000 A 
ATOM      3  C   UNL     1       6.735   6.081  18.240  0.00  0.00    +0.000 A 
ATOM      4  C   UNL     1       6.727   5.561  16.929  0.00  0.00    +0.000 A 
ATOM      5  N   UNL     1       7.607   5.632  15.844  0.00  0.00    +0.000 N 
ATOM      6  C   UNL     1       7.088   4.966  14.726  0.00  0.00    +0.000 A 
ATOM      7  C   UNL     1       5.883   4.393  15.182  0.00  0.00    +0.000 A 
ATOM      8  C   UNL     1       5.656   4.803  16.489  0.00  0.00    +0.000 A 
ATOM      9  C   UNL     1       4.554   4.566  17.292  0.00  0.00    +0.000 A 
ATOM     10  C   UNL     1       4.856   3.538  14.416  0.00  0.00    +0.000 C 
ATOM     11  C   UNL     1       5.483   3.607  13.102  0.00  0.00    +0.000 C 
ATOM     12  C   UNL     1       5.936   3.545  11.729  0.00  0.00    +0.000 C 
ATOM     13  C   UNL     1       7.262   4.417  11.883  0.00  0.00    +0.000 C 
ATOM     14  C   UNL     1       7.852   4.947  13.332  0.00  0.00    +0.000 C 
ATOM     15  H   UNL     1       8.486   6.131  15.860  0.00  0.00    +0.000 HD
ENDROOT
BRANCH   1  16
ATOM     16  S   UNL     1       3.040   4.683  19.449  0.00  0.00    +0.000 S 
ATOM     17  O   UNL     1       3.331   3.627  20.398  0.00  0.00    +0.000 OA
ATOM     18  O   UNL     1       1.978   4.531  18.471  0.00  0.00    +0.000 OA
BRANCH  16  19
ATOM     19  N   UNL     1       2.694   6.095  20.297  0.00  0.00    +0.000 N 
ATOM     20  H   UNL     1       2.626   5.968  21.295  0.00  0.00    +0.000 HD
BRANCH  19  26
ATOM     21  C   UNL     1       1.399   8.217  20.373  0.00  0.00    +0.000 A 
ATOM     22  C   UNL     1       1.009   9.402  19.710  0.00  0.00    +0.000 A 
ATOM     23  C   UNL     1       1.406   9.663  18.409  0.00  0.00    +0.000 A 
ATOM     24  C   UNL     1       2.170   8.726  17.724  0.00  0.00    +0.000 A 
ATOM     25  C   UNL     1       2.558   7.538  18.363  0.00  0.00    +0.000 A 
ATOM     26  C   UNL     1       2.196   7.282  19.692  0.00  0.00    +0.000 A 
BRANCH  21  27
ATOM     27  O   UNL     1       0.845   8.124  21.616  0.00  0.00    +0.000 OA
BRANCH  27  29
ATOM     28  C   UNL     1      -0.157   9.648  23.244  0.00  0.00    +0.000 C 
ATOM     29  C   UNL     1      -0.321   8.853  21.963  0.00  0.00    +0.000 C 
ENDBRANCH  27  29
ENDBRANCH  21  27
ENDBRANCH  19  26
ENDBRANCH  16  19
ENDBRANCH   1  16
TORSDOF 5
ENDMDL
MODEL 4
REMARK VINA RESULT:      -7.8      2.015      3.577
REMARK  Name = 
REMARK  6 active torsions:
REMARK  status: ('A' for Active; 'I' for Inactive)
REMARK    1  A    between atoms: C_1  and  C_2
REMARK    2  A    between atoms: C_2  and  O_3
REMARK    3  A    between atoms: O_3  and  C_4
REMARK    4  A    between atoms: C_9  and  N_10
REMARK    5  A    between atoms: N_10  and  S_11
REMARK    6  A    between atoms: S_11  and  C_14
REMARK                            x       y       z     vdW  Elec       q    Type
REMARK                         _______ _______ _______ _____ _____    ______ ____
ROOT
ATOM      1  C   UNL     1       2.652   6.421  19.062  0.00  0.00    +0.000 A 
ATOM      2  C   UNL     1       3.068   7.136  17.932  0.00  0.00    +0.000 A 
ATOM      3  C   UNL     1       2.647   8.479  17.725  0.00  0.00    +0.000 A 
ATOM      4  C   UNL     1       1.828   9.064  18.714  0.00  0.00    +0.000 A 
ATOM      5  N   UNL     1       1.271  10.334  18.894  0.00  0.00    +0.000 N 
ATOM      6  C   UNL     1       0.564  10.412  20.101  0.00  0.00    +0.000 A 
ATOM      7  C   UNL     1       0.623   9.105  20.631  0.00  0.00    +0.000 A 
ATOM      8  C   UNL     1       1.429   8.324  19.813  0.00  0.00    +0.000 A 
ATOM      9  C   UNL     1       1.844   7.017  19.999  0.00  0.00    +0.000 A 
ATOM     10  C   UNL     1       0.032   8.555  21.942  0.00  0.00    +0.000 C 
ATOM     11  C   UNL     1      -0.497   9.809  22.462  0.00  0.00    +0.000 C 
ATOM     12  C   UNL     1      -1.095  10.932  23.152  0.00  0.00    +0.000 C 
ATOM     13  C   UNL     1      -0.766  12.065  22.078  0.00  0.00    +0.000 C 
ATOM     14  C   UNL     1      -0.116  11.762  20.591  0.00  0.00    +0.000 C 
ATOM     15  H   UNL     1       1.395  11.104  18.250  0.00  0.00    +0.000 HD
ENDROOT
BRANCH   1  16
ATOM     16  S   UNL     1       3.095   4.758  19.464  0.00  0.00    +0.000 S 
ATOM     17  O   UNL     1       2.474   3.872  18.500  0.00  0.00    +0.000 OA
ATOM     18  O   UNL     1       2.877   4.578  20.888  0.00  0.00    +0.000 OA
BRANCH  16  19
ATOM     19  N   UNL     1       4.763   4.719  19.240  0.00  0.00    +0.000 N 
ATOM     20  H   UNL     1       5.292   5.051  20.032  0.00  0.00    +0.000 HD
BRANCH  19  26
ATOM     21  C   UNL     1       6.779   4.672  17.785  0.00  0.00    +0.000 A 
ATOM     22  C   UNL     1       7.318   4.449  16.498  0.00  0.00    +0.000 A 
ATOM     23  C   UNL     1       6.505   4.130  15.422  0.00  0.00    +0.000 A 
ATOM     24  C   UNL     1       5.128   4.067  15.599  0.00  0.00    +0.000 A 
ATOM     25  C   UNL     1       4.574   4.295  16.868  0.00  0.00    +0.000 A 
ATOM     26  C   UNL     1       5.390   4.578  17.971  0.00  0.00    +0.000 A 
BRANCH  21  27
ATOM     27  O   UNL     1       7.740   5.040  18.681  0.00  0.00    +0.000 OA
BRANCH  27  29
ATOM     28  C   UNL     1       7.650   7.314  17.790  0.00  0.00    +0.000 C 
ATOM     29  C   UNL     1       8.021   6.404  18.946  0.00  0.00    +0.000 C 
ENDBRANCH  27  29
ENDBRANCH  21  27
ENDBRANCH  19  26
ENDBRANCH  16  19
ENDBRANCH   1  16
TORSDOF 5
ENDMDL
MODEL 5
REMARK VINA RESULT:      -7.8      2.430      4.862
REMARK  Name = 
REMARK  6 active torsions:
REMARK  status: ('A' for Active; 'I' for Inactive)
REMARK    1  A    between atoms: C_1  and  C_2
REMARK    2  A    between atoms: C_2  and  O_3
REMARK    3  A    between atoms: O_3  and  C_4
REMARK    4  A    between atoms: C_9  and  N_10
REMARK    5  A    between atoms: N_10  and  S_11
REMARK    6  A    between atoms: S_11  and  C_14
REMARK                            x       y       z     vdW  Elec       q    Type
REMARK                         _______ _______ _______ _____ _____    ______ ____
ROOT
ATOM      1  C   UNL     1       4.691   5.804  17.999  0.00  0.00    +0.000 A 
ATOM      2  C   UNL     1       4.792   6.521  16.800  0.00  0.00    +0.000 A 
ATOM      3  C   UNL     1       3.935   7.627  16.540  0.00  0.00    +0.000 A 
ATOM      4  C   UNL     1       3.013   7.987  17.545  0.00  0.00    +0.000 A 
ATOM      5  N   UNL     1       2.070   9.011  17.684  0.00  0.00    +0.000 N 
ATOM      6  C   UNL     1       1.434   8.949  18.931  0.00  0.00    +0.000 A 
ATOM      7  C   UNL     1       1.951   7.783  19.535  0.00  0.00    +0.000 A 
ATOM      8  C   UNL     1       2.935   7.249  18.713  0.00  0.00    +0.000 A 
ATOM      9  C   UNL     1       3.772   6.174  18.951  0.00  0.00    +0.000 A 
ATOM     10  C   UNL     1       1.638   7.178  20.916  0.00  0.00    +0.000 C 
ATOM     11  C   UNL     1       0.743   8.224  21.393  0.00  0.00    +0.000 C 
ATOM     12  C   UNL     1      -0.165   9.138  22.052  0.00  0.00    +0.000 C 
ATOM     13  C   UNL     1      -0.284  10.224  20.889  0.00  0.00    +0.000 C 
ATOM     14  C   UNL     1       0.362  10.033  19.381  0.00  0.00    +0.000 C 
ATOM     15  H   UNL     1       1.900   9.722  16.987  0.00  0.00    +0.000 HD
ENDROOT
BRANCH   1  16
ATOM     16  S   UNL     1       5.684   4.421  18.472  0.00  0.00    +0.000 S 
ATOM     17  O   UNL     1       6.124   4.618  19.839  0.00  0.00    +0.000 OA
ATOM     18  O   UNL     1       6.644   4.187  17.408  0.00  0.00    +0.000 OA
BRANCH  16  19
ATOM     19  N   UNL     1       4.615   3.122  18.428  0.00  0.00    +0.000 N 
ATOM     20  H   UNL     1       4.622   2.614  17.557  0.00  0.00    +0.000 HD
BRANCH  19  26
ATOM     21  C   UNL     1       3.744   2.483  20.668  0.00  0.00    +0.000 A 
ATOM     22  C   UNL     1       2.634   2.398  21.538  0.00  0.00    +0.000 A 
ATOM     23  C   UNL     1       1.364   2.764  21.123  0.00  0.00    +0.000 A 
ATOM     24  C   UNL     1       1.166   3.186  19.814  0.00  0.00    +0.000 A 
ATOM     25  C   UNL     1       2.255   3.268  18.932  0.00  0.00    +0.000 A 
ATOM     26  C   UNL     1       3.551   2.938  19.354  0.00  0.00    +0.000 A 
BRANCH  21  27
ATOM     27  O   UNL     1       4.884   2.010  21.251  0.00  0.00    +0.000 OA
BRANCH  27  29
ATOM     28  C   UNL     1       6.138   0.103  22.125  0.00  0.00    +0.000 C 
ATOM     29  C   UNL     1       5.379   0.714  20.962  0.00  0.00    +0.000 C 
ENDBRANCH  27  29
ENDBRANCH  21  27
ENDBRANCH  19  26
ENDBRANCH  16  19
ENDBRANCH   1  16
TORSDOF 5
ENDMDL
MODEL 6
REMARK VINA RESULT:      -7.7      4.604      9.066
REMARK  Name = 
REMARK  6 active torsions:
REMARK  status: ('A' for Active; 'I' for Inactive)
REMARK    1  A    between atoms: C_1  and  C_2
REMARK    2  A    between atoms: C_2  and  O_3
REMARK    3  A    between atoms: O_3  and  C_4
REMARK    4  A    between atoms: C_9  and  N_10
REMARK    5  A    between atoms: N_10  and  S_11
REMARK    6  A    between atoms: S_11  and  C_14
REMARK                            x       y       z     vdW  Elec       q    Type
REMARK                         _______ _______ _______ _____ _____    ______ ____
ROOT
ATOM      1  C   UNL     1       1.395   9.298  19.424  0.00  0.00    +0.000 A 
ATOM      2  C   UNL     1       2.003   9.559  18.190  0.00  0.00    +0.000 A 
ATOM      3  C   UNL     1       2.769   8.558  17.531  0.00  0.00    +0.000 A 
ATOM      4  C   UNL     1       2.862   7.294  18.152  0.00  0.00    +0.000 A 
ATOM      5  N   UNL     1       3.458   6.078  17.805  0.00  0.00    +0.000 N 
ATOM      6  C   UNL     1       3.204   5.095  18.772  0.00  0.00    +0.000 A 
ATOM      7  C   UNL     1       2.498   5.773  19.789  0.00  0.00    +0.000 A 
ATOM      8  C   UNL     1       2.256   7.076  19.377  0.00  0.00    +0.000 A 
ATOM      9  C   UNL     1       1.517   8.061  20.008  0.00  0.00    +0.000 A 
ATOM     10  C   UNL     1       1.940   5.231  21.118  0.00  0.00    +0.000 C 
ATOM     11  C   UNL     1       2.291   3.830  20.923  0.00  0.00    +0.000 C 
ATOM     12  C   UNL     1       2.549   2.406  20.933  0.00  0.00    +0.000 C 
ATOM     13  C   UNL     1       3.286   2.295  19.522  0.00  0.00    +0.000 C 
ATOM     14  C   UNL     1       3.707   3.598  18.599  0.00  0.00    +0.000 C 
ATOM     15  H   UNL     1       3.974   5.923  16.950  0.00  0.00    +0.000 HD
ENDROOT
BRANCH   1  16
ATOM     16  S   UNL     1       0.408  10.429  20.358  0.00  0.00    +0.000 S 
ATOM     17  O   UNL     1       1.289  11.242  21.172  0.00  0.00    +0.000 OA
ATOM     18  O   UNL     1      -0.674   9.671  20.962  0.00  0.00    +0.000 OA
BRANCH  16  19
ATOM     19  N   UNL     1      -0.305  11.406  19.187  0.00  0.00    +0.000 N 
ATOM     20  H   UNL     1       0.091  12.331  19.129  0.00  0.00    +0.000 HD
BRANCH  19  26
ATOM     21  C   UNL     1      -2.754  11.754  18.940  0.00  0.00    +0.000 A 
ATOM     22  C   UNL     1      -3.937  11.459  18.225  0.00  0.00    +0.000 A 
ATOM     23  C   UNL     1      -3.932  10.569  17.163  0.00  0.00    +0.000 A 
ATOM     24  C   UNL     1      -2.754   9.920  16.817  0.00  0.00    +0.000 A 
ATOM     25  C   UNL     1      -1.571  10.194  17.523  0.00  0.00    +0.000 A 
ATOM     26  C   UNL     1      -1.556  11.123  18.572  0.00  0.00    +0.000 A 
BRANCH  21  27
ATOM     27  O   UNL     1      -2.991  12.598  19.986  0.00  0.00    +0.000 OA
BRANCH  27  29
ATOM     28  C   UNL     1      -4.348  13.013  21.977  0.00  0.00    +0.000 C 
ATOM     29  C   UNL     1      -4.304  12.824  20.472  0.00  0.00    +0.000 C 
ENDBRANCH  27  29
ENDBRANCH  21  27
ENDBRANCH  19  26
ENDBRANCH  16  19
ENDBRANCH   1  16
TORSDOF 5
ENDMDL
MODEL 7
REMARK VINA RESULT:      -7.7      1.930      3.090
REMARK  Name = 
REMARK  6 active torsions:
REMARK  status: ('A' for Active; 'I' for Inactive)
REMARK    1  A    between atoms: C_1  and  C_2
REMARK    2  A    between atoms: C_2  and  O_3
REMARK    3  A    between atoms: O_3  and  C_4
REMARK    4  A    between atoms: C_9  and  N_10
REMARK    5  A    between atoms: N_10  and  S_11
REMARK    6  A    between atoms: S_11  and  C_14
REMARK                            x       y       z     vdW  Elec       q    Type
REMARK                         _______ _______ _______ _____ _____    ______ ____
ROOT
ATOM      1  C   UNL     1       2.583   6.646  18.737  0.00  0.00    +0.000 A 
ATOM      2  C   UNL     1       2.987   7.461  17.672  0.00  0.00    +0.000 A 
ATOM      3  C   UNL     1       2.562   8.816  17.591  0.00  0.00    +0.000 A 
ATOM      4  C   UNL     1       1.751   9.308  18.636  0.00  0.00    +0.000 A 
ATOM      5  N   UNL     1       1.193  10.555  18.934  0.00  0.00    +0.000 N 
ATOM      6  C   UNL     1       0.497  10.521  20.150  0.00  0.00    +0.000 A 
ATOM      7  C   UNL     1       0.563   9.172  20.559  0.00  0.00    +0.000 A 
ATOM      8  C   UNL     1       1.363   8.470  19.667  0.00  0.00    +0.000 A 
ATOM      9  C   UNL     1       1.782   7.153  19.730  0.00  0.00    +0.000 A 
ATOM     10  C   UNL     1      -0.015   8.504  21.820  0.00  0.00    +0.000 C 
ATOM     11  C   UNL     1      -0.542   9.705  22.456  0.00  0.00    +0.000 C 
ATOM     12  C   UNL     1      -1.135  10.759  23.250  0.00  0.00    +0.000 C 
ATOM     13  C   UNL     1      -0.818  11.985  22.280  0.00  0.00    +0.000 C 
ATOM     14  C   UNL     1      -0.181  11.820  20.765  0.00  0.00    +0.000 C 
ATOM     15  H   UNL     1       1.310  11.379  18.362  0.00  0.00    +0.000 HD
ENDROOT
BRANCH   1  16
ATOM     16  S   UNL     1       3.033   4.954  18.983  0.00  0.00    +0.000 S 
ATOM     17  O   UNL     1       1.928   4.119  18.557  0.00  0.00    +0.000 OA
ATOM     18  O   UNL     1       3.581   4.837  20.322  0.00  0.00    +0.000 OA
BRANCH  16  19
ATOM     19  N   UNL     1       4.325   4.723  17.929  0.00  0.00    +0.000 N 
ATOM     20  H   UNL     1       4.228   3.917  17.330  0.00  0.00    +0.000 HD
BRANCH  19  26
ATOM     21  C   UNL     1       6.166   6.163  17.080  0.00  0.00    +0.000 A 
ATOM     22  C   UNL     1       7.396   6.807  17.341  0.00  0.00    +0.000 A 
ATOM     23  C   UNL     1       8.037   6.666  18.561  0.00  0.00    +0.000 A 
ATOM     24  C   UNL     1       7.485   5.844  19.536  0.00  0.00    +0.000 A 
ATOM     25  C   UNL     1       6.268   5.188  19.290  0.00  0.00    +0.000 A 
ATOM     26  C   UNL     1       5.591   5.356  18.075  0.00  0.00    +0.000 A 
BRANCH  21  27
ATOM     27  O   UNL     1       5.743   6.377  15.800  0.00  0.00    +0.000 OA
BRANCH  27  29
ATOM     28  C   UNL     1       6.789   4.746  14.309  0.00  0.00    +0.000 C 
ATOM     29  C   UNL     1       5.509   5.299  14.909  0.00  0.00    +0.000 C 
ENDBRANCH  27  29
ENDBRANCH  21  27
ENDBRANCH  19  26
ENDBRANCH  16  19
ENDBRANCH   1  16
TORSDOF 5
ENDMDL
MODEL 8
REMARK VINA RESULT:      -7.7      1.407      2.402
REMARK  Name = 
REMARK  6 active torsions:
REMARK  status: ('A' for Active; 'I' for Inactive)
REMARK    1  A    between atoms: C_1  and  C_2
REMARK    2  A    between atoms: C_2  and  O_3
REMARK    3  A    between atoms: O_3  and  C_4
REMARK    4  A    between atoms: C_9  and  N_10
REMARK    5  A    between atoms: N_10  and  S_11
REMARK    6  A    between atoms: S_11  and  C_14
REMARK                            x       y       z     vdW  Elec       q    Type
REMARK                         _______ _______ _______ _____ _____    ______ ____
ROOT
ATOM      1  C   UNL     1       3.294   5.386  18.575  0.00  0.00    +0.000 A 
ATOM      2  C   UNL     1       3.695   6.079  17.426  0.00  0.00    +0.000 A 
ATOM      3  C   UNL     1       3.305   7.431  17.219  0.00  0.00    +0.000 A 
ATOM      4  C   UNL     1       2.532   8.047  18.226  0.00  0.00    +0.000 A 
ATOM      5  N   UNL     1       2.015   9.334  18.410  0.00  0.00    +0.000 N 
ATOM      6  C   UNL     1       1.347   9.441  19.637  0.00  0.00    +0.000 A 
ATOM      7  C   UNL     1       1.386   8.137  20.177  0.00  0.00    +0.000 A 
ATOM      8  C   UNL     1       2.146   7.328  19.343  0.00  0.00    +0.000 A 
ATOM      9  C   UNL     1       2.530   6.012  19.529  0.00  0.00    +0.000 A 
ATOM     10  C   UNL     1       0.819   7.615  21.510  0.00  0.00    +0.000 C 
ATOM     11  C   UNL     1       0.340   8.888  22.034  0.00  0.00    +0.000 C 
ATOM     12  C   UNL     1      -0.206  10.033  22.731  0.00  0.00    +0.000 C 
ATOM     13  C   UNL     1       0.121  11.147  21.637  0.00  0.00    +0.000 C 
ATOM     14  C   UNL     1       0.718  10.813  20.134  0.00  0.00    +0.000 C 
ATOM     15  H   UNL     1       2.140  10.094  17.756  0.00  0.00    +0.000 HD
ENDROOT
BRANCH   1  16
ATOM     16  S   UNL     1       3.704   3.714  18.979  0.00  0.00    +0.000 S 
ATOM     17  O   UNL     1       3.294   2.863  17.880  0.00  0.00    +0.000 OA
ATOM     18  O   UNL     1       3.235   3.462  20.330  0.00  0.00    +0.000 OA
BRANCH  16  19
ATOM     19  N   UNL     1       5.385   3.720  19.063  0.00  0.00    +0.000 N 
ATOM     20  H   UNL     1       5.761   3.137  19.795  0.00  0.00    +0.000 HD
BRANCH  19  26
ATOM     21  C   UNL     1       6.378   4.766  17.038  0.00  0.00    +0.000 A 
ATOM     22  C   UNL     1       7.160   5.809  16.494  0.00  0.00    +0.000 A 
ATOM     23  C   UNL     1       7.752   6.763  17.306  0.00  0.00    +0.000 A 
ATOM     24  C   UNL     1       7.610   6.674  18.685  0.00  0.00    +0.000 A 
ATOM     25  C   UNL     1       6.844   5.638  19.243  0.00  0.00    +0.000 A 
ATOM     26  C   UNL     1       6.208   4.692  18.429  0.00  0.00    +0.000 A 
BRANCH  21  27
ATOM     27  O   UNL     1       5.948   3.899  16.075  0.00  0.00    +0.000 OA
BRANCH  27  29
ATOM     28  C   UNL     1       5.397   3.918  13.694  0.00  0.00    +0.000 C 
ATOM     29  C   UNL     1       6.477   3.932  14.760  0.00  0.00    +0.000 C 
ENDBRANCH  27  29
ENDBRANCH  21  27
ENDBRANCH  19  26
ENDBRANCH  16  19
ENDBRANCH   1  16
TORSDOF 5
ENDMDL
MODEL 9
REMARK VINA RESULT:      -7.7      2.199      3.892
REMARK  Name = 
REMARK  6 active torsions:
REMARK  status: ('A' for Active; 'I' for Inactive)
REMARK    1  A    between atoms: C_1  and  C_2
REMARK    2  A    between atoms: C_2  and  O_3
REMARK    3  A    between atoms: O_3  and  C_4
REMARK    4  A    between atoms: C_9  and  N_10
REMARK    5  A    between atoms: N_10  and  S_11
REMARK    6  A    between atoms: S_11  and  C_14
REMARK                            x       y       z     vdW  Elec       q    Type
REMARK                         _______ _______ _______ _____ _____    ______ ____
ROOT
ATOM      1  C   UNL     1       2.463   7.219  18.824  0.00  0.00    +0.000 A 
ATOM      2  C   UNL     1       2.805   8.044  17.746  0.00  0.00    +0.000 A 
ATOM      3  C   UNL     1       2.307   9.374  17.662  0.00  0.00    +0.000 A 
ATOM      4  C   UNL     1       1.489   9.831  18.716  0.00  0.00    +0.000 A 
ATOM      5  N   UNL     1       0.870  11.049  19.015  0.00  0.00    +0.000 N 
ATOM      6  C   UNL     1       0.198  10.989  20.242  0.00  0.00    +0.000 A 
ATOM      7  C   UNL     1       0.343   9.649  20.661  0.00  0.00    +0.000 A 
ATOM      8  C   UNL     1       1.164   8.983  19.761  0.00  0.00    +0.000 A 
ATOM      9  C   UNL     1       1.653   7.691  19.827  0.00  0.00    +0.000 A 
ATOM     10  C   UNL     1      -0.178   8.963  21.937  0.00  0.00    +0.000 C 
ATOM     11  C   UNL     1      -0.757  10.139  22.573  0.00  0.00    +0.000 C 
ATOM     12  C   UNL     1      -1.393  11.168  23.368  0.00  0.00    +0.000 C 
ATOM     13  C   UNL     1      -1.158  12.400  22.383  0.00  0.00    +0.000 C 
ATOM     14  C   UNL     1      -0.538  12.255  20.859  0.00  0.00    +0.000 C 
ATOM     15  H   UNL     1       0.933  11.874  18.434  0.00  0.00    +0.000 HD
ENDROOT
BRANCH   1  16
ATOM     16  S   UNL     1       3.007   5.555  19.076  0.00  0.00    +0.000 S 
ATOM     17  O   UNL     1       2.353   4.707  18.100  0.00  0.00    +0.000 OA
ATOM     18  O   UNL     1       2.905   5.271  20.496  0.00  0.00    +0.000 OA
BRANCH  16  19
ATOM     19  N   UNL     1       4.653   5.612  18.729  0.00  0.00    +0.000 N 
ATOM     20  H   UNL     1       5.189   6.173  19.373  0.00  0.00    +0.000 HD
BRANCH  19  26
ATOM     21  C   UNL     1       6.060   6.051  16.726  0.00  0.00    +0.000 A 
ATOM     22  C   UNL     1       6.627   5.552  15.532  0.00  0.00    +0.000 A 
ATOM     23  C   UNL     1       6.374   4.259  15.101  0.00  0.00    +0.000 A 
ATOM     24  C   UNL     1       5.515   3.448  15.832  0.00  0.00    +0.000 A 
ATOM     25  C   UNL     1       4.935   3.931  17.015  0.00  0.00    +0.000 A 
ATOM     26  C   UNL     1       5.215   5.222  17.482  0.00  0.00    +0.000 A 
BRANCH  21  27
ATOM     27  O   UNL     1       6.379   7.362  16.930  0.00  0.00    +0.000 OA
BRANCH  27  29
ATOM     28  C   UNL     1       8.049   6.742  18.604  0.00  0.00    +0.000 C 
ATOM     29  C   UNL     1       7.595   7.739  17.553  0.00  0.00    +0.000 C 
ENDBRANCH  27  29
ENDBRANCH  21  27
ENDBRANCH  19  26
ENDBRANCH  16  19
ENDBRANCH   1  16
TORSDOF 5
ENDMDL
