MODEL 1
REMARK VINA RESULT:      -7.3      0.000      0.000
REMARK  Name = 
REMARK  5 active torsions:
REMARK  status: ('A' for Active; 'I' for Inactive)
REMARK    1  A    between atoms: C_1  and  O_2
REMARK    2  A    between atoms: O_2  and  C_3
REMARK    3  A    between atoms: C_6  and  C_7
REMARK    4  A    between atoms: C_10  and  C_11
REMARK    5  A    between atoms: C_11  and  O_13
REMARK                            x       y       z     vdW  Elec       q    Type
REMARK                         _______ _______ _______ _____ _____    ______ ____
ROOT
ATOM      1  C   UNL     1       4.536   4.042  17.969  0.00  0.00    +0.000 A 
ATOM      2  N   UNL     1       3.371   4.585  18.118  0.00  0.00    +0.000 NA
ATOM      3  C   UNL     1       2.609   4.167  19.186  0.00  0.00    +0.000 A 
ATOM      4  C   UNL     1       2.978   3.257  20.100  0.00  0.00    +0.000 A 
ATOM      5  C   UNL     1       4.321   2.685  19.934  0.00  0.00    +0.000 A 
ATOM      6  O   UNL     1       4.766   1.863  20.733  0.00  0.00    +0.000 OA
ATOM      7  N   UNL     1       5.030   3.112  18.855  0.00  0.00    +0.000 N 
ATOM      8  H   UNL     1       5.964   2.742  18.767  0.00  0.00    +0.000 HD
ENDROOT
BRANCH   1  12
ATOM      9  C   UNL     1       7.091   5.075  14.682  0.00  0.00    +0.000 A 
ATOM     10  C   UNL     1       7.453   5.402  15.991  0.00  0.00    +0.000 A 
ATOM     11  C   UNL     1       6.625   5.060  17.065  0.00  0.00    +0.000 A 
ATOM     12  C   UNL     1       5.419   4.395  16.828  0.00  0.00    +0.000 A 
ATOM     13  C   UNL     1       5.041   4.095  15.512  0.00  0.00    +0.000 A 
ATOM     14  C   UNL     1       5.876   4.432  14.445  0.00  0.00    +0.000 A 
BRANCH   9  16
ATOM     15  C   UNL     1       7.653   5.048  12.389  0.00  0.00    +0.000 C 
ATOM     16  O   UNL     1       7.970   5.469  13.712  0.00  0.00    +0.000 OA
ENDBRANCH   9  16
ENDBRANCH   1  12
BRANCH   4  17
ATOM     17  C   UNL     1       2.064   2.879  21.191  0.00  0.00    +0.000 C 
ATOM     18  O   UNL     1       2.432   2.688  22.342  0.00  0.00    +0.000 OA
BRANCH  17  19
ATOM     19  O   UNL     1       0.767   2.761  20.827  0.00  0.00    +0.000 OA
ATOM     20  H   UNL     1       0.371   1.869  20.981  0.00  0.00    +0.000 HD
ENDBRANCH  17  19
ENDBRANCH   4  17
TORSDOF 4
ENDMDL
MODEL 2
REMARK VINA RESULT:      -7.2      0.865      1.578
REMARK  Name = 
REMARK  5 active torsions:
REMARK  status: ('A' for Active; 'I' for Inactive)
REMARK    1  A    between atoms: C_1  and  O_2
REMARK    2  A    between atoms: O_2  and  C_3
REMARK    3  A    between atoms: C_6  and  C_7
REMARK    4  A    between atoms: C_10  and  C_11
REMARK    5  A    between atoms: C_11  and  O_13
REMARK                            x       y       z     vdW  Elec       q    Type
REMARK                         _______ _______ _______ _____ _____    ______ ____
ROOT
ATOM      1  C   UNL     1       4.451   3.800  17.889  0.00  0.00    +0.000 A 
ATOM      2  N   UNL     1       4.878   3.550  19.085  0.00  0.00    +0.000 NA
ATOM      3  C   UNL     1       3.942   3.206  20.034  0.00  0.00    +0.000 A 
ATOM      4  C   UNL     1       2.623   3.086  19.821  0.00  0.00    +0.000 A 
ATOM      5  C   UNL     1       2.167   3.333  18.448  0.00  0.00    +0.000 A 
ATOM      6  O   UNL     1       0.981   3.223  18.141  0.00  0.00    +0.000 OA
ATOM      7  N   UNL     1       3.122   3.689  17.548  0.00  0.00    +0.000 N 
ATOM      8  H   UNL     1       2.807   3.822  16.600  0.00  0.00    +0.000 HD
ENDROOT
BRANCH   1  12
ATOM      9  C   UNL     1       7.123   5.019  14.763  0.00  0.00    +0.000 A 
ATOM     10  C   UNL     1       7.438   5.266  16.102  0.00  0.00    +0.000 A 
ATOM     11  C   UNL     1       6.571   4.864  17.123  0.00  0.00    +0.000 A 
ATOM     12  C   UNL     1       5.374   4.217  16.803  0.00  0.00    +0.000 A 
ATOM     13  C   UNL     1       5.044   3.998  15.459  0.00  0.00    +0.000 A 
ATOM     14  C   UNL     1       5.917   4.396  14.445  0.00  0.00    +0.000 A 
BRANCH   9  16
ATOM     15  C   UNL     1       7.741   5.171  12.489  0.00  0.00    +0.000 C 
ATOM     16  O   UNL     1       8.037   5.468  13.850  0.00  0.00    +0.000 OA
ENDBRANCH   9  16
ENDBRANCH   1  12
BRANCH   4  17
ATOM     17  C   UNL     1       1.717   2.727  20.926  0.00  0.00    +0.000 C 
ATOM     18  O   UNL     1       2.107   2.295  22.002  0.00  0.00    +0.000 OA
BRANCH  17  19
ATOM     19  O   UNL     1       0.404   2.917  20.665  0.00  0.00    +0.000 OA
ATOM     20  H   UNL     1       0.060   2.421  19.883  0.00  0.00    +0.000 HD
ENDBRANCH  17  19
ENDBRANCH   4  17
TORSDOF 4
ENDMDL
MODEL 3
REMARK VINA RESULT:      -7.2      0.117      1.144
REMARK  Name = 
REMARK  5 active torsions:
REMARK  status: ('A' for Active; 'I' for Inactive)
REMARK    1  A    between atoms: C_1  and  O_2
REMARK    2  A    between atoms: O_2  and  C_3
REMARK    3  A    between atoms: C_6  and  C_7
REMARK    4  A    between atoms: C_10  and  C_11
REMARK    5  A    between atoms: C_11  and  O_13
REMARK                            x       y       z     vdW  Elec       q    Type
REMARK                         _______ _______ _______ _____ _____    ______ ____
ROOT
ATOM      1  C   UNL     1       4.557   4.057  17.992  0.00  0.00    +0.000 A 
ATOM      2  N   UNL     1       3.389   4.594  18.142  0.00  0.00    +0.000 NA
ATOM      3  C   UNL     1       2.625   4.163  19.204  0.00  0.00    +0.000 A 
ATOM      4  C   UNL     1       2.995   3.247  20.111  0.00  0.00    +0.000 A 
ATOM      5  C   UNL     1       4.341   2.683  19.944  0.00  0.00    +0.000 A 
ATOM      6  O   UNL     1       4.787   1.856  20.738  0.00  0.00    +0.000 OA
ATOM      7  N   UNL     1       5.051   3.122  18.872  0.00  0.00    +0.000 N 
ATOM      8  H   UNL     1       5.987   2.756  18.784  0.00  0.00    +0.000 HD
ENDROOT
BRANCH   1  12
ATOM      9  C   UNL     1       7.107   5.101  14.705  0.00  0.00    +0.000 A 
ATOM     10  C   UNL     1       5.910   4.417  14.484  0.00  0.00    +0.000 A 
ATOM     11  C   UNL     1       5.074   4.080  15.553  0.00  0.00    +0.000 A 
ATOM     12  C   UNL     1       5.442   4.423  16.857  0.00  0.00    +0.000 A 
ATOM     13  C   UNL     1       6.658   5.083  17.082  0.00  0.00    +0.000 A 
ATOM     14  C   UNL     1       7.484   5.421  16.009  0.00  0.00    +0.000 A 
BRANCH   9  16
ATOM     15  C   UNL     1       7.431   4.702  12.401  0.00  0.00    +0.000 C 
ATOM     16  O   UNL     1       7.851   5.366  13.589  0.00  0.00    +0.000 OA
ENDBRANCH   9  16
ENDBRANCH   1  12
BRANCH   4  17
ATOM     17  C   UNL     1       2.079   2.856  21.196  0.00  0.00    +0.000 C 
ATOM     18  O   UNL     1       2.455   2.579  22.327  0.00  0.00    +0.000 OA
BRANCH  17  19
ATOM     19  O   UNL     1       0.772   2.830  20.851  0.00  0.00    +0.000 OA
ATOM     20  H   UNL     1       0.351   1.936  20.885  0.00  0.00    +0.000 HD
ENDBRANCH  17  19
ENDBRANCH   4  17
TORSDOF 4
ENDMDL
MODEL 4
REMARK VINA RESULT:      -7.1      0.932      1.894
REMARK  Name = 
REMARK  5 active torsions:
REMARK  status: ('A' for Active; 'I' for Inactive)
REMARK    1  A    between atoms: C_1  and  O_2
REMARK    2  A    between atoms: O_2  and  C_3
REMARK    3  A    between atoms: C_6  and  C_7
REMARK    4  A    between atoms: C_10  and  C_11
REMARK    5  A    between atoms: C_11  and  O_13
REMARK                            x       y       z     vdW  Elec       q    Type
REMARK                         _______ _______ _______ _____ _____    ______ ____
ROOT
ATOM      1  C   UNL     1       4.456   3.940  17.918  0.00  0.00    +0.000 A 
ATOM      2  N   UNL     1       4.810   3.926  19.163  0.00  0.00    +0.000 NA
ATOM      3  C   UNL     1       3.858   3.558  20.088  0.00  0.00    +0.000 A 
ATOM      4  C   UNL     1       2.599   3.192  19.809  0.00  0.00    +0.000 A 
ATOM      5  C   UNL     1       2.233   3.175  18.386  0.00  0.00    +0.000 A 
ATOM      6  O   UNL     1       1.111   2.828  18.022  0.00  0.00    +0.000 OA
ATOM      7  N   UNL     1       3.197   3.564  17.510  0.00  0.00    +0.000 N 
ATOM      8  H   UNL     1       2.950   3.516  16.533  0.00  0.00    +0.000 HD
ENDROOT
BRANCH   1  12
ATOM      9  C   UNL     1       7.169   5.135  14.817  0.00  0.00    +0.000 A 
ATOM     10  C   UNL     1       6.167   4.196  14.560  0.00  0.00    +0.000 A 
ATOM     11  C   UNL     1       5.278   3.809  15.567  0.00  0.00    +0.000 A 
ATOM     12  C   UNL     1       5.396   4.359  16.847  0.00  0.00    +0.000 A 
ATOM     13  C   UNL     1       6.420   5.277  17.113  0.00  0.00    +0.000 A 
ATOM     14  C   UNL     1       7.300   5.664  16.101  0.00  0.00    +0.000 A 
BRANCH   9  16
ATOM     15  C   UNL     1       7.547   4.955  12.494  0.00  0.00    +0.000 C 
ATOM     16  O   UNL     1       7.988   5.427  13.763  0.00  0.00    +0.000 OA
ENDBRANCH   9  16
ENDBRANCH   1  12
BRANCH   4  17
ATOM     17  C   UNL     1       1.666   2.835  20.892  0.00  0.00    +0.000 C 
ATOM     18  O   UNL     1       2.026   2.363  21.961  0.00  0.00    +0.000 OA
BRANCH  17  19
ATOM     19  O   UNL     1       0.364   3.075  20.618  0.00  0.00    +0.000 OA
ATOM     20  H   UNL     1      -0.044   2.458  19.963  0.00  0.00    +0.000 HD
ENDBRANCH  17  19
ENDBRANCH   4  17
TORSDOF 4
ENDMDL
MODEL 5
REMARK VINA RESULT:      -7.1      0.959      1.504
REMARK  Name = 
REMARK  5 active torsions:
REMARK  status: ('A' for Active; 'I' for Inactive)
REMARK    1  A    between atoms: C_1  and  O_2
REMARK    2  A    between atoms: O_2  and  C_3
REMARK    3  A    between atoms: C_6  and  C_7
REMARK    4  A    between atoms: C_10  and  C_11
REMARK    5  A    between atoms: C_11  and  O_13
REMARK                            x       y       z     vdW  Elec       q    Type
REMARK                         _______ _______ _______ _____ _____    ______ ____
ROOT
ATOM      1  C   UNL     1       4.363   3.923  17.911  0.00  0.00    +0.000 A 
ATOM      2  N   UNL     1       4.115   2.679  18.167  0.00  0.00    +0.000 NA
ATOM      3  C   UNL     1       3.249   2.405  19.202  0.00  0.00    +0.000 A 
ATOM      4  C   UNL     1       2.622   3.319  19.957  0.00  0.00    +0.000 A 
ATOM      5  C   UNL     1       2.885   4.724  19.621  0.00  0.00    +0.000 A 
ATOM      6  O   UNL     1       2.339   5.638  20.235  0.00  0.00    +0.000 OA
ATOM      7  N   UNL     1       3.762   4.948  18.606  0.00  0.00    +0.000 N 
ATOM      8  H   UNL     1       3.911   5.914  18.357  0.00  0.00    +0.000 HD
ENDROOT
BRANCH   1  12
ATOM      9  C   UNL     1       7.107   5.096  14.829  0.00  0.00    +0.000 A 
ATOM     10  C   UNL     1       7.249   5.587  16.130  0.00  0.00    +0.000 A 
ATOM     11  C   UNL     1       6.359   5.201  17.137  0.00  0.00    +0.000 A 
ATOM     12  C   UNL     1       5.312   4.324  16.841  0.00  0.00    +0.000 A 
ATOM     13  C   UNL     1       5.151   3.856  15.530  0.00  0.00    +0.000 A 
ATOM     14  C   UNL     1       6.048   4.239  14.530  0.00  0.00    +0.000 A 
BRANCH   9  16
ATOM     15  C   UNL     1       7.781   5.188  12.569  0.00  0.00    +0.000 C 
ATOM     16  O   UNL     1       8.025   5.550  13.924  0.00  0.00    +0.000 OA
ENDBRANCH   9  16
ENDBRANCH   1  12
BRANCH   4  17
ATOM     17  C   UNL     1       1.728   2.899  21.051  0.00  0.00    +0.000 C 
ATOM     18  O   UNL     1       2.132   2.443  22.111  0.00  0.00    +0.000 OA
BRANCH  17  19
ATOM     19  O   UNL     1       0.410   3.060  20.797  0.00  0.00    +0.000 OA
ATOM     20  H   UNL     1       0.162   3.019  19.841  0.00  0.00    +0.000 HD
ENDBRANCH  17  19
ENDBRANCH   4  17
TORSDOF 4
ENDMDL
MODEL 6
REMARK VINA RESULT:      -6.9      4.058      5.831
REMARK  Name = 
REMARK  5 active torsions:
REMARK  status: ('A' for Active; 'I' for Inactive)
REMARK    1  A    between atoms: C_1  and  O_2
REMARK    2  A    between atoms: O_2  and  C_3
REMARK    3  A    between atoms: C_6  and  C_7
REMARK    4  A    between atoms: C_10  and  C_11
REMARK    5  A    between atoms: C_11  and  O_13
REMARK                            x       y       z     vdW  Elec       q    Type
REMARK                         _______ _______ _______ _____ _____    ______ ____
ROOT
ATOM      1  C   UNL     1       2.845   5.862  19.485  0.00  0.00    +0.000 A 
ATOM      2  N   UNL     1       2.140   4.887  19.960  0.00  0.00    +0.000 NA
ATOM      3  C   UNL     1       2.741   3.651  20.043  0.00  0.00    +0.000 A 
ATOM      4  C   UNL     1       4.005   3.372  19.692  0.00  0.00    +0.000 A 
ATOM      5  C   UNL     1       4.799   4.503  19.194  0.00  0.00    +0.000 A 
ATOM      6  O   UNL     1       5.977   4.361  18.872  0.00  0.00    +0.000 OA
ATOM      7  N   UNL     1       4.160   5.700  19.111  0.00  0.00    +0.000 N 
ATOM      8  H   UNL     1       4.721   6.480  18.803  0.00  0.00    +0.000 HD
ENDROOT
BRANCH   1  12
ATOM      9  C   UNL     1       1.219   9.800  18.993  0.00  0.00    +0.000 A 
ATOM     10  C   UNL     1       1.896   9.176  17.942  0.00  0.00    +0.000 A 
ATOM     11  C   UNL     1       2.422   7.890  18.098  0.00  0.00    +0.000 A 
ATOM     12  C   UNL     1       2.278   7.224  19.318  0.00  0.00    +0.000 A 
ATOM     13  C   UNL     1       1.625   7.862  20.382  0.00  0.00    +0.000 A 
ATOM     14  C   UNL     1       1.096   9.144  20.217  0.00  0.00    +0.000 A 
BRANCH   9  16
ATOM     15  C   UNL     1       1.757  12.074  18.655  0.00  0.00    +0.000 C 
ATOM     16  O   UNL     1       0.759  11.061  18.732  0.00  0.00    +0.000 OA
ENDBRANCH   9  16
ENDBRANCH   1  12
BRANCH   4  17
ATOM     17  C   UNL     1       4.531   2.001  19.811  0.00  0.00    +0.000 C 
ATOM     18  O   UNL     1       5.180   1.611  20.772  0.00  0.00    +0.000 OA
BRANCH  17  19
ATOM     19  O   UNL     1       4.236   1.190  18.770  0.00  0.00    +0.000 OA
ATOM     20  H   UNL     1       3.403   1.416  18.290  0.00  0.00    +0.000 HD
ENDBRANCH  17  19
ENDBRANCH   4  17
TORSDOF 4
ENDMDL
MODEL 7
REMARK VINA RESULT:      -6.9      4.120      5.896
REMARK  Name = 
REMARK  5 active torsions:
REMARK  status: ('A' for Active; 'I' for Inactive)
REMARK    1  A    between atoms: C_1  and  O_2
REMARK    2  A    between atoms: O_2  and  C_3
REMARK    3  A    between atoms: C_6  and  C_7
REMARK    4  A    between atoms: C_10  and  C_11
REMARK    5  A    between atoms: C_11  and  O_13
REMARK                            x       y       z     vdW  Elec       q    Type
REMARK                         _______ _______ _______ _____ _____    ______ ____
ROOT
ATOM      1  C   UNL     1       2.697   5.894  19.226  0.00  0.00    +0.000 A 
ATOM      2  N   UNL     1       1.884   4.889  19.295  0.00  0.00    +0.000 NA
ATOM      3  C   UNL     1       2.435   3.628  19.320  0.00  0.00    +0.000 A 
ATOM      4  C   UNL     1       3.746   3.348  19.299  0.00  0.00    +0.000 A 
ATOM      5  C   UNL     1       4.651   4.504  19.263  0.00  0.00    +0.000 A 
ATOM      6  O   UNL     1       5.872   4.358  19.269  0.00  0.00    +0.000 OA
ATOM      7  N   UNL     1       4.064   5.730  19.220  0.00  0.00    +0.000 N 
ATOM      8  H   UNL     1       4.691   6.520  19.231  0.00  0.00    +0.000 HD
ENDROOT
BRANCH   1  12
ATOM      9  C   UNL     1       1.258   9.929  19.032  0.00  0.00    +0.000 A 
ATOM     10  C   UNL     1       1.162   9.198  20.219  0.00  0.00    +0.000 A 
ATOM     11  C   UNL     1       1.636   7.885  20.286  0.00  0.00    +0.000 A 
ATOM     12  C   UNL     1       2.203   7.292  19.155  0.00  0.00    +0.000 A 
ATOM     13  C   UNL     1       2.271   8.014  17.956  0.00  0.00    +0.000 A 
ATOM     14  C   UNL     1       1.802   9.328  17.898  0.00  0.00    +0.000 A 
BRANCH   9  16
ATOM     15  C   UNL     1       1.713  12.246  19.025  0.00  0.00    +0.000 C 
ATOM     16  O   UNL     1       0.751  11.198  19.078  0.00  0.00    +0.000 OA
ENDBRANCH   9  16
ENDBRANCH   1  12
BRANCH   4  17
ATOM     17  C   UNL     1       4.214   1.951  19.312  0.00  0.00    +0.000 C 
ATOM     18  O   UNL     1       3.767   1.086  18.572  0.00  0.00    +0.000 OA
BRANCH  17  19
ATOM     19  O   UNL     1       5.190   1.690  20.209  0.00  0.00    +0.000 OA
ATOM     20  H   UNL     1       6.080   2.049  19.973  0.00  0.00    +0.000 HD
ENDBRANCH  17  19
ENDBRANCH   4  17
TORSDOF 4
ENDMDL
MODEL 8
REMARK VINA RESULT:      -6.9      0.933      1.905
REMARK  Name = 
REMARK  5 active torsions:
REMARK  status: ('A' for Active; 'I' for Inactive)
REMARK    1  A    between atoms: C_1  and  O_2
REMARK    2  A    between atoms: O_2  and  C_3
REMARK    3  A    between atoms: C_6  and  C_7
REMARK    4  A    between atoms: C_10  and  C_11
REMARK    5  A    between atoms: C_11  and  O_13
REMARK                            x       y       z     vdW  Elec       q    Type
REMARK                         _______ _______ _______ _____ _____    ______ ____
ROOT
ATOM      1  C   UNL     1       4.382   3.985  17.958  0.00  0.00    +0.000 A 
ATOM      2  N   UNL     1       4.209   2.743  18.277  0.00  0.00    +0.000 NA
ATOM      3  C   UNL     1       3.333   2.468  19.303  0.00  0.00    +0.000 A 
ATOM      4  C   UNL     1       2.625   3.377  19.990  0.00  0.00    +0.000 A 
ATOM      5  C   UNL     1       2.806   4.776  19.582  0.00  0.00    +0.000 A 
ATOM      6  O   UNL     1       2.183   5.684  20.129  0.00  0.00    +0.000 OA
ATOM      7  N   UNL     1       3.694   5.003  18.578  0.00  0.00    +0.000 N 
ATOM      8  H   UNL     1       3.787   5.962  18.280  0.00  0.00    +0.000 HD
ENDROOT
BRANCH   1  12
ATOM      9  C   UNL     1       7.128   5.139  14.872  0.00  0.00    +0.000 A 
ATOM     10  C   UNL     1       6.058   4.288  14.587  0.00  0.00    +0.000 A 
ATOM     11  C   UNL     1       5.157   3.915  15.589  0.00  0.00    +0.000 A 
ATOM     12  C   UNL     1       5.333   4.390  16.892  0.00  0.00    +0.000 A 
ATOM     13  C   UNL     1       6.425   5.218  17.185  0.00  0.00    +0.000 A 
ATOM     14  C   UNL     1       7.316   5.592  16.177  0.00  0.00    +0.000 A 
BRANCH   9  16
ATOM     15  C   UNL     1       7.518   4.939  12.552  0.00  0.00    +0.000 C 
ATOM     16  O   UNL     1       7.951   5.425  13.818  0.00  0.00    +0.000 OA
ENDBRANCH   9  16
ENDBRANCH   1  12
BRANCH   4  17
ATOM     17  C   UNL     1       1.730   2.959  21.082  0.00  0.00    +0.000 C 
ATOM     18  O   UNL     1       2.132   2.592  22.178  0.00  0.00    +0.000 OA
BRANCH  17  19
ATOM     19  O   UNL     1       0.412   3.014  20.786  0.00  0.00    +0.000 OA
ATOM     20  H   UNL     1       0.054   3.925  20.648  0.00  0.00    +0.000 HD
ENDBRANCH  17  19
ENDBRANCH   4  17
TORSDOF 4
ENDMDL
MODEL 9
REMARK VINA RESULT:      -6.9      4.102      6.082
REMARK  Name = 
REMARK  5 active torsions:
REMARK  status: ('A' for Active; 'I' for Inactive)
REMARK    1  A    between atoms: C_1  and  O_2
REMARK    2  A    between atoms: O_2  and  C_3
REMARK    3  A    between atoms: C_6  and  C_7
REMARK    4  A    between atoms: C_10  and  C_11
REMARK    5  A    between atoms: C_11  and  O_13
REMARK                            x       y       z     vdW  Elec       q    Type
REMARK                         _______ _______ _______ _____ _____    ______ ____
ROOT
ATOM      1  C   UNL     1       2.630   5.881  19.372  0.00  0.00    +0.000 A 
ATOM      2  N   UNL     1       1.831   4.868  19.469  0.00  0.00    +0.000 NA
ATOM      3  C   UNL     1       2.394   3.611  19.442  0.00  0.00    +0.000 A 
ATOM      4  C   UNL     1       3.704   3.345  19.344  0.00  0.00    +0.000 A 
ATOM      5  C   UNL     1       4.595   4.511  19.278  0.00  0.00    +0.000 A 
ATOM      6  O   UNL     1       5.816   4.376  19.214  0.00  0.00    +0.000 OA
ATOM      7  N   UNL     1       3.995   5.731  19.288  0.00  0.00    +0.000 N 
ATOM      8  H   UNL     1       4.615   6.527  19.278  0.00  0.00    +0.000 HD
ENDROOT
BRANCH   1  12
ATOM      9  C   UNL     1       1.170   9.913  19.303  0.00  0.00    +0.000 A 
ATOM     10  C   UNL     1       1.733   9.343  18.159  0.00  0.00    +0.000 A 
ATOM     11  C   UNL     1       2.205   8.027  18.177  0.00  0.00    +0.000 A 
ATOM     12  C   UNL     1       2.121   7.276  19.352  0.00  0.00    +0.000 A 
ATOM     13  C   UNL     1       1.584   7.857  20.509  0.00  0.00    +0.000 A 
ATOM     14  C   UNL     1       1.109   9.170  20.481  0.00  0.00    +0.000 A 
BRANCH   9  16
ATOM     15  C   UNL     1      -0.527  11.388  18.581  0.00  0.00    +0.000 C 
ATOM     16  O   UNL     1       0.756  11.210  19.173  0.00  0.00    +0.000 OA
ENDBRANCH   9  16
ENDBRANCH   1  12
BRANCH   4  17
ATOM     17  C   UNL     1       4.184   1.952  19.308  0.00  0.00    +0.000 C 
ATOM     18  O   UNL     1       3.745   1.110  18.538  0.00  0.00    +0.000 OA
BRANCH  17  19
ATOM     19  O   UNL     1       5.163   1.668  20.196  0.00  0.00    +0.000 OA
ATOM     20  H   UNL     1       5.875   2.351  20.263  0.00  0.00    +0.000 HD
ENDBRANCH  17  19
ENDBRANCH   4  17
TORSDOF 4
ENDMDL
