MODEL 1
REMARK VINA RESULT:      -7.0      0.000      0.000
REMARK  Name = 
REMARK  10 active torsions:
REMARK  status: ('A' for Active; 'I' for Inactive)
REMARK    1  A    between atoms: C_1  and  C_2
REMARK    2  A    between atoms: C_2  and  C_3
REMARK    3  A    between atoms: C_2  and  C_10
REMARK    4  A    between atoms: C_3  and  C_4
REMARK    5  A    between atoms: C_15  and  O_16
REMARK    6  A    between atoms: C_15  and  C_17
REMARK    7  A    between atoms: C_17  and  N_18
REMARK    8  A    between atoms: C_20  and  C_21
REMARK    9  A    between atoms: N_23  and  C_24
REMARK   10  A    between atoms: N_23  and  C_25
REMARK                            x       y       z     vdW  Elec       q    Type
REMARK                         _______ _______ _______ _____ _____    ______ ____
ROOT
ATOM      1  C   UNL     1       1.667  11.264  18.981  0.00  0.00    +0.000 C 
ATOM      2  O   UNL     1       2.342  11.554  17.989  0.00  0.00    +0.000 OA
ATOM      3  N   UNL     1       1.517  12.155  20.042  0.00  0.00    +0.000 N 
ATOM      4  C   UNL     1       0.951  11.894  21.363  0.00  0.00    +0.000 C 
ATOM      5  C   UNL     1      -0.057  12.973  21.792  0.00  0.00    +0.000 C 
ATOM      6  C   UNL     1       0.459  14.422  21.586  0.00  0.00    +0.000 C 
ATOM      7  C   UNL     1       1.031  14.564  20.117  0.00  0.00    +0.000 C 
ATOM      8  C   UNL     1       1.666  15.951  19.829  0.00  0.00    +0.000 C 
ATOM      9  C   UNL     1       0.995  16.470  18.558  0.00  0.00    +0.000 C 
ATOM     10  C   UNL     1      -0.357  15.789  18.522  0.00  0.00    +0.000 C 
ATOM     11  C   UNL     1      -0.038  14.390  19.002  0.00  0.00    +0.000 C 
ATOM     12  C   UNL     1       2.119  13.478  19.916  0.00  0.00    +0.000 C 
ENDROOT
BRANCH   1  14
ATOM     13  C   UNL     1       1.257   9.095  17.776  0.00  0.00    +0.000 C 
ATOM     14  C   UNL     1       0.884   9.943  19.002  0.00  0.00    +0.000 C 
BRANCH  14  15
ATOM     15  C   UNL     1      -0.629  10.256  19.040  0.00  0.00    +0.000 C 
BRANCH  15  16
ATOM     16  C   UNL     1      -1.215  10.868  17.742  0.00  0.00    +0.000 C 
ATOM     17  C   UNL     1      -2.026   9.861  16.911  0.00  0.00    +0.000 C 
ATOM     18  C   UNL     1      -3.347   9.487  17.578  0.00  0.00    +0.000 C 
ATOM     19  C   UNL     1      -4.193  10.725  17.859  0.00  0.00    +0.000 C 
ATOM     20  C   UNL     1      -3.430  11.770  18.668  0.00  0.00    +0.000 C 
ATOM     21  C   UNL     1      -2.081  12.109  18.038  0.00  0.00    +0.000 C 
ENDBRANCH  15  16
ENDBRANCH  14  15
ENDBRANCH   1  14
BRANCH   6  22
ATOM     22  O   UNL     1       1.575  14.619  22.480  0.00  0.00    +0.000 OA
ATOM     23  H   UNL     1       1.222  14.709  23.382  0.00  0.00    +0.000 HD
ENDBRANCH   6  22
BRANCH   6  24
ATOM     24  C   UNL     1      -0.634  15.496  21.975  0.00  0.00    +0.000 C 
BRANCH  24  25
ATOM     25  N   UNL     1      -1.423  15.170  23.191  0.00  0.00    +0.000 N 
ATOM     26  C   UNL     1      -2.639  14.493  23.117  0.00  0.00    +0.000 A 
ATOM     27  C   UNL     1      -3.443  14.326  24.195  0.00  0.00    +0.000 A 
ATOM     28  N   UNL     1      -3.068  14.725  25.462  0.00  0.00    +0.000 NA
ATOM     29  C   UNL     1      -1.897  15.267  25.583  0.00  0.00    +0.000 A 
ATOM     30  C   UNL     1      -0.964  15.581  24.437  0.00  0.00    +0.000 A 
ATOM     31  O   UNL     1       0.075  16.174  24.668  0.00  0.00    +0.000 OA
BRANCH  27  32
ATOM     32  C   UNL     1      -4.811  13.696  23.878  0.00  0.00    +0.000 C 
ATOM     33  O   UNL     1      -4.852  12.461  23.781  0.00  0.00    +0.000 OA
ATOM     34  N   UNL     1      -5.958  14.447  23.627  0.00  0.00    +0.000 N 
ATOM     35  C   UNL     1      -6.184  15.867  23.832  0.00  0.00    +0.000 C 
ATOM     36  C   UNL     1      -7.128  13.736  23.116  0.00  0.00    +0.000 C 
ENDBRANCH  27  32
ENDBRANCH  24  25
ENDBRANCH   6  24
TORSDOF 7
ENDMDL
MODEL 2
REMARK VINA RESULT:      -6.9      2.562      6.217
REMARK  Name = 
REMARK  10 active torsions:
REMARK  status: ('A' for Active; 'I' for Inactive)
REMARK    1  A    between atoms: C_1  and  C_2
REMARK    2  A    between atoms: C_2  and  C_3
REMARK    3  A    between atoms: C_2  and  C_10
REMARK    4  A    between atoms: C_3  and  C_4
REMARK    5  A    between atoms: C_15  and  O_16
REMARK    6  A    between atoms: C_15  and  C_17
REMARK    7  A    between atoms: C_17  and  N_18
REMARK    8  A    between atoms: C_20  and  C_21
REMARK    9  A    between atoms: N_23  and  C_24
REMARK   10  A    between atoms: N_23  and  C_25
REMARK                            x       y       z     vdW  Elec       q    Type
REMARK                         _______ _______ _______ _____ _____    ______ ____
ROOT
ATOM      1  C   UNL     1       1.369  14.803  21.173  0.00  0.00    +0.000 C 
ATOM      2  O   UNL     1       2.104  14.578  22.138  0.00  0.00    +0.000 OA
ATOM      3  N   UNL     1       1.047  13.802  20.257  0.00  0.00    +0.000 N 
ATOM      4  C   UNL     1       0.387  13.946  18.962  0.00  0.00    +0.000 C 
ATOM      5  C   UNL     1      -0.745  12.923  18.765  0.00  0.00    +0.000 C 
ATOM      6  C   UNL     1      -0.336  11.469  19.123  0.00  0.00    +0.000 C 
ATOM      7  C   UNL     1       0.353  11.461  20.547  0.00  0.00    +0.000 C 
ATOM      8  C   UNL     1       0.892  10.068  20.969  0.00  0.00    +0.000 C 
ATOM      9  C   UNL     1       0.299   9.781  22.348  0.00  0.00    +0.000 C 
ATOM     10  C   UNL     1      -0.982  10.589  22.399  0.00  0.00    +0.000 C 
ATOM     11  C   UNL     1      -0.591  11.878  21.710  0.00  0.00    +0.000 C 
ATOM     12  C   UNL     1       1.544  12.454  20.513  0.00  0.00    +0.000 C 
ENDROOT
BRANCH   1  14
ATOM     13  C   UNL     1       1.778  17.274  20.956  0.00  0.00    +0.000 C 
ATOM     14  C   UNL     1       0.702  16.179  21.035  0.00  0.00    +0.000 C 
BRANCH  14  15
ATOM     15  C   UNL     1      -0.248  16.399  22.235  0.00  0.00    +0.000 C 
BRANCH  15  16
ATOM     16  C   UNL     1      -1.662  16.925  21.877  0.00  0.00    +0.000 C 
ATOM     17  C   UNL     1      -2.320  16.154  20.723  0.00  0.00    +0.000 C 
ATOM     18  C   UNL     1      -2.722  14.738  21.126  0.00  0.00    +0.000 C 
ATOM     19  C   UNL     1      -3.652  14.751  22.335  0.00  0.00    +0.000 C 
ATOM     20  C   UNL     1      -3.055  15.522  23.509  0.00  0.00    +0.000 C 
ATOM     21  C   UNL     1      -2.597  16.920  23.103  0.00  0.00    +0.000 C 
ENDBRANCH  15  16
ENDBRANCH  14  15
ENDBRANCH   1  14
BRANCH   6  22
ATOM     22  O   UNL     1       0.672  11.053  18.178  0.00  0.00    +0.000 OA
ATOM     23  H   UNL     1       1.539  11.313  18.534  0.00  0.00    +0.000 HD
ENDBRANCH   6  22
BRANCH   6  24
ATOM     24  C   UNL     1      -1.548  10.464  18.971  0.00  0.00    +0.000 C 
BRANCH  24  25
ATOM     25  N   UNL     1      -2.748  11.033  18.303  0.00  0.00    +0.000 N 
ATOM     26  C   UNL     1      -3.717  11.740  19.014  0.00  0.00    +0.000 A 
ATOM     27  C   UNL     1      -4.888  12.127  18.454  0.00  0.00    +0.000 A 
ATOM     28  N   UNL     1      -5.161  11.940  17.114  0.00  0.00    +0.000 NA
ATOM     29  C   UNL     1      -4.237  11.376  16.401  0.00  0.00    +0.000 A 
ATOM     30  C   UNL     1      -2.939  10.826  16.943  0.00  0.00    +0.000 A 
ATOM     31  O   UNL     1      -2.187  10.236  16.187  0.00  0.00    +0.000 OA
BRANCH  27  32
ATOM     32  C   UNL     1      -5.890  12.753  19.441  0.00  0.00    +0.000 C 
ATOM     33  O   UNL     1      -5.830  13.981  19.600  0.00  0.00    +0.000 OA
ATOM     34  N   UNL     1      -6.786  12.001  20.198  0.00  0.00    +0.000 N 
ATOM     35  C   UNL     1      -7.138  10.597  20.072  0.00  0.00    +0.000 C 
ATOM     36  C   UNL     1      -7.517  12.694  21.258  0.00  0.00    +0.000 C 
ENDBRANCH  27  32
ENDBRANCH  24  25
ENDBRANCH   6  24
TORSDOF 7
ENDMDL
MODEL 3
REMARK VINA RESULT:      -6.7      2.521      6.592
REMARK  Name = 
REMARK  10 active torsions:
REMARK  status: ('A' for Active; 'I' for Inactive)
REMARK    1  A    between atoms: C_1  and  C_2
REMARK    2  A    between atoms: C_2  and  C_3
REMARK    3  A    between atoms: C_2  and  C_10
REMARK    4  A    between atoms: C_3  and  C_4
REMARK    5  A    between atoms: C_15  and  O_16
REMARK    6  A    between atoms: C_15  and  C_17
REMARK    7  A    between atoms: C_17  and  N_18
REMARK    8  A    between atoms: C_20  and  C_21
REMARK    9  A    between atoms: N_23  and  C_24
REMARK   10  A    between atoms: N_23  and  C_25
REMARK                            x       y       z     vdW  Elec       q    Type
REMARK                         _______ _______ _______ _____ _____    ______ ____
ROOT
ATOM      1  C   UNL     1       1.171  14.747  21.352  0.00  0.00    +0.000 C 
ATOM      2  O   UNL     1       1.953  14.505  22.277  0.00  0.00    +0.000 OA
ATOM      3  N   UNL     1       0.904  13.802  20.363  0.00  0.00    +0.000 N 
ATOM      4  C   UNL     1       0.193  13.997  19.102  0.00  0.00    +0.000 C 
ATOM      5  C   UNL     1      -0.857  12.902  18.847  0.00  0.00    +0.000 C 
ATOM      6  C   UNL     1      -0.319  11.463  19.068  0.00  0.00    +0.000 C 
ATOM      7  C   UNL     1       0.414  11.395  20.470  0.00  0.00    +0.000 C 
ATOM      8  C   UNL     1       1.079  10.022  20.757  0.00  0.00    +0.000 C 
ATOM      9  C   UNL     1       0.555   9.573  22.120  0.00  0.00    +0.000 C 
ATOM     10  C   UNL     1      -0.785  10.262  22.273  0.00  0.00    +0.000 C 
ATOM     11  C   UNL     1      -0.523  11.633  21.687  0.00  0.00    +0.000 C 
ATOM     12  C   UNL     1       1.517  12.484  20.490  0.00  0.00    +0.000 C 
ENDROOT
BRANCH   1  14
ATOM     13  C   UNL     1       1.243  17.180  21.981  0.00  0.00    +0.000 C 
ATOM     14  C   UNL     1       0.390  16.069  21.350  0.00  0.00    +0.000 C 
BRANCH  14  15
ATOM     15  C   UNL     1      -0.940  15.868  22.113  0.00  0.00    +0.000 C 
BRANCH  15  16
ATOM     16  C   UNL     1      -0.802  15.356  23.569  0.00  0.00    +0.000 C 
ATOM     17  C   UNL     1      -1.082  16.441  24.621  0.00  0.00    +0.000 C 
ATOM     18  C   UNL     1      -2.556  16.829  24.677  0.00  0.00    +0.000 C 
ATOM     19  C   UNL     1      -3.437  15.613  24.943  0.00  0.00    +0.000 C 
ATOM     20  C   UNL     1      -3.188  14.493  23.937  0.00  0.00    +0.000 C 
ATOM     21  C   UNL     1      -1.708  14.136  23.831  0.00  0.00    +0.000 C 
ENDBRANCH  15  16
ENDBRANCH  14  15
ENDBRANCH   1  14
BRANCH   6  22
ATOM     22  O   UNL     1       0.689  11.214  18.067  0.00  0.00    +0.000 OA
ATOM     23  H   UNL     1       0.255  11.234  17.196  0.00  0.00    +0.000 HD
ENDBRANCH   6  22
BRANCH   6  24
ATOM     24  C   UNL     1      -1.449  10.376  18.862  0.00  0.00    +0.000 C 
BRANCH  24  25
ATOM     25  N   UNL     1      -2.688  10.880  18.216  0.00  0.00    +0.000 N 
ATOM     26  C   UNL     1      -3.671  11.554  18.941  0.00  0.00    +0.000 A 
ATOM     27  C   UNL     1      -4.871  11.880  18.405  0.00  0.00    +0.000 A 
ATOM     28  N   UNL     1      -5.167  11.663  17.074  0.00  0.00    +0.000 NA
ATOM     29  C   UNL     1      -4.235  11.131  16.346  0.00  0.00    +0.000 A 
ATOM     30  C   UNL     1      -2.902  10.647  16.863  0.00  0.00    +0.000 A 
ATOM     31  O   UNL     1      -2.142  10.081  16.097  0.00  0.00    +0.000 OA
BRANCH  27  32
ATOM     32  C   UNL     1      -5.877  12.474  19.407  0.00  0.00    +0.000 C 
ATOM     33  O   UNL     1      -5.800  13.691  19.626  0.00  0.00    +0.000 OA
ATOM     34  N   UNL     1      -6.795  11.701  20.115  0.00  0.00    +0.000 N 
ATOM     35  C   UNL     1      -7.167  10.311  19.916  0.00  0.00    +0.000 C 
ATOM     36  C   UNL     1      -7.529  12.354  21.198  0.00  0.00    +0.000 C 
ENDBRANCH  27  32
ENDBRANCH  24  25
ENDBRANCH   6  24
TORSDOF 7
ENDMDL
MODEL 4
REMARK VINA RESULT:      -6.6      2.620      6.361
REMARK  Name = 
REMARK  10 active torsions:
REMARK  status: ('A' for Active; 'I' for Inactive)
REMARK    1  A    between atoms: C_1  and  C_2
REMARK    2  A    between atoms: C_2  and  C_3
REMARK    3  A    between atoms: C_2  and  C_10
REMARK    4  A    between atoms: C_3  and  C_4
REMARK    5  A    between atoms: C_15  and  O_16
REMARK    6  A    between atoms: C_15  and  C_17
REMARK    7  A    between atoms: C_17  and  N_18
REMARK    8  A    between atoms: C_20  and  C_21
REMARK    9  A    between atoms: N_23  and  C_24
REMARK   10  A    between atoms: N_23  and  C_25
REMARK                            x       y       z     vdW  Elec       q    Type
REMARK                         _______ _______ _______ _____ _____    ______ ____
ROOT
ATOM      1  C   UNL     1       1.864  14.315  20.711  0.00  0.00    +0.000 C 
ATOM      2  O   UNL     1       2.688  14.002  21.575  0.00  0.00    +0.000 OA
ATOM      3  N   UNL     1       1.321  13.364  19.848  0.00  0.00    +0.000 N 
ATOM      4  C   UNL     1       0.520  13.592  18.648  0.00  0.00    +0.000 C 
ATOM      5  C   UNL     1      -0.733  12.700  18.603  0.00  0.00    +0.000 C 
ATOM      6  C   UNL     1      -0.444  11.207  18.912  0.00  0.00    +0.000 C 
ATOM      7  C   UNL     1       0.417  11.111  20.237  0.00  0.00    +0.000 C 
ATOM      8  C   UNL     1       0.850   9.663  20.593  0.00  0.00    +0.000 C 
ATOM      9  C   UNL     1       0.409   9.430  22.037  0.00  0.00    +0.000 C 
ATOM     10  C   UNL     1      -0.758  10.373  22.248  0.00  0.00    +0.000 C 
ATOM     11  C   UNL     1      -0.319  11.618  21.508  0.00  0.00    +0.000 C 
ATOM     12  C   UNL     1       1.695  11.968  20.045  0.00  0.00    +0.000 C 
ENDROOT
BRANCH   1  14
ATOM     13  C   UNL     1       2.506  16.727  20.399  0.00  0.00    +0.000 C 
ATOM     14  C   UNL     1       1.341  15.758  20.653  0.00  0.00    +0.000 C 
BRANCH  14  15
ATOM     15  C   UNL     1       0.610  16.081  21.977  0.00  0.00    +0.000 C 
BRANCH  15  16
ATOM     16  C   UNL     1      -0.653  15.230  22.266  0.00  0.00    +0.000 C 
ATOM     17  C   UNL     1      -1.318  15.572  23.608  0.00  0.00    +0.000 C 
ATOM     18  C   UNL     1      -1.990  16.942  23.592  0.00  0.00    +0.000 C 
ATOM     19  C   UNL     1      -3.017  17.039  22.468  0.00  0.00    +0.000 C 
ATOM     20  C   UNL     1      -2.414  16.691  21.109  0.00  0.00    +0.000 C 
ATOM     21  C   UNL     1      -1.689  15.347  21.131  0.00  0.00    +0.000 C 
ENDBRANCH  15  16
ENDBRANCH  14  15
ENDBRANCH   1  14
BRANCH   6  22
ATOM     22  O   UNL     1       0.384  10.693  17.848  0.00  0.00    +0.000 OA
ATOM     23  H   UNL     1       1.313  10.807  18.111  0.00  0.00    +0.000 HD
ENDBRANCH   6  22
BRANCH   6  24
ATOM     24  C   UNL     1      -1.768  10.343  18.922  0.00  0.00    +0.000 C 
BRANCH  24  25
ATOM     25  N   UNL     1      -2.921  10.962  18.218  0.00  0.00    +0.000 N 
ATOM     26  C   UNL     1      -3.885  11.703  18.901  0.00  0.00    +0.000 A 
ATOM     27  C   UNL     1      -5.020  12.139  18.305  0.00  0.00    +0.000 A 
ATOM     28  N   UNL     1      -5.254  11.971  16.955  0.00  0.00    +0.000 NA
ATOM     29  C   UNL     1      -4.330  11.376  16.269  0.00  0.00    +0.000 A 
ATOM     30  C   UNL     1      -3.073  10.771  16.850  0.00  0.00    +0.000 A 
ATOM     31  O   UNL     1      -2.320  10.157  16.115  0.00  0.00    +0.000 OA
BRANCH  27  32
ATOM     32  C   UNL     1      -6.030  12.798  19.261  0.00  0.00    +0.000 C 
ATOM     33  O   UNL     1      -6.002  14.034  19.343  0.00  0.00    +0.000 OA
ATOM     34  N   UNL     1      -6.898  12.071  20.073  0.00  0.00    +0.000 N 
ATOM     35  C   UNL     1      -7.212  10.652  20.038  0.00  0.00    +0.000 C 
ATOM     36  C   UNL     1      -7.638  12.808  21.097  0.00  0.00    +0.000 C 
ENDBRANCH  27  32
ENDBRANCH  24  25
ENDBRANCH   6  24
TORSDOF 7
ENDMDL
MODEL 5
REMARK VINA RESULT:      -6.5      1.466      1.697
REMARK  Name = 
REMARK  10 active torsions:
REMARK  status: ('A' for Active; 'I' for Inactive)
REMARK    1  A    between atoms: C_1  and  C_2
REMARK    2  A    between atoms: C_2  and  C_3
REMARK    3  A    between atoms: C_2  and  C_10
REMARK    4  A    between atoms: C_3  and  C_4
REMARK    5  A    between atoms: C_15  and  O_16
REMARK    6  A    between atoms: C_15  and  C_17
REMARK    7  A    between atoms: C_17  and  N_18
REMARK    8  A    between atoms: C_20  and  C_21
REMARK    9  A    between atoms: N_23  and  C_24
REMARK   10  A    between atoms: N_23  and  C_25
REMARK                            x       y       z     vdW  Elec       q    Type
REMARK                         _______ _______ _______ _____ _____    ______ ____
ROOT
ATOM      1  C   UNL     1       1.709  11.311  18.913  0.00  0.00    +0.000 C 
ATOM      2  O   UNL     1       2.348  11.588  17.894  0.00  0.00    +0.000 OA
ATOM      3  N   UNL     1       1.609  12.210  19.974  0.00  0.00    +0.000 N 
ATOM      4  C   UNL     1       1.091  11.962  21.317  0.00  0.00    +0.000 C 
ATOM      5  C   UNL     1       0.111  13.055  21.777  0.00  0.00    +0.000 C 
ATOM      6  C   UNL     1       0.636  14.497  21.544  0.00  0.00    +0.000 C 
ATOM      7  C   UNL     1       1.152  14.625  20.053  0.00  0.00    +0.000 C 
ATOM      8  C   UNL     1       1.791  16.002  19.732  0.00  0.00    +0.000 C 
ATOM      9  C   UNL     1       1.078  16.522  18.485  0.00  0.00    +0.000 C 
ATOM     10  C   UNL     1      -0.282  15.856  18.504  0.00  0.00    +0.000 C 
ATOM     11  C   UNL     1       0.040  14.455  18.981  0.00  0.00    +0.000 C 
ATOM     12  C   UNL     1       2.220  13.525  19.817  0.00  0.00    +0.000 C 
ENDROOT
BRANCH   1  14
ATOM     13  C   UNL     1       1.258   9.124  17.757  0.00  0.00    +0.000 C 
ATOM     14  C   UNL     1       0.913   9.999  18.972  0.00  0.00    +0.000 C 
BRANCH  14  15
ATOM     15  C   UNL     1      -0.596  10.329  19.027  0.00  0.00    +0.000 C 
BRANCH  15  16
ATOM     16  C   UNL     1      -1.200  10.908  17.722  0.00  0.00    +0.000 C 
ATOM     17  C   UNL     1      -2.017   9.879  16.924  0.00  0.00    +0.000 C 
ATOM     18  C   UNL     1      -3.328   9.517  17.615  0.00  0.00    +0.000 C 
ATOM     19  C   UNL     1      -4.175  10.758  17.876  0.00  0.00    +0.000 C 
ATOM     20  C   UNL     1      -3.406  11.824  18.652  0.00  0.00    +0.000 C 
ATOM     21  C   UNL     1      -2.065  12.153  17.999  0.00  0.00    +0.000 C 
ENDBRANCH  15  16
ENDBRANCH  14  15
ENDBRANCH   1  14
BRANCH   6  22
ATOM     22  O   UNL     1       1.786  14.687  22.393  0.00  0.00    +0.000 OA
ATOM     23  H   UNL     1       2.548  14.266  21.960  0.00  0.00    +0.000 HD
ENDBRANCH   6  22
BRANCH   6  24
ATOM     24  C   UNL     1      -0.431  15.585  21.967  0.00  0.00    +0.000 C 
BRANCH  24  25
ATOM     25  N   UNL     1      -1.736  15.036  22.416  0.00  0.00    +0.000 N 
ATOM     26  C   UNL     1      -2.814  14.899  21.543  0.00  0.00    +0.000 A 
ATOM     27  C   UNL     1      -4.052  14.550  21.968  0.00  0.00    +0.000 A 
ATOM     28  N   UNL     1      -4.310  14.203  23.279  0.00  0.00    +0.000 NA
ATOM     29  C   UNL     1      -3.306  14.220  24.098  0.00  0.00    +0.000 A 
ATOM     30  C   UNL     1      -1.910  14.681  23.749  0.00  0.00    +0.000 A 
ATOM     31  O   UNL     1      -1.070  14.737  24.629  0.00  0.00    +0.000 OA
BRANCH  27  32
ATOM     32  C   UNL     1      -5.140  14.609  20.881  0.00  0.00    +0.000 C 
ATOM     33  O   UNL     1      -5.232  15.662  20.233  0.00  0.00    +0.000 OA
ATOM     34  N   UNL     1      -6.051  13.579  20.656  0.00  0.00    +0.000 N 
ATOM     35  C   UNL     1      -6.042  12.221  21.172  0.00  0.00    +0.000 C 
ATOM     36  C   UNL     1      -7.171  13.856  19.757  0.00  0.00    +0.000 C 
ENDBRANCH  27  32
ENDBRANCH  24  25
ENDBRANCH   6  24
TORSDOF 7
ENDMDL
MODEL 6
REMARK VINA RESULT:      -6.4      0.935      1.252
REMARK  Name = 
REMARK  10 active torsions:
REMARK  status: ('A' for Active; 'I' for Inactive)
REMARK    1  A    between atoms: C_1  and  C_2
REMARK    2  A    between atoms: C_2  and  C_3
REMARK    3  A    between atoms: C_2  and  C_10
REMARK    4  A    between atoms: C_3  and  C_4
REMARK    5  A    between atoms: C_15  and  O_16
REMARK    6  A    between atoms: C_15  and  C_17
REMARK    7  A    between atoms: C_17  and  N_18
REMARK    8  A    between atoms: C_20  and  C_21
REMARK    9  A    between atoms: N_23  and  C_24
REMARK   10  A    between atoms: N_23  and  C_25
REMARK                            x       y       z     vdW  Elec       q    Type
REMARK                         _______ _______ _______ _____ _____    ______ ____
ROOT
ATOM      1  C   UNL     1       1.229  11.451  18.893  0.00  0.00    +0.000 C 
ATOM      2  O   UNL     1       2.186  11.712  18.158  0.00  0.00    +0.000 OA
ATOM      3  N   UNL     1       0.907  12.263  19.980  0.00  0.00    +0.000 N 
ATOM      4  C   UNL     1      -0.033  11.985  21.063  0.00  0.00    +0.000 C 
ATOM      5  C   UNL     1      -0.972  13.172  21.341  0.00  0.00    +0.000 C 
ATOM      6  C   UNL     1      -0.233  14.532  21.461  0.00  0.00    +0.000 C 
ATOM      7  C   UNL     1       0.738  14.704  20.223  0.00  0.00    +0.000 C 
ATOM      8  C   UNL     1       1.604  15.990  20.286  0.00  0.00    +0.000 C 
ATOM      9  C   UNL     1       1.387  16.715  18.958  0.00  0.00    +0.000 C 
ATOM     10  C   UNL     1       0.022  16.263  18.483  0.00  0.00    +0.000 C 
ATOM     11  C   UNL     1       0.009  14.796  18.853  0.00  0.00    +0.000 C 
ATOM     12  C   UNL     1       1.688  13.479  20.182  0.00  0.00    +0.000 C 
ENDROOT
BRANCH   1  14
ATOM     13  C   UNL     1       1.085   9.220  17.742  0.00  0.00    +0.000 C 
ATOM     14  C   UNL     1       0.306  10.274  18.544  0.00  0.00    +0.000 C 
BRANCH  14  15
ATOM     15  C   UNL     1      -0.910  10.808  17.753  0.00  0.00    +0.000 C 
BRANCH  15  16
ATOM     16  C   UNL     1      -1.956   9.742  17.337  0.00  0.00    +0.000 C 
ATOM     17  C   UNL     1      -3.253   9.815  18.158  0.00  0.00    +0.000 C 
ATOM     18  C   UNL     1      -4.080  11.054  17.829  0.00  0.00    +0.000 C 
ATOM     19  C   UNL     1      -4.406  11.120  16.341  0.00  0.00    +0.000 C 
ATOM     20  C   UNL     1      -3.153  11.033  15.474  0.00  0.00    +0.000 C 
ATOM     21  C   UNL     1      -2.289   9.827  15.835  0.00  0.00    +0.000 C 
ENDBRANCH  15  16
ENDBRANCH  14  15
ENDBRANCH   1  14
BRANCH   6  22
ATOM     22  O   UNL     1       0.604  14.473  22.633  0.00  0.00    +0.000 OA
ATOM     23  H   UNL     1       1.283  15.164  22.549  0.00  0.00    +0.000 HD
ENDBRANCH   6  22
BRANCH   6  24
ATOM     24  C   UNL     1      -1.242  15.730  21.677  0.00  0.00    +0.000 C 
BRANCH  24  25
ATOM     25  N   UNL     1      -2.080  15.625  22.900  0.00  0.00    +0.000 N 
ATOM     26  C   UNL     1      -3.063  14.644  23.033  0.00  0.00    +0.000 A 
ATOM     27  C   UNL     1      -3.938  14.630  24.067  0.00  0.00    +0.000 A 
ATOM     28  N   UNL     1      -3.853  15.524  25.115  0.00  0.00    +0.000 NA
ATOM     29  C   UNL     1      -2.886  16.386  25.074  0.00  0.00    +0.000 A 
ATOM     30  C   UNL     1      -1.917  16.546  23.927  0.00  0.00    +0.000 A 
ATOM     31  O   UNL     1      -1.104  17.454  23.963  0.00  0.00    +0.000 OA
BRANCH  27  32
ATOM     32  C   UNL     1      -5.044  13.566  23.952  0.00  0.00    +0.000 C 
ATOM     33  O   UNL     1      -4.740  12.404  24.257  0.00  0.00    +0.000 OA
ATOM     34  N   UNL     1      -6.317  13.840  23.458  0.00  0.00    +0.000 N 
ATOM     35  C   UNL     1      -6.939  15.126  23.191  0.00  0.00    +0.000 C 
ATOM     36  C   UNL     1      -7.193  12.700  23.186  0.00  0.00    +0.000 C 
ENDBRANCH  27  32
ENDBRANCH  24  25
ENDBRANCH   6  24
TORSDOF 7
ENDMDL
MODEL 7
REMARK VINA RESULT:      -6.3      2.797      7.124
REMARK  Name = 
REMARK  10 active torsions:
REMARK  status: ('A' for Active; 'I' for Inactive)
REMARK    1  A    between atoms: C_1  and  C_2
REMARK    2  A    between atoms: C_2  and  C_3
REMARK    3  A    between atoms: C_2  and  C_10
REMARK    4  A    between atoms: C_3  and  C_4
REMARK    5  A    between atoms: C_15  and  O_16
REMARK    6  A    between atoms: C_15  and  C_17
REMARK    7  A    between atoms: C_17  and  N_18
REMARK    8  A    between atoms: C_20  and  C_21
REMARK    9  A    between atoms: N_23  and  C_24
REMARK   10  A    between atoms: N_23  and  C_25
REMARK                            x       y       z     vdW  Elec       q    Type
REMARK                         _______ _______ _______ _____ _____    ______ ____
ROOT
ATOM      1  C   UNL     1      -3.356  12.663  22.992  0.00  0.00    +0.000 C 
ATOM      2  O   UNL     1      -3.170  11.608  23.605  0.00  0.00    +0.000 OA
ATOM      3  N   UNL     1      -2.304  13.343  22.382  0.00  0.00    +0.000 N 
ATOM      4  C   UNL     1      -2.309  14.691  21.819  0.00  0.00    +0.000 C 
ATOM      5  C   UNL     1      -1.663  14.745  20.424  0.00  0.00    +0.000 C 
ATOM      6  C   UNL     1      -0.294  14.020  20.345  0.00  0.00    +0.000 C 
ATOM      7  C   UNL     1      -0.437  12.575  20.977  0.00  0.00    +0.000 C 
ATOM      8  C   UNL     1       0.900  11.790  21.041  0.00  0.00    +0.000 C 
ATOM      9  C   UNL     1       0.635  10.443  20.368  0.00  0.00    +0.000 C 
ATOM     10  C   UNL     1      -0.509  10.702  19.409  0.00  0.00    +0.000 C 
ATOM     11  C   UNL     1      -1.401  11.636  20.199  0.00  0.00    +0.000 C 
ATOM     12  C   UNL     1      -0.979  12.732  22.421  0.00  0.00    +0.000 C 
ENDROOT
BRANCH   1  14
ATOM     13  C   UNL     1      -5.606  12.947  24.078  0.00  0.00    +0.000 C 
ATOM     14  C   UNL     1      -4.789  13.182  22.798  0.00  0.00    +0.000 C 
BRANCH  14  15
ATOM     15  C   UNL     1      -5.421  12.469  21.580  0.00  0.00    +0.000 C 
BRANCH  15  16
ATOM     16  C   UNL     1      -5.188  13.157  20.211  0.00  0.00    +0.000 C 
ATOM     17  C   UNL     1      -4.769  12.176  19.105  0.00  0.00    +0.000 C 
ATOM     18  C   UNL     1      -5.910  11.255  18.682  0.00  0.00    +0.000 C 
ATOM     19  C   UNL     1      -7.126  12.056  18.229  0.00  0.00    +0.000 C 
ATOM     20  C   UNL     1      -7.577  13.062  19.284  0.00  0.00    +0.000 C 
ATOM     21  C   UNL     1      -6.428  13.951  19.755  0.00  0.00    +0.000 C 
ENDBRANCH  15  16
ENDBRANCH  14  15
ENDBRANCH   1  14
BRANCH   6  22
ATOM     22  O   UNL     1       0.633  14.742  21.182  0.00  0.00    +0.000 OA
ATOM     23  H   UNL     1       0.854  14.175  21.940  0.00  0.00    +0.000 HD
ENDBRANCH   6  22
BRANCH   6  24
ATOM     24  C   UNL     1       0.299  14.042  18.879  0.00  0.00    +0.000 C 
BRANCH  24  25
ATOM     25  N   UNL     1       1.312  15.101  18.633  0.00  0.00    +0.000 N 
ATOM     26  C   UNL     1       2.679  14.838  18.702  0.00  0.00    +0.000 A 
ATOM     27  C   UNL     1       3.611  15.819  18.637  0.00  0.00    +0.000 A 
ATOM     28  N   UNL     1       3.277  17.136  18.393  0.00  0.00    +0.000 NA
ATOM     29  C   UNL     1       2.019  17.400  18.222  0.00  0.00    +0.000 A 
ATOM     30  C   UNL     1       0.897  16.400  18.366  0.00  0.00    +0.000 A 
ATOM     31  O   UNL     1      -0.255  16.787  18.269  0.00  0.00    +0.000 OA
BRANCH  27  32
ATOM     32  C   UNL     1       5.053  15.348  18.891  0.00  0.00    +0.000 C 
ATOM     33  O   UNL     1       5.611  14.724  17.977  0.00  0.00    +0.000 OA
ATOM     34  N   UNL     1       5.710  15.524  20.108  0.00  0.00    +0.000 N 
ATOM     35  C   UNL     1       5.325  16.342  21.245  0.00  0.00    +0.000 C 
ATOM     36  C   UNL     1       6.984  14.829  20.291  0.00  0.00    +0.000 C 
ENDBRANCH  27  32
ENDBRANCH  24  25
ENDBRANCH   6  24
TORSDOF 7
ENDMDL
MODEL 8
REMARK VINA RESULT:      -6.3      4.410      8.327
REMARK  Name = 
REMARK  10 active torsions:
REMARK  status: ('A' for Active; 'I' for Inactive)
REMARK    1  A    between atoms: C_1  and  C_2
REMARK    2  A    between atoms: C_2  and  C_3
REMARK    3  A    between atoms: C_2  and  C_10
REMARK    4  A    between atoms: C_3  and  C_4
REMARK    5  A    between atoms: C_15  and  O_16
REMARK    6  A    between atoms: C_15  and  C_17
REMARK    7  A    between atoms: C_17  and  N_18
REMARK    8  A    between atoms: C_20  and  C_21
REMARK    9  A    between atoms: N_23  and  C_24
REMARK   10  A    between atoms: N_23  and  C_25
REMARK                            x       y       z     vdW  Elec       q    Type
REMARK                         _______ _______ _______ _____ _____    ______ ____
ROOT
ATOM      1  C   UNL     1       6.156  15.697  21.292  0.00  0.00    +0.000 C 
ATOM      2  O   UNL     1       6.676  16.732  20.863  0.00  0.00    +0.000 OA
ATOM      3  N   UNL     1       4.779  15.496  21.224  0.00  0.00    +0.000 N 
ATOM      4  C   UNL     1       3.989  14.452  21.873  0.00  0.00    +0.000 C 
ATOM      5  C   UNL     1       2.997  13.783  20.906  0.00  0.00    +0.000 C 
ATOM      6  C   UNL     1       2.167  14.794  20.071  0.00  0.00    +0.000 C 
ATOM      7  C   UNL     1       3.146  15.855  19.421  0.00  0.00    +0.000 C 
ATOM      8  C   UNL     1       2.414  16.977  18.638  0.00  0.00    +0.000 C 
ATOM      9  C   UNL     1       3.047  17.009  17.248  0.00  0.00    +0.000 C 
ATOM     10  C   UNL     1       3.585  15.609  17.030  0.00  0.00    +0.000 C 
ATOM     11  C   UNL     1       4.141  15.250  18.391  0.00  0.00    +0.000 C 
ATOM     12  C   UNL     1       3.969  16.511  20.559  0.00  0.00    +0.000 C 
ENDROOT
BRANCH   1  14
ATOM     13  C   UNL     1       7.980  15.089  22.913  0.00  0.00    +0.000 C 
ATOM     14  C   UNL     1       7.050  14.561  21.810  0.00  0.00    +0.000 C 
BRANCH  14  15
ATOM     15  C   UNL     1       7.849  13.971  20.624  0.00  0.00    +0.000 C 
BRANCH  15  16
ATOM     16  C   UNL     1       9.340  13.660  20.914  0.00  0.00    +0.000 C 
ATOM     17  C   UNL     1       9.603  12.173  21.198  0.00  0.00    +0.000 C 
ATOM     18  C   UNL     1       9.450  11.307  19.951  0.00  0.00    +0.000 C 
ATOM     19  C   UNL     1      10.365  11.788  18.830  0.00  0.00    +0.000 C 
ATOM     20  C   UNL     1      10.159  13.268  18.517  0.00  0.00    +0.000 C 
ATOM     21  C   UNL     1      10.254  14.137  19.769  0.00  0.00    +0.000 C 
ENDBRANCH  15  16
ENDBRANCH  14  15
ENDBRANCH   1  14
BRANCH   6  22
ATOM     22  O   UNL     1       1.320  15.523  20.984  0.00  0.00    +0.000 OA
ATOM     23  H   UNL     1       0.598  15.920  20.467  0.00  0.00    +0.000 HD
ENDBRANCH   6  22
BRANCH   6  24
ATOM     24  C   UNL     1       1.211  14.063  19.045  0.00  0.00    +0.000 C 
BRANCH  24  25
ATOM     25  N   UNL     1       0.778  12.703  19.458  0.00  0.00    +0.000 N 
ATOM     26  C   UNL     1       1.434  11.557  19.008  0.00  0.00    +0.000 A 
ATOM     27  C   UNL     1       0.959  10.310  19.246  0.00  0.00    +0.000 A 
ATOM     28  N   UNL     1      -0.148  10.082  20.037  0.00  0.00    +0.000 NA
ATOM     29  C   UNL     1      -0.722  11.123  20.556  0.00  0.00    +0.000 A 
ATOM     30  C   UNL     1      -0.331  12.555  20.281  0.00  0.00    +0.000 A 
ATOM     31  O   UNL     1      -1.004  13.452  20.757  0.00  0.00    +0.000 OA
BRANCH  27  32
ATOM     32  C   UNL     1       1.734   9.187  18.534  0.00  0.00    +0.000 C 
ATOM     33  O   UNL     1       2.052   9.385  17.353  0.00  0.00    +0.000 OA
ATOM     34  N   UNL     1       2.014   7.958  19.129  0.00  0.00    +0.000 N 
ATOM     35  C   UNL     1       1.881   7.564  20.521  0.00  0.00    +0.000 C 
ATOM     36  C   UNL     1       2.549   6.902  18.270  0.00  0.00    +0.000 C 
ENDBRANCH  27  32
ENDBRANCH  24  25
ENDBRANCH   6  24
TORSDOF 7
ENDMDL
MODEL 9
REMARK VINA RESULT:      -6.2      2.379      6.169
REMARK  Name = 
REMARK  10 active torsions:
REMARK  status: ('A' for Active; 'I' for Inactive)
REMARK    1  A    between atoms: C_1  and  C_2
REMARK    2  A    between atoms: C_2  and  C_3
REMARK    3  A    between atoms: C_2  and  C_10
REMARK    4  A    between atoms: C_3  and  C_4
REMARK    5  A    between atoms: C_15  and  O_16
REMARK    6  A    between atoms: C_15  and  C_17
REMARK    7  A    between atoms: C_17  and  N_18
REMARK    8  A    between atoms: C_20  and  C_21
REMARK    9  A    between atoms: N_23  and  C_24
REMARK   10  A    between atoms: N_23  and  C_25
REMARK                            x       y       z     vdW  Elec       q    Type
REMARK                         _______ _______ _______ _____ _____    ______ ____
ROOT
ATOM      1  C   UNL     1       1.308  15.024  21.585  0.00  0.00    +0.000 C 
ATOM      2  O   UNL     1       2.147  14.737  22.443  0.00  0.00    +0.000 OA
ATOM      3  N   UNL     1       0.979  14.133  20.565  0.00  0.00    +0.000 N 
ATOM      4  C   UNL     1       0.189  14.391  19.364  0.00  0.00    +0.000 C 
ATOM      5  C   UNL     1      -0.873  13.306  19.117  0.00  0.00    +0.000 C 
ATOM      6  C   UNL     1      -0.320  11.861  19.226  0.00  0.00    +0.000 C 
ATOM      7  C   UNL     1       0.501  11.721  20.572  0.00  0.00    +0.000 C 
ATOM      8  C   UNL     1       1.185  10.338  20.742  0.00  0.00    +0.000 C 
ATOM      9  C   UNL     1       0.750   9.813  22.109  0.00  0.00    +0.000 C 
ATOM     10  C   UNL     1      -0.579  10.487  22.383  0.00  0.00    +0.000 C 
ATOM     11  C   UNL     1      -0.357  11.888  21.857  0.00  0.00    +0.000 C 
ATOM     12  C   UNL     1       1.601  12.813  20.581  0.00  0.00    +0.000 C 
ENDROOT
BRANCH   1  14
ATOM     13  C   UNL     1       1.502  17.514  21.879  0.00  0.00    +0.000 C 
ATOM     14  C   UNL     1       0.526  16.341  21.703  0.00  0.00    +0.000 C 
BRANCH  14  15
ATOM     15  C   UNL     1      -0.458  16.235  22.892  0.00  0.00    +0.000 C 
BRANCH  15  16
ATOM     16  C   UNL     1      -1.962  16.258  22.516  0.00  0.00    +0.000 C 
ATOM     17  C   UNL     1      -2.557  14.855  22.320  0.00  0.00    +0.000 C 
ATOM     18  C   UNL     1      -2.684  14.088  23.633  0.00  0.00    +0.000 C 
ATOM     19  C   UNL     1      -3.517  14.865  24.647  0.00  0.00    +0.000 C 
ATOM     20  C   UNL     1      -2.980  16.276  24.869  0.00  0.00    +0.000 C 
ATOM     21  C   UNL     1      -2.796  17.033  23.555  0.00  0.00    +0.000 C 
ENDBRANCH  15  16
ENDBRANCH  14  15
ENDBRANCH   1  14
BRANCH   6  22
ATOM     22  O   UNL     1       0.623  11.671  18.150  0.00  0.00    +0.000 OA
ATOM     23  H   UNL     1       0.204  11.098  17.485  0.00  0.00    +0.000 HD
ENDBRANCH   6  22
BRANCH   6  24
ATOM     24  C   UNL     1      -1.459  10.780  19.033  0.00  0.00    +0.000 C 
BRANCH  24  25
ATOM     25  N   UNL     1      -2.771  11.329  18.604  0.00  0.00    +0.000 N 
ATOM     26  C   UNL     1      -3.685  11.847  19.521  0.00  0.00    +0.000 A 
ATOM     27  C   UNL     1      -4.943  12.204  19.168  0.00  0.00    +0.000 A 
ATOM     28  N   UNL     1      -5.375  12.180  17.857  0.00  0.00    +0.000 NA
ATOM     29  C   UNL     1      -4.515  11.801  16.964  0.00  0.00    +0.000 A 
ATOM     30  C   UNL     1      -3.123  11.295  17.260  0.00  0.00    +0.000 A 
ATOM     31  O   UNL     1      -2.438  10.882  16.341  0.00  0.00    +0.000 OA
BRANCH  27  32
ATOM     32  C   UNL     1      -5.848  12.600  20.347  0.00  0.00    +0.000 C 
ATOM     33  O   UNL     1      -5.527  12.180  21.468  0.00  0.00    +0.000 OA
ATOM     34  N   UNL     1      -7.026  13.329  20.194  0.00  0.00    +0.000 N 
ATOM     35  C   UNL     1      -7.514  14.046  19.028  0.00  0.00    +0.000 C 
ATOM     36  C   UNL     1      -7.906  13.438  21.357  0.00  0.00    +0.000 C 
ENDBRANCH  27  32
ENDBRANCH  24  25
ENDBRANCH   6  24
TORSDOF 7
ENDMDL
