MODEL 1
REMARK VINA RESULT:      -8.1      0.000      0.000
REMARK  Name = 
REMARK  10 active torsions:
REMARK  status: ('A' for Active; 'I' for Inactive)
REMARK    1  A    between atoms: C_1  and  C_2
REMARK    2  A    between atoms: C_2  and  C_3
REMARK    3  A    between atoms: C_6  and  N_7
REMARK    4  A    between atoms: C_8  and  C_10
REMARK    5  A    between atoms: C_10  and  O_11
REMARK    6  A    between atoms: O_11  and  C_12
REMARK    7  A    between atoms: C_12  and  C_14
REMARK    8  A    between atoms: C_14  and  C_15
REMARK    9  A    between atoms: C_15  and  C_16
REMARK   10  A    between atoms: C_16  and  C_17
REMARK                            x       y       z     vdW  Elec       q    Type
REMARK                         _______ _______ _______ _____ _____    ______ ____
ROOT
ATOM      1  C   UNL     1       1.801   2.717  20.214  0.00  0.00    +0.000 C 
ATOM      2  O   UNL     1       1.910   2.234  21.356  0.00  0.00    +0.000 OA
ENDROOT
BRANCH   1   3
ATOM      3  O   UNL     1       2.191   2.058  19.083  0.00  0.00    +0.000 OA
BRANCH   3   4
ATOM      4  C   UNL     1       3.602   2.049  18.760  0.00  0.00    +0.000 C 
BRANCH   4   6
ATOM      5  N   UNL     1       5.374   3.821  18.783  0.00  0.00    +0.000 N 
ATOM      6  C   UNL     1       4.130   3.421  18.285  0.00  0.00    +0.000 C 
ATOM      7  O   UNL     1       3.425   4.091  17.527  0.00  0.00    +0.000 OA
ATOM      8  H   UNL     1       5.840   3.213  19.452  0.00  0.00    +0.000 HD
BRANCH   5  12
ATOM      9  C   UNL     1       7.526   7.412  17.758  0.00  0.00    +0.000 A 
ATOM     10  C   UNL     1       6.408   7.011  17.017  0.00  0.00    +0.000 A 
ATOM     11  C   UNL     1       5.676   5.851  17.360  0.00  0.00    +0.000 A 
ATOM     12  C   UNL     1       6.046   5.040  18.439  0.00  0.00    +0.000 A 
ATOM     13  C   UNL     1       7.137   5.478  19.200  0.00  0.00    +0.000 A 
ATOM     14  C   UNL     1       7.864   6.641  18.870  0.00  0.00    +0.000 A 
BRANCH   9  16
ATOM     15  C   UNL     1       8.577   9.573  18.587  0.00  0.00    +0.000 C 
ATOM     16  C   UNL     1       8.337   8.639  17.406  0.00  0.00    +0.000 C 
ENDBRANCH   9  16
ENDBRANCH   5  12
ENDBRANCH   4   6
ENDBRANCH   3   4
ENDBRANCH   1   3
BRANCH   1  17
ATOM     17  C   UNL     1       1.246   4.117  19.945  0.00  0.00    +0.000 C 
BRANCH  17  18
ATOM     18  C   UNL     1       1.780   5.282  20.842  0.00  0.00    +0.000 C 
BRANCH  18  19
ATOM     19  C   UNL     1       2.426   6.511  20.120  0.00  0.00    +0.000 C 
BRANCH  19  20
ATOM     20  C   UNL     1       1.745   7.942  20.075  0.00  0.00    +0.000 C 
ATOM     21  N   UNL     1       1.461   8.504  18.941  0.00  0.00    +0.000 NA
ATOM     22  S   UNL     1       0.973  10.080  18.935  0.00  0.00    +0.000 S 
ATOM     23  O   UNL     1       2.191  10.895  18.885  0.00  0.00    +0.000 OA
ATOM     24  O   UNL     1      -0.076  10.272  17.971  0.00  0.00    +0.000 OA
ATOM     25  C   UNL     1       0.267  10.451  20.509  0.00  0.00    +0.000 A 
ATOM     26  C   UNL     1      -0.429  11.647  20.767  0.00  0.00    +0.000 A 
ATOM     27  C   UNL     1      -1.034  11.835  22.012  0.00  0.00    +0.000 A 
ATOM     28  C   UNL     1      -0.980  10.815  22.962  0.00  0.00    +0.000 A 
ATOM     29  C   UNL     1      -0.220   9.660  22.708  0.00  0.00    +0.000 A 
ATOM     30  C   UNL     1       0.445   9.484  21.483  0.00  0.00    +0.000 A 
ATOM     31  N   UNL     1       1.461   8.491  21.330  0.00  0.00    +0.000 N 
ATOM     32  H   UNL     1       2.312   8.958  21.670  0.00  0.00    +0.000 HD
ENDBRANCH  19  20
ENDBRANCH  18  19
ENDBRANCH  17  18
ENDBRANCH   1  17
TORSDOF 9
ENDMDL
MODEL 2
REMARK VINA RESULT:      -8.0      4.066      6.721
REMARK  Name = 
REMARK  10 active torsions:
REMARK  status: ('A' for Active; 'I' for Inactive)
REMARK    1  A    between atoms: C_1  and  C_2
REMARK    2  A    between atoms: C_2  and  C_3
REMARK    3  A    between atoms: C_6  and  N_7
REMARK    4  A    between atoms: C_8  and  C_10
REMARK    5  A    between atoms: C_10  and  O_11
REMARK    6  A    between atoms: O_11  and  C_12
REMARK    7  A    between atoms: C_12  and  C_14
REMARK    8  A    between atoms: C_14  and  C_15
REMARK    9  A    between atoms: C_15  and  C_16
REMARK   10  A    between atoms: C_16  and  C_17
REMARK                            x       y       z     vdW  Elec       q    Type
REMARK                         _______ _______ _______ _____ _____    ______ ____
ROOT
ATOM      1  C   UNL     1       7.639   5.069  16.970  0.00  0.00    +0.000 C 
ATOM      2  O   UNL     1       8.249   4.101  17.460  0.00  0.00    +0.000 OA
ENDROOT
BRANCH   1   3
ATOM      3  O   UNL     1       7.092   6.068  17.725  0.00  0.00    +0.000 OA
BRANCH   3   4
ATOM      4  C   UNL     1       7.971   6.807  18.605  0.00  0.00    +0.000 C 
BRANCH   4   6
ATOM      5  N   UNL     1       8.919   9.088  19.029  0.00  0.00    +0.000 N 
ATOM      6  C   UNL     1       8.214   8.262  18.147  0.00  0.00    +0.000 C 
ATOM      7  O   UNL     1       7.756   8.620  17.060  0.00  0.00    +0.000 OA
ATOM      8  H   UNL     1       9.196   8.702  19.929  0.00  0.00    +0.000 HD
BRANCH   5  12
ATOM      9  C   UNL     1      10.115  13.152  18.236  0.00  0.00    +0.000 A 
ATOM     10  C   UNL     1       8.944  12.628  17.675  0.00  0.00    +0.000 A 
ATOM     11  C   UNL     1       8.526  11.306  17.951  0.00  0.00    +0.000 A 
ATOM     12  C   UNL     1       9.270  10.455  18.776  0.00  0.00    +0.000 A 
ATOM     13  C   UNL     1      10.413  11.007  19.368  0.00  0.00    +0.000 A 
ATOM     14  C   UNL     1      10.829  12.329  19.106  0.00  0.00    +0.000 A 
BRANCH   9  16
ATOM     15  C   UNL     1      10.770  15.412  19.197  0.00  0.00    +0.000 C 
ATOM     16  C   UNL     1      10.596  14.557  17.947  0.00  0.00    +0.000 C 
ENDBRANCH   9  16
ENDBRANCH   5  12
ENDBRANCH   4   6
ENDBRANCH   3   4
ENDBRANCH   1   3
BRANCH   1  17
ATOM     17  C   UNL     1       7.406   5.240  15.468  0.00  0.00    +0.000 C 
BRANCH  17  18
ATOM     18  C   UNL     1       6.143   4.549  14.858  0.00  0.00    +0.000 C 
BRANCH  18  19
ATOM     19  C   UNL     1       5.356   3.548  15.769  0.00  0.00    +0.000 C 
BRANCH  19  20
ATOM     20  C   UNL     1       4.418   4.016  16.958  0.00  0.00    +0.000 C 
ATOM     21  N   UNL     1       4.080   5.262  17.084  0.00  0.00    +0.000 NA
ATOM     22  S   UNL     1       3.303   5.740  18.458  0.00  0.00    +0.000 S 
ATOM     23  O   UNL     1       4.345   6.059  19.439  0.00  0.00    +0.000 OA
ATOM     24  O   UNL     1       2.278   6.697  18.141  0.00  0.00    +0.000 OA
ATOM     25  C   UNL     1       2.473   4.342  19.144  0.00  0.00    +0.000 A 
ATOM     26  C   UNL     1       1.553   4.448  20.203  0.00  0.00    +0.000 A 
ATOM     27  C   UNL     1       0.871   3.310  20.638  0.00  0.00    +0.000 A 
ATOM     28  C   UNL     1       1.078   2.094  19.985  0.00  0.00    +0.000 A 
ATOM     29  C   UNL     1       2.053   1.997  18.978  0.00  0.00    +0.000 A 
ATOM     30  C   UNL     1       2.790   3.122  18.571  0.00  0.00    +0.000 A 
ATOM     31  N   UNL     1       3.983   2.984  17.795  0.00  0.00    +0.000 N 
ATOM     32  H   UNL     1       4.714   2.818  18.499  0.00  0.00    +0.000 HD
ENDBRANCH  19  20
ENDBRANCH  18  19
ENDBRANCH  17  18
ENDBRANCH   1  17
TORSDOF 9
ENDMDL
MODEL 3
REMARK VINA RESULT:      -8.0      2.099      2.704
REMARK  Name = 
REMARK  10 active torsions:
REMARK  status: ('A' for Active; 'I' for Inactive)
REMARK    1  A    between atoms: C_1  and  C_2
REMARK    2  A    between atoms: C_2  and  C_3
REMARK    3  A    between atoms: C_6  and  N_7
REMARK    4  A    between atoms: C_8  and  C_10
REMARK    5  A    between atoms: C_10  and  O_11
REMARK    6  A    between atoms: O_11  and  C_12
REMARK    7  A    between atoms: C_12  and  C_14
REMARK    8  A    between atoms: C_14  and  C_15
REMARK    9  A    between atoms: C_15  and  C_16
REMARK   10  A    between atoms: C_16  and  C_17
REMARK                            x       y       z     vdW  Elec       q    Type
REMARK                         _______ _______ _______ _____ _____    ______ ____
ROOT
ATOM      1  C   UNL     1       1.716   4.193  19.908  0.00  0.00    +0.000 C 
ATOM      2  O   UNL     1       0.653   3.597  20.156  0.00  0.00    +0.000 OA
ENDROOT
BRANCH   1   3
ATOM      3  O   UNL     1       2.881   3.956  20.581  0.00  0.00    +0.000 OA
BRANCH   3   4
ATOM      4  C   UNL     1       3.690   2.834  20.154  0.00  0.00    +0.000 C 
BRANCH   4   6
ATOM      5  N   UNL     1       4.974   4.036  18.369  0.00  0.00    +0.000 N 
ATOM      6  C   UNL     1       4.162   2.943  18.687  0.00  0.00    +0.000 C 
ATOM      7  O   UNL     1       3.780   2.089  17.883  0.00  0.00    +0.000 OA
ATOM      8  H   UNL     1       5.175   4.713  19.102  0.00  0.00    +0.000 HD
BRANCH   5  12
ATOM      9  C   UNL     1       6.772   4.717  14.512  0.00  0.00    +0.000 A 
ATOM     10  C   UNL     1       5.393   4.508  14.632  0.00  0.00    +0.000 A 
ATOM     11  C   UNL     1       4.787   4.313  15.894  0.00  0.00    +0.000 A 
ATOM     12  C   UNL     1       5.536   4.296  17.076  0.00  0.00    +0.000 A 
ATOM     13  C   UNL     1       6.907   4.554  16.947  0.00  0.00    +0.000 A 
ATOM     14  C   UNL     1       7.516   4.761  15.691  0.00  0.00    +0.000 A 
BRANCH   9  16
ATOM     15  C   UNL     1       6.987   3.932  12.103  0.00  0.00    +0.000 C 
ATOM     16  C   UNL     1       7.451   4.913  13.174  0.00  0.00    +0.000 C 
ENDBRANCH   9  16
ENDBRANCH   5  12
ENDBRANCH   4   6
ENDBRANCH   3   4
ENDBRANCH   1   3
BRANCH   1  17
ATOM     17  C   UNL     1       1.839   5.282  18.841  0.00  0.00    +0.000 C 
BRANCH  17  18
ATOM     18  C   UNL     1       2.608   6.585  19.235  0.00  0.00    +0.000 C 
BRANCH  18  19
ATOM     19  C   UNL     1       2.274   7.891  18.438  0.00  0.00    +0.000 C 
BRANCH  19  20
ATOM     20  C   UNL     1       1.397   9.068  19.036  0.00  0.00    +0.000 C 
ATOM     21  N   UNL     1       0.742   9.868  18.254  0.00  0.00    +0.000 NA
ATOM     22  S   UNL     1       0.037  11.212  18.900  0.00  0.00    +0.000 S 
ATOM     23  O   UNL     1       1.061  12.262  18.900  0.00  0.00    +0.000 OA
ATOM     24  O   UNL     1      -1.246  11.441  18.294  0.00  0.00    +0.000 OA
ATOM     25  C   UNL     1      -0.275  10.910  20.610  0.00  0.00    +0.000 A 
ATOM     26  C   UNL     1      -1.050  11.774  21.406  0.00  0.00    +0.000 A 
ATOM     27  C   UNL     1      -1.325  11.427  22.730  0.00  0.00    +0.000 A 
ATOM     28  C   UNL     1      -0.868  10.207  23.229  0.00  0.00    +0.000 A 
ATOM     29  C   UNL     1      -0.037   9.394  22.439  0.00  0.00    +0.000 A 
ATOM     30  C   UNL     1       0.299   9.760  21.125  0.00  0.00    +0.000 A 
ATOM     31  N   UNL     1       1.377   9.125  20.433  0.00  0.00    +0.000 N 
ATOM     32  H   UNL     1       2.206   9.650  20.740  0.00  0.00    +0.000 HD
ENDBRANCH  19  20
ENDBRANCH  18  19
ENDBRANCH  17  18
ENDBRANCH   1  17
TORSDOF 9
ENDMDL
MODEL 4
REMARK VINA RESULT:      -8.0      3.633      7.637
REMARK  Name = 
REMARK  10 active torsions:
REMARK  status: ('A' for Active; 'I' for Inactive)
REMARK    1  A    between atoms: C_1  and  C_2
REMARK    2  A    between atoms: C_2  and  C_3
REMARK    3  A    between atoms: C_6  and  N_7
REMARK    4  A    between atoms: C_8  and  C_10
REMARK    5  A    between atoms: C_10  and  O_11
REMARK    6  A    between atoms: O_11  and  C_12
REMARK    7  A    between atoms: C_12  and  C_14
REMARK    8  A    between atoms: C_14  and  C_15
REMARK    9  A    between atoms: C_15  and  C_16
REMARK   10  A    between atoms: C_16  and  C_17
REMARK                            x       y       z     vdW  Elec       q    Type
REMARK                         _______ _______ _______ _____ _____    ______ ____
ROOT
ATOM      1  C   UNL     1       4.151   2.060  20.469  0.00  0.00    +0.000 C 
ATOM      2  O   UNL     1       5.105   1.888  21.250  0.00  0.00    +0.000 OA
ENDROOT
BRANCH   1   3
ATOM      3  O   UNL     1       2.849   2.106  20.878  0.00  0.00    +0.000 OA
BRANCH   3   4
ATOM      4  C   UNL     1       2.454   3.194  21.747  0.00  0.00    +0.000 C 
BRANCH   4   6
ATOM      5  N   UNL     1       2.627   5.525  20.842  0.00  0.00    +0.000 N 
ATOM      6  C   UNL     1       1.828   4.386  20.990  0.00  0.00    +0.000 C 
ATOM      7  O   UNL     1       0.667   4.282  20.588  0.00  0.00    +0.000 OA
ATOM      8  H   UNL     1       3.550   5.521  21.269  0.00  0.00    +0.000 HD
BRANCH   5  12
ATOM      9  C   UNL     1       1.517   9.193  18.870  0.00  0.00    +0.000 A 
ATOM     10  C   UNL     1       2.232   8.202  18.188  0.00  0.00    +0.000 A 
ATOM     11  C   UNL     1       2.577   6.982  18.814  0.00  0.00    +0.000 A 
ATOM     12  C   UNL     1       2.241   6.718  20.147  0.00  0.00    +0.000 A 
ATOM     13  C   UNL     1       1.485   7.697  20.803  0.00  0.00    +0.000 A 
ATOM     14  C   UNL     1       1.127   8.912  20.179  0.00  0.00    +0.000 A 
BRANCH   9  16
ATOM     15  C   UNL     1       0.983  11.652  19.232  0.00  0.00    +0.000 C 
ATOM     16  C   UNL     1       1.147  10.514  18.231  0.00  0.00    +0.000 C 
ENDBRANCH   9  16
ENDBRANCH   5  12
ENDBRANCH   4   6
ENDBRANCH   3   4
ENDBRANCH   1   3
BRANCH   1  17
ATOM     17  C   UNL     1       4.322   2.210  18.957  0.00  0.00    +0.000 C 
BRANCH  17  18
ATOM     18  C   UNL     1       3.028   2.451  18.112  0.00  0.00    +0.000 C 
BRANCH  18  19
ATOM     19  C   UNL     1       3.066   3.591  17.041  0.00  0.00    +0.000 C 
BRANCH  19  20
ATOM     20  C   UNL     1       4.411   4.123  16.391  0.00  0.00    +0.000 C 
ATOM     21  N   UNL     1       5.438   4.404  17.132  0.00  0.00    +0.000 NA
ATOM     22  S   UNL     1       6.727   5.171  16.446  0.00  0.00    +0.000 S 
ATOM     23  O   UNL     1       6.446   6.608  16.517  0.00  0.00    +0.000 OA
ATOM     24  O   UNL     1       7.957   4.639  16.967  0.00  0.00    +0.000 OA
ATOM     25  C   UNL     1       6.732   4.815  14.717  0.00  0.00    +0.000 A 
ATOM     26  C   UNL     1       7.810   5.147  13.876  0.00  0.00    +0.000 A 
ATOM     27  C   UNL     1       7.780   4.759  12.534  0.00  0.00    +0.000 A 
ATOM     28  C   UNL     1       6.704   4.006  12.062  0.00  0.00    +0.000 A 
ATOM     29  C   UNL     1       5.607   3.748  12.902  0.00  0.00    +0.000 A 
ATOM     30  C   UNL     1       5.596   4.185  14.237  0.00  0.00    +0.000 A 
ATOM     31  N   UNL     1       4.386   4.215  14.996  0.00  0.00    +0.000 N 
ATOM     32  H   UNL     1       3.963   5.119  14.747  0.00  0.00    +0.000 HD
ENDBRANCH  19  20
ENDBRANCH  18  19
ENDBRANCH  17  18
ENDBRANCH   1  17
TORSDOF 9
ENDMDL
MODEL 5
REMARK VINA RESULT:      -7.9      2.568      7.498
REMARK  Name = 
REMARK  10 active torsions:
REMARK  status: ('A' for Active; 'I' for Inactive)
REMARK    1  A    between atoms: C_1  and  C_2
REMARK    2  A    between atoms: C_2  and  C_3
REMARK    3  A    between atoms: C_6  and  N_7
REMARK    4  A    between atoms: C_8  and  C_10
REMARK    5  A    between atoms: C_10  and  O_11
REMARK    6  A    between atoms: O_11  and  C_12
REMARK    7  A    between atoms: C_12  and  C_14
REMARK    8  A    between atoms: C_14  and  C_15
REMARK    9  A    between atoms: C_15  and  C_16
REMARK   10  A    between atoms: C_16  and  C_17
REMARK                            x       y       z     vdW  Elec       q    Type
REMARK                         _______ _______ _______ _____ _____    ______ ____
ROOT
ATOM      1  C   UNL     1       2.339   4.840  19.642  0.00  0.00    +0.000 C 
ATOM      2  O   UNL     1       2.169   4.405  20.796  0.00  0.00    +0.000 OA
ENDROOT
BRANCH   1   3
ATOM      3  O   UNL     1       3.116   5.928  19.360  0.00  0.00    +0.000 OA
BRANCH   3   4
ATOM      4  C   UNL     1       2.624   6.872  18.380  0.00  0.00    +0.000 C 
BRANCH   4   6
ATOM      5  N   UNL     1       1.661   9.174  18.141  0.00  0.00    +0.000 N 
ATOM      6  C   UNL     1       1.966   8.120  19.010  0.00  0.00    +0.000 C 
ATOM      7  O   UNL     1       1.775   8.132  20.227  0.00  0.00    +0.000 OA
ATOM      8  H   UNL     1       1.922   9.078  17.162  0.00  0.00    +0.000 HD
BRANCH   5  12
ATOM      9  C   UNL     1      -0.174  12.930  19.189  0.00  0.00    +0.000 A 
ATOM     10  C   UNL     1      -0.953  11.784  18.988  0.00  0.00    +0.000 A 
ATOM     11  C   UNL     1      -0.361  10.540  18.673  0.00  0.00    +0.000 A 
ATOM     12  C   UNL     1       1.024  10.400  18.525  0.00  0.00    +0.000 A 
ATOM     13  C   UNL     1       1.794  11.542  18.775  0.00  0.00    +0.000 A 
ATOM     14  C   UNL     1       1.210  12.784  19.102  0.00  0.00    +0.000 A 
BRANCH   9  16
ATOM     15  C   UNL     1      -0.123  15.437  18.769  0.00  0.00    +0.000 C 
ATOM     16  C   UNL     1      -0.780  14.278  19.512  0.00  0.00    +0.000 C 
ENDBRANCH   9  16
ENDBRANCH   5  12
ENDBRANCH   4   6
ENDBRANCH   3   4
ENDBRANCH   1   3
BRANCH   1  17
ATOM     17  C   UNL     1       1.676   4.227  18.408  0.00  0.00    +0.000 C 
BRANCH  17  18
ATOM     18  C   UNL     1       2.057   2.753  18.050  0.00  0.00    +0.000 C 
BRANCH  18  19
ATOM     19  C   UNL     1       3.444   2.510  17.366  0.00  0.00    +0.000 C 
BRANCH  19  20
ATOM     20  C   UNL     1       4.483   3.674  17.083  0.00  0.00    +0.000 C 
ATOM     21  N   UNL     1       4.316   4.482  16.083  0.00  0.00    +0.000 NA
ATOM     22  S   UNL     1       5.534   5.522  15.688  0.00  0.00    +0.000 S 
ATOM     23  O   UNL     1       6.427   4.794  14.781  0.00  0.00    +0.000 OA
ATOM     24  O   UNL     1       4.995   6.801  15.315  0.00  0.00    +0.000 OA
ATOM     25  C   UNL     1       6.514   5.804  17.128  0.00  0.00    +0.000 A 
ATOM     26  C   UNL     1       7.510   6.796  17.187  0.00  0.00    +0.000 A 
ATOM     27  C   UNL     1       8.189   7.019  18.388  0.00  0.00    +0.000 A 
ATOM     28  C   UNL     1       7.835   6.287  19.522  0.00  0.00    +0.000 A 
ATOM     29  C   UNL     1       6.888   5.254  19.421  0.00  0.00    +0.000 A 
ATOM     30  C   UNL     1       6.241   4.978  18.205  0.00  0.00    +0.000 A 
ATOM     31  N   UNL     1       5.531   3.753  18.006  0.00  0.00    +0.000 N 
ATOM     32  H   UNL     1       6.262   3.092  17.712  0.00  0.00    +0.000 HD
ENDBRANCH  19  20
ENDBRANCH  18  19
ENDBRANCH  17  18
ENDBRANCH   1  17
TORSDOF 9
ENDMDL
MODEL 6
REMARK VINA RESULT:      -7.9      2.498      8.160
REMARK  Name = 
REMARK  10 active torsions:
REMARK  status: ('A' for Active; 'I' for Inactive)
REMARK    1  A    between atoms: C_1  and  C_2
REMARK    2  A    between atoms: C_2  and  C_3
REMARK    3  A    between atoms: C_6  and  N_7
REMARK    4  A    between atoms: C_8  and  C_10
REMARK    5  A    between atoms: C_10  and  O_11
REMARK    6  A    between atoms: O_11  and  C_12
REMARK    7  A    between atoms: C_12  and  C_14
REMARK    8  A    between atoms: C_14  and  C_15
REMARK    9  A    between atoms: C_15  and  C_16
REMARK   10  A    between atoms: C_16  and  C_17
REMARK                            x       y       z     vdW  Elec       q    Type
REMARK                         _______ _______ _______ _____ _____    ______ ____
ROOT
ATOM      1  C   UNL     1       1.497   4.462  19.981  0.00  0.00    +0.000 C 
ATOM      2  O   UNL     1       0.360   3.962  19.897  0.00  0.00    +0.000 OA
ENDROOT
BRANCH   1   3
ATOM      3  O   UNL     1       1.985   5.366  19.081  0.00  0.00    +0.000 OA
BRANCH   3   4
ATOM      4  C   UNL     1       2.776   6.465  19.592  0.00  0.00    +0.000 C 
BRANCH   4   6
ATOM      5  N   UNL     1       1.532   8.008  21.126  0.00  0.00    +0.000 N 
ATOM      6  C   UNL     1       1.957   7.756  19.818  0.00  0.00    +0.000 C 
ATOM      7  O   UNL     1       1.702   8.467  18.844  0.00  0.00    +0.000 OA
ATOM      8  H   UNL     1       1.748   7.317  21.842  0.00  0.00    +0.000 HD
BRANCH   5  12
ATOM      9  C   UNL     1      -0.660  11.445  22.525  0.00  0.00    +0.000 A 
ATOM     10  C   UNL     1       0.229  11.553  21.448  0.00  0.00    +0.000 A 
ATOM     11  C   UNL     1       0.932  10.427  20.961  0.00  0.00    +0.000 A 
ATOM     12  C   UNL     1       0.790   9.162  21.544  0.00  0.00    +0.000 A 
ATOM     13  C   UNL     1      -0.137   9.059  22.588  0.00  0.00    +0.000 A 
ATOM     14  C   UNL     1      -0.850  10.177  23.071  0.00  0.00    +0.000 A 
BRANCH   9  16
ATOM     15  C   UNL     1      -1.331  13.875  22.194  0.00  0.00    +0.000 C 
ATOM     16  C   UNL     1      -1.414  12.635  23.077  0.00  0.00    +0.000 C 
ENDBRANCH   9  16
ENDBRANCH   5  12
ENDBRANCH   4   6
ENDBRANCH   3   4
ENDBRANCH   1   3
BRANCH   1  17
ATOM     17  C   UNL     1       2.492   4.101  21.085  0.00  0.00    +0.000 C 
BRANCH  17  18
ATOM     18  C   UNL     1       3.275   2.757  20.930  0.00  0.00    +0.000 C 
BRANCH  18  19
ATOM     19  C   UNL     1       3.800   2.387  19.503  0.00  0.00    +0.000 C 
BRANCH  19  20
ATOM     20  C   UNL     1       4.781   3.316  18.675  0.00  0.00    +0.000 C 
ATOM     21  N   UNL     1       5.782   3.904  19.253  0.00  0.00    +0.000 NA
ATOM     22  S   UNL     1       6.632   5.039  18.412  0.00  0.00    +0.000 S 
ATOM     23  O   UNL     1       5.937   6.316  18.612  0.00  0.00    +0.000 OA
ATOM     24  O   UNL     1       8.037   4.919  18.694  0.00  0.00    +0.000 OA
ATOM     25  C   UNL     1       6.448   4.710  16.688  0.00  0.00    +0.000 A 
ATOM     26  C   UNL     1       7.207   5.368  15.703  0.00  0.00    +0.000 A 
ATOM     27  C   UNL     1       7.067   4.995  14.364  0.00  0.00    +0.000 A 
ATOM     28  C   UNL     1       6.212   3.944  14.031  0.00  0.00    +0.000 A 
ATOM     29  C   UNL     1       5.412   3.351  15.021  0.00  0.00    +0.000 A 
ATOM     30  C   UNL     1       5.497   3.757  16.364  0.00  0.00    +0.000 A 
ATOM     31  N   UNL     1       4.487   3.401  17.310  0.00  0.00    +0.000 N 
ATOM     32  H   UNL     1       3.770   4.127  17.186  0.00  0.00    +0.000 HD
ENDBRANCH  19  20
ENDBRANCH  18  19
ENDBRANCH  17  18
ENDBRANCH   1  17
TORSDOF 9
ENDMDL
MODEL 7
REMARK VINA RESULT:      -7.6      3.030      7.829
REMARK  Name = 
REMARK  10 active torsions:
REMARK  status: ('A' for Active; 'I' for Inactive)
REMARK    1  A    between atoms: C_1  and  C_2
REMARK    2  A    between atoms: C_2  and  C_3
REMARK    3  A    between atoms: C_6  and  N_7
REMARK    4  A    between atoms: C_8  and  C_10
REMARK    5  A    between atoms: C_10  and  O_11
REMARK    6  A    between atoms: O_11  and  C_12
REMARK    7  A    between atoms: C_12  and  C_14
REMARK    8  A    between atoms: C_14  and  C_15
REMARK    9  A    between atoms: C_15  and  C_16
REMARK   10  A    between atoms: C_16  and  C_17
REMARK                            x       y       z     vdW  Elec       q    Type
REMARK                         _______ _______ _______ _____ _____    ______ ____
ROOT
ATOM      1  C   UNL     1       1.534   4.348  18.394  0.00  0.00    +0.000 C 
ATOM      2  O   UNL     1       1.120   4.235  17.226  0.00  0.00    +0.000 OA
ENDROOT
BRANCH   1   3
ATOM      3  O   UNL     1       2.336   5.373  18.808  0.00  0.00    +0.000 OA
BRANCH   3   4
ATOM      4  C   UNL     1       2.478   6.515  17.929  0.00  0.00    +0.000 C 
BRANCH   4   6
ATOM      5  N   UNL     1       1.879   8.943  17.762  0.00  0.00    +0.000 N 
ATOM      6  C   UNL     1       2.126   7.857  18.609  0.00  0.00    +0.000 C 
ATOM      7  O   UNL     1       2.110   7.905  19.840  0.00  0.00    +0.000 OA
ATOM      8  H   UNL     1       1.982   8.802  16.760  0.00  0.00    +0.000 HD
BRANCH   5  12
ATOM      9  C   UNL     1       0.708  12.837  19.190  0.00  0.00    +0.000 A 
ATOM     10  C   UNL     1       2.004  12.610  18.712  0.00  0.00    +0.000 A 
ATOM     11  C   UNL     1       2.392  11.346  18.213  0.00  0.00    +0.000 A 
ATOM     12  C   UNL     1       1.510  10.259  18.196  0.00  0.00    +0.000 A 
ATOM     13  C   UNL     1       0.203  10.512  18.632  0.00  0.00    +0.000 A 
ATOM     14  C   UNL     1      -0.193  11.775  19.120  0.00  0.00    +0.000 A 
BRANCH   9  16
ATOM     15  C   UNL     1      -0.332  15.103  18.693  0.00  0.00    +0.000 C 
ATOM     16  C   UNL     1       0.268  14.175  19.743  0.00  0.00    +0.000 C 
ENDBRANCH   9  16
ENDBRANCH   5  12
ENDBRANCH   4   6
ENDBRANCH   3   4
ENDBRANCH   1   3
BRANCH   1  17
ATOM     17  C   UNL     1       1.217   3.337  19.497  0.00  0.00    +0.000 C 
BRANCH  17  18
ATOM     18  C   UNL     1       2.423   2.771  20.315  0.00  0.00    +0.000 C 
BRANCH  18  19
ATOM     19  C   UNL     1       3.661   2.251  19.511  0.00  0.00    +0.000 C 
BRANCH  19  20
ATOM     20  C   UNL     1       4.652   3.212  18.732  0.00  0.00    +0.000 C 
ATOM     21  N   UNL     1       5.636   3.789  19.349  0.00  0.00    +0.000 NA
ATOM     22  S   UNL     1       6.494   4.956  18.560  0.00  0.00    +0.000 S 
ATOM     23  O   UNL     1       5.785   6.220  18.783  0.00  0.00    +0.000 OA
ATOM     24  O   UNL     1       7.894   4.838  18.869  0.00  0.00    +0.000 OA
ATOM     25  C   UNL     1       6.350   4.677  16.824  0.00  0.00    +0.000 A 
ATOM     26  C   UNL     1       7.125   5.369  15.876  0.00  0.00    +0.000 A 
ATOM     27  C   UNL     1       7.016   5.036  14.523  0.00  0.00    +0.000 A 
ATOM     28  C   UNL     1       6.177   3.989  14.140  0.00  0.00    +0.000 A 
ATOM     29  C   UNL     1       5.360   3.360  15.095  0.00  0.00    +0.000 A 
ATOM     30  C   UNL     1       5.414   3.727  16.451  0.00  0.00    +0.000 A 
ATOM     31  N   UNL     1       4.387   3.335  17.364  0.00  0.00    +0.000 N 
ATOM     32  H   UNL     1       3.666   4.060  17.246  0.00  0.00    +0.000 HD
ENDBRANCH  19  20
ENDBRANCH  18  19
ENDBRANCH  17  18
ENDBRANCH   1  17
TORSDOF 9
ENDMDL
MODEL 8
REMARK VINA RESULT:      -7.6      3.314      4.547
REMARK  Name = 
REMARK  10 active torsions:
REMARK  status: ('A' for Active; 'I' for Inactive)
REMARK    1  A    between atoms: C_1  and  C_2
REMARK    2  A    between atoms: C_2  and  C_3
REMARK    3  A    between atoms: C_6  and  N_7
REMARK    4  A    between atoms: C_8  and  C_10
REMARK    5  A    between atoms: C_10  and  O_11
REMARK    6  A    between atoms: O_11  and  C_12
REMARK    7  A    between atoms: C_12  and  C_14
REMARK    8  A    between atoms: C_14  and  C_15
REMARK    9  A    between atoms: C_15  and  C_16
REMARK   10  A    between atoms: C_16  and  C_17
REMARK                            x       y       z     vdW  Elec       q    Type
REMARK                         _______ _______ _______ _____ _____    ______ ____
ROOT
ATOM      1  C   UNL     1       5.478   5.521  18.816  0.00  0.00    +0.000 C 
ATOM      2  O   UNL     1       5.825   4.733  19.713  0.00  0.00    +0.000 OA
ENDROOT
BRANCH   1   3
ATOM      3  O   UNL     1       6.160   6.668  18.523  0.00  0.00    +0.000 OA
BRANCH   3   4
ATOM      4  C   UNL     1       7.417   6.543  17.816  0.00  0.00    +0.000 C 
BRANCH   4   6
ATOM      5  N   UNL     1       6.678   5.789  15.543  0.00  0.00    +0.000 N 
ATOM      6  C   UNL     1       7.390   5.471  16.704  0.00  0.00    +0.000 C 
ATOM      7  O   UNL     1       7.964   4.399  16.908  0.00  0.00    +0.000 OA
ATOM      8  H   UNL     1       6.190   6.682  15.510  0.00  0.00    +0.000 HD
BRANCH   5  12
ATOM      9  C   UNL     1       6.179   3.291  12.066  0.00  0.00    +0.000 A 
ATOM     10  C   UNL     1       7.277   4.152  12.177  0.00  0.00    +0.000 A 
ATOM     11  C   UNL     1       7.468   4.955  13.325  0.00  0.00    +0.000 A 
ATOM     12  C   UNL     1       6.560   4.944  14.391  0.00  0.00    +0.000 A 
ATOM     13  C   UNL     1       5.492   4.044  14.288  0.00  0.00    +0.000 A 
ATOM     14  C   UNL     1       5.303   3.232  13.150  0.00  0.00    +0.000 A 
BRANCH   9  16
ATOM     15  C   UNL     1       6.489   1.016  10.976  0.00  0.00    +0.000 C 
ATOM     16  C   UNL     1       5.940   2.432  10.844  0.00  0.00    +0.000 C 
ENDBRANCH   9  16
ENDBRANCH   5  12
ENDBRANCH   4   6
ENDBRANCH   3   4
ENDBRANCH   1   3
BRANCH   1  17
ATOM     17  C   UNL     1       4.231   5.315  17.954  0.00  0.00    +0.000 C 
BRANCH  17  18
ATOM     18  C   UNL     1       2.844   5.407  18.670  0.00  0.00    +0.000 C 
BRANCH  18  19
ATOM     19  C   UNL     1       2.741   6.330  19.929  0.00  0.00    +0.000 C 
BRANCH  19  20
ATOM     20  C   UNL     1       1.951   7.705  19.931  0.00  0.00    +0.000 C 
ATOM     21  N   UNL     1       1.524   8.224  18.823  0.00  0.00    +0.000 NA
ATOM     22  S   UNL     1       0.918   9.758  18.844  0.00  0.00    +0.000 S 
ATOM     23  O   UNL     1       2.061  10.662  18.675  0.00  0.00    +0.000 OA
ATOM     24  O   UNL     1      -0.225   9.854  17.978  0.00  0.00    +0.000 OA
ATOM     25  C   UNL     1       0.330  10.102  20.472  0.00  0.00    +0.000 A 
ATOM     26  C   UNL     1      -0.429  11.246  20.780  0.00  0.00    +0.000 A 
ATOM     27  C   UNL     1      -0.932  11.410  22.073  0.00  0.00    +0.000 A 
ATOM     28  C   UNL     1      -0.715  10.413  23.025  0.00  0.00    +0.000 A 
ATOM     29  C   UNL     1       0.105   9.315  22.715  0.00  0.00    +0.000 A 
ATOM     30  C   UNL     1       0.669   9.168  21.436  0.00  0.00    +0.000 A 
ATOM     31  N   UNL     1       1.740   8.252  21.201  0.00  0.00    +0.000 N 
ATOM     32  H   UNL     1       2.580   8.788  21.457  0.00  0.00    +0.000 HD
ENDBRANCH  19  20
ENDBRANCH  18  19
ENDBRANCH  17  18
ENDBRANCH   1  17
TORSDOF 9
ENDMDL
MODEL 9
REMARK VINA RESULT:      -7.6      4.734      8.759
REMARK  Name = 
REMARK  10 active torsions:
REMARK  status: ('A' for Active; 'I' for Inactive)
REMARK    1  A    between atoms: C_1  and  C_2
REMARK    2  A    between atoms: C_2  and  C_3
REMARK    3  A    between atoms: C_6  and  N_7
REMARK    4  A    between atoms: C_8  and  C_10
REMARK    5  A    between atoms: C_10  and  O_11
REMARK    6  A    between atoms: O_11  and  C_12
REMARK    7  A    between atoms: C_12  and  C_14
REMARK    8  A    between atoms: C_14  and  C_15
REMARK    9  A    between atoms: C_15  and  C_16
REMARK   10  A    between atoms: C_16  and  C_17
REMARK                            x       y       z     vdW  Elec       q    Type
REMARK                         _______ _______ _______ _____ _____    ______ ____
ROOT
ATOM      1  C   UNL     1       7.017   7.242  17.132  0.00  0.00    +0.000 C 
ATOM      2  O   UNL     1       5.807   7.502  17.266  0.00  0.00    +0.000 OA
ENDROOT
BRANCH   1   3
ATOM      3  O   UNL     1       7.501   6.422  16.152  0.00  0.00    +0.000 OA
BRANCH   3   4
ATOM      4  C   UNL     1       7.558   5.002  16.429  0.00  0.00    +0.000 C 
BRANCH   4   6
ATOM      5  N   UNL     1       5.786   4.709  18.177  0.00  0.00    +0.000 N 
ATOM      6  C   UNL     1       6.203   4.411  16.875  0.00  0.00    +0.000 C 
ATOM      7  O   UNL     1       5.584   3.697  16.083  0.00  0.00    +0.000 OA
ATOM      8  H   UNL     1       6.409   5.259  18.765  0.00  0.00    +0.000 HD
BRANCH   5  12
ATOM      9  C   UNL     1       2.144   3.404  20.075  0.00  0.00    +0.000 A 
ATOM     10  C   UNL     1       2.169   4.570  19.302  0.00  0.00    +0.000 A 
ATOM     11  C   UNL     1       3.350   4.994  18.650  0.00  0.00    +0.000 A 
ATOM     12  C   UNL     1       4.550   4.282  18.765  0.00  0.00    +0.000 A 
ATOM     13  C   UNL     1       4.499   3.092  19.501  0.00  0.00    +0.000 A 
ATOM     14  C   UNL     1       3.320   2.658  20.144  0.00  0.00    +0.000 A 
BRANCH   9  16
ATOM     15  C   UNL     1       1.169   2.411  22.203  0.00  0.00    +0.000 C 
ATOM     16  C   UNL     1       0.899   2.934  20.796  0.00  0.00    +0.000 C 
ENDBRANCH   9  16
ENDBRANCH   5  12
ENDBRANCH   4   6
ENDBRANCH   3   4
ENDBRANCH   1   3
BRANCH   1  17
ATOM     17  C   UNL     1       8.100   7.786  18.064  0.00  0.00    +0.000 C 
BRANCH  17  18
ATOM     18  C   UNL     1       8.332   9.333  18.065  0.00  0.00    +0.000 C 
BRANCH  18  19
ATOM     19  C   UNL     1       9.199   9.933  19.221  0.00  0.00    +0.000 C 
BRANCH  19  20
ATOM     20  C   UNL     1       9.528  11.479  19.341  0.00  0.00    +0.000 C 
ATOM     21  N   UNL     1       9.383  12.101  20.470  0.00  0.00    +0.000 NA
ATOM     22  S   UNL     1       9.510  13.745  20.495  0.00  0.00    +0.000 S 
ATOM     23  O   UNL     1       8.177  14.272  20.184  0.00  0.00    +0.000 OA
ATOM     24  O   UNL     1      10.208  14.172  21.677  0.00  0.00    +0.000 OA
ATOM     25  C   UNL     1      10.505  14.248  19.128  0.00  0.00    +0.000 A 
ATOM     26  C   UNL     1      10.976  15.565  18.975  0.00  0.00    +0.000 A 
ATOM     27  C   UNL     1      11.830  15.870  17.912  0.00  0.00    +0.000 A 
ATOM     28  C   UNL     1      12.240  14.855  17.048  0.00  0.00    +0.000 A 
ATOM     29  C   UNL     1      11.701  13.564  17.178  0.00  0.00    +0.000 A 
ATOM     30  C   UNL     1      10.794  13.256  18.206  0.00  0.00    +0.000 A 
ATOM     31  N   UNL     1      10.005  12.065  18.164  0.00  0.00    +0.000 N 
ATOM     32  H   UNL     1       9.192  12.330  17.592  0.00  0.00    +0.000 HD
ENDBRANCH  19  20
ENDBRANCH  18  19
ENDBRANCH  17  18
ENDBRANCH   1  17
TORSDOF 9
ENDMDL
