MODEL 1
REMARK VINA RESULT:      -6.3      0.000      0.000
REMARK  Name = 
REMARK  10 active torsions:
REMARK  status: ('A' for Active; 'I' for Inactive)
REMARK    1  A    between atoms: C_1  and  N_2
REMARK    2  A    between atoms: C_3  and  C_4
REMARK    3  A    between atoms: C_4  and  O_5
REMARK    4  A    between atoms: O_5  and  P_6
REMARK    5  A    between atoms: P_6  and  N_8
REMARK    6  A    between atoms: P_6  and  N_12
REMARK    7  A    between atoms: N_8  and  C_9
REMARK    8  A    between atoms: C_9  and  C_10
REMARK    9  A    between atoms: N_12  and  C_13
REMARK   10  A    between atoms: C_13  and  C_14
REMARK                            x       y       z     vdW  Elec       q    Type
REMARK                         _______ _______ _______ _____ _____    ______ ____
ROOT
ATOM      1  P   UNL     1       2.723   6.028  19.694  0.00  0.00    +0.000 P 
ATOM      2  O   UNL     1       2.177   5.603  18.365  0.00  0.00    +0.000 OA
ENDROOT
BRANCH   1   3
ATOM      3  N   UNL     1       2.226   5.096  20.947  0.00  0.00    +0.000 NA
ATOM      4  H   UNL     1       1.693   5.721  21.547  0.00  0.00    +0.000 HD
BRANCH   3   5
ATOM      5  C   UNL     1       1.342   3.953  20.685  0.00  0.00    +0.000 C 
BRANCH   5   6
ATOM      6  C   UNL     1       2.067   2.626  20.521  0.00  0.00    +0.000 C 
ATOM      7 BR   UNL     1       2.071   2.114  18.636  0.00  0.00    +0.000 Br
ENDBRANCH   5   6
ENDBRANCH   3   5
ENDBRANCH   1   3
BRANCH   1   8
ATOM      8  N   UNL     1       2.185   7.499  20.132  0.00  0.00    +0.000 NA
ATOM      9  H   UNL     1       2.965   8.132  20.287  0.00  0.00    +0.000 HD
BRANCH   8  10
ATOM     10  C   UNL     1       1.155   7.781  21.123  0.00  0.00    +0.000 C 
BRANCH  10  11
ATOM     11  C   UNL     1       1.373   9.043  21.950  0.00  0.00    +0.000 C 
ATOM     12 BR   UNL     1      -0.286   9.613  22.803  0.00  0.00    +0.000 Br
ENDBRANCH  10  11
ENDBRANCH   8  10
ENDBRANCH   1   8
BRANCH   1  13
ATOM     13  O   UNL     1       4.343   6.041  19.703  0.00  0.00    +0.000 OA
BRANCH  13  14
ATOM     14  C   UNL     1       4.940   4.911  19.074  0.00  0.00    +0.000 C 
BRANCH  14  17
ATOM     15  C   UNL     1       4.801   3.711  16.250  0.00  0.00    +0.000 C 
ATOM     16  N   UNL     1       5.750   4.720  16.672  0.00  0.00    +0.000 N 
ATOM     17  C   UNL     1       5.816   5.313  17.933  0.00  0.00    +0.000 A 
ATOM     18  C   UNL     1       6.838   6.235  17.821  0.00  0.00    +0.000 A 
ATOM     19  N   UNL     1       7.405   6.210  16.571  0.00  0.00    +0.000 NA
ATOM     20  C   UNL     1       6.745   5.280  15.908  0.00  0.00    +0.000 A 
ATOM     21  N   UNL     1       7.063   4.903  14.547  0.00  0.00    +0.000 N 
ATOM     22  O   UNL     1       6.438   3.959  14.050  0.00  0.00    +0.000 OA
ATOM     23  O   UNL     1       7.951   5.548  13.971  0.00  0.00    +0.000 OA
ENDBRANCH  14  17
ENDBRANCH  13  14
ENDBRANCH   1  13
TORSDOF 9
ENDMDL
MODEL 2
REMARK VINA RESULT:      -6.3      3.634      6.906
REMARK  Name = 
REMARK  10 active torsions:
REMARK  status: ('A' for Active; 'I' for Inactive)
REMARK    1  A    between atoms: C_1  and  N_2
REMARK    2  A    between atoms: C_3  and  C_4
REMARK    3  A    between atoms: C_4  and  O_5
REMARK    4  A    between atoms: O_5  and  P_6
REMARK    5  A    between atoms: P_6  and  N_8
REMARK    6  A    between atoms: P_6  and  N_12
REMARK    7  A    between atoms: N_8  and  C_9
REMARK    8  A    between atoms: C_9  and  C_10
REMARK    9  A    between atoms: N_12  and  C_13
REMARK   10  A    between atoms: C_13  and  C_14
REMARK                            x       y       z     vdW  Elec       q    Type
REMARK                         _______ _______ _______ _____ _____    ______ ____
ROOT
ATOM      1  P   UNL     1       6.325   4.748  15.480  0.00  0.00    +0.000 P 
ATOM      2  O   UNL     1       7.821   4.697  15.415  0.00  0.00    +0.000 OA
ENDROOT
BRANCH   1   3
ATOM      3  N   UNL     1       5.583   4.368  14.069  0.00  0.00    +0.000 NA
ATOM      4  H   UNL     1       5.077   5.208  13.801  0.00  0.00    +0.000 HD
BRANCH   3   5
ATOM      5  C   UNL     1       6.399   4.011  12.903  0.00  0.00    +0.000 C 
BRANCH   5   6
ATOM      6  C   UNL     1       5.881   2.817  12.116  0.00  0.00    +0.000 C 
ATOM      7 BR   UNL     1       4.218   3.302  11.213  0.00  0.00    +0.000 Br
ENDBRANCH   5   6
ENDBRANCH   3   5
ENDBRANCH   1   3
BRANCH   1   8
ATOM      8  N   UNL     1       5.778   6.255  15.755  0.00  0.00    +0.000 NA
ATOM      9  H   UNL     1       5.963   6.853  14.954  0.00  0.00    +0.000 HD
BRANCH   8  10
ATOM     10  C   UNL     1       5.972   7.034  16.971  0.00  0.00    +0.000 C 
BRANCH  10  11
ATOM     11  C   UNL     1       7.408   7.102  17.480  0.00  0.00    +0.000 C 
ATOM     12 BR   UNL     1       7.665   5.909  19.002  0.00  0.00    +0.000 Br
ENDBRANCH  10  11
ENDBRANCH   8  10
ENDBRANCH   1   8
BRANCH   1  13
ATOM     13  O   UNL     1       5.738   3.764  16.626  0.00  0.00    +0.000 OA
BRANCH  13  14
ATOM     14  C   UNL     1       4.316   3.671  16.644  0.00  0.00    +0.000 C 
BRANCH  14  17
ATOM     15  C   UNL     1       2.790   5.518  18.566  0.00  0.00    +0.000 C 
ATOM     16  N   UNL     1       3.149   4.145  18.852  0.00  0.00    +0.000 N 
ATOM     17  C   UNL     1       3.807   3.268  17.989  0.00  0.00    +0.000 A 
ATOM     18  C   UNL     1       3.868   2.082  18.693  0.00  0.00    +0.000 A 
ATOM     19  N   UNL     1       3.308   2.205  19.940  0.00  0.00    +0.000 NA
ATOM     20  C   UNL     1       2.900   3.457  20.015  0.00  0.00    +0.000 A 
ATOM     21  N   UNL     1       2.283   4.018  21.199  0.00  0.00    +0.000 N 
ATOM     22  O   UNL     1       2.019   5.226  21.193  0.00  0.00    +0.000 OA
ATOM     23  O   UNL     1       2.070   3.250  22.147  0.00  0.00    +0.000 OA
ENDBRANCH  14  17
ENDBRANCH  13  14
ENDBRANCH   1  13
TORSDOF 9
ENDMDL
MODEL 3
REMARK VINA RESULT:      -6.2      3.657      7.461
REMARK  Name = 
REMARK  10 active torsions:
REMARK  status: ('A' for Active; 'I' for Inactive)
REMARK    1  A    between atoms: C_1  and  N_2
REMARK    2  A    between atoms: C_3  and  C_4
REMARK    3  A    between atoms: C_4  and  O_5
REMARK    4  A    between atoms: O_5  and  P_6
REMARK    5  A    between atoms: P_6  and  N_8
REMARK    6  A    between atoms: P_6  and  N_12
REMARK    7  A    between atoms: N_8  and  C_9
REMARK    8  A    between atoms: C_9  and  C_10
REMARK    9  A    between atoms: N_12  and  C_13
REMARK   10  A    between atoms: C_13  and  C_14
REMARK                            x       y       z     vdW  Elec       q    Type
REMARK                         _______ _______ _______ _____ _____    ______ ____
ROOT
ATOM      1  P   UNL     1       6.185   5.542  15.669  0.00  0.00    +0.000 P 
ATOM      2  O   UNL     1       5.073   6.519  15.440  0.00  0.00    +0.000 OA
ENDROOT
BRANCH   1   3
ATOM      3  N   UNL     1       7.529   6.204  16.330  0.00  0.00    +0.000 NA
ATOM      4  H   UNL     1       8.121   6.449  15.539  0.00  0.00    +0.000 HD
BRANCH   3   5
ATOM      5  C   UNL     1       7.408   7.433  17.125  0.00  0.00    +0.000 C 
BRANCH   5   6
ATOM      6  C   UNL     1       8.126   7.385  18.465  0.00  0.00    +0.000 C 
ATOM      7 BR   UNL     1       7.733   5.691  19.356  0.00  0.00    +0.000 Br
ENDBRANCH   5   6
ENDBRANCH   3   5
ENDBRANCH   1   3
BRANCH   1   8
ATOM      8  N   UNL     1       6.758   4.932  14.274  0.00  0.00    +0.000 NA
ATOM      9  H   UNL     1       6.765   5.645  13.550  0.00  0.00    +0.000 HD
BRANCH   8  10
ATOM     10  C   UNL     1       6.381   3.661  13.670  0.00  0.00    +0.000 C 
BRANCH  10  11
ATOM     11  C   UNL     1       6.320   3.655  12.147  0.00  0.00    +0.000 C 
ATOM     12 BR   UNL     1       4.522   3.228  11.523  0.00  0.00    +0.000 Br
ENDBRANCH  10  11
ENDBRANCH   8  10
ENDBRANCH   1   8
BRANCH   1  13
ATOM     13  O   UNL     1       5.721   4.315  16.621  0.00  0.00    +0.000 OA
BRANCH  13  14
ATOM     14  C   UNL     1       4.317   4.072  16.618  0.00  0.00    +0.000 C 
BRANCH  14  17
ATOM     15  C   UNL     1       2.623   5.731  18.570  0.00  0.00    +0.000 C 
ATOM     16  N   UNL     1       3.099   4.388  18.827  0.00  0.00    +0.000 N 
ATOM     17  C   UNL     1       3.837   3.594  17.950  0.00  0.00    +0.000 A 
ATOM     18  C   UNL     1       3.998   2.401  18.626  0.00  0.00    +0.000 A 
ATOM     19  N   UNL     1       3.421   2.445  19.871  0.00  0.00    +0.000 NA
ATOM     20  C   UNL     1       2.904   3.654  19.972  0.00  0.00    +0.000 A 
ATOM     21  N   UNL     1       2.233   4.131  21.164  0.00  0.00    +0.000 N 
ATOM     22  O   UNL     1       1.864   5.310  21.183  0.00  0.00    +0.000 OA
ATOM     23  O   UNL     1       2.083   3.324  22.092  0.00  0.00    +0.000 OA
ENDBRANCH  14  17
ENDBRANCH  13  14
ENDBRANCH   1  13
TORSDOF 9
ENDMDL
MODEL 4
REMARK VINA RESULT:      -6.1      3.801      6.564
REMARK  Name = 
REMARK  10 active torsions:
REMARK  status: ('A' for Active; 'I' for Inactive)
REMARK    1  A    between atoms: C_1  and  N_2
REMARK    2  A    between atoms: C_3  and  C_4
REMARK    3  A    between atoms: C_4  and  O_5
REMARK    4  A    between atoms: O_5  and  P_6
REMARK    5  A    between atoms: P_6  and  N_8
REMARK    6  A    between atoms: P_6  and  N_12
REMARK    7  A    between atoms: N_8  and  C_9
REMARK    8  A    between atoms: C_9  and  C_10
REMARK    9  A    between atoms: N_12  and  C_13
REMARK   10  A    between atoms: C_13  and  C_14
REMARK                            x       y       z     vdW  Elec       q    Type
REMARK                         _______ _______ _______ _____ _____    ______ ____
ROOT
ATOM      1  P   UNL     1       6.753   6.100  17.019  0.00  0.00    +0.000 P 
ATOM      2  O   UNL     1       7.247   4.949  17.842  0.00  0.00    +0.000 OA
ENDROOT
BRANCH   1   3
ATOM      3  N   UNL     1       6.643   5.776  15.417  0.00  0.00    +0.000 NA
ATOM      4  H   UNL     1       7.449   6.234  14.998  0.00  0.00    +0.000 HD
BRANCH   3   5
ATOM      5  C   UNL     1       6.703   4.382  14.962  0.00  0.00    +0.000 C 
BRANCH   5   6
ATOM      6  C   UNL     1       5.546   3.965  14.066  0.00  0.00    +0.000 C 
ATOM      7 BR   UNL     1       6.238   3.404  12.327  0.00  0.00    +0.000 Br
ENDBRANCH   5   6
ENDBRANCH   3   5
ENDBRANCH   1   3
BRANCH   1   8
ATOM      8  N   UNL     1       7.790   7.354  17.041  0.00  0.00    +0.000 NA
ATOM      9  H   UNL     1       8.612   7.146  16.481  0.00  0.00    +0.000 HD
BRANCH   8  10
ATOM     10  C   UNL     1       8.206   8.107  18.217  0.00  0.00    +0.000 C 
BRANCH  10  11
ATOM     11  C   UNL     1       8.317   9.615  18.020  0.00  0.00    +0.000 C 
ATOM     12 BR   UNL     1       9.401  10.423  19.426  0.00  0.00    +0.000 Br
ENDBRANCH  10  11
ENDBRANCH   8  10
ENDBRANCH   1   8
BRANCH   1  13
ATOM     13  O   UNL     1       5.301   6.617  17.518  0.00  0.00    +0.000 OA
BRANCH  13  14
ATOM     14  C   UNL     1       4.226   5.740  17.195  0.00  0.00    +0.000 C 
BRANCH  14  17
ATOM     15  C   UNL     1       3.050   2.920  17.513  0.00  0.00    +0.000 C 
ATOM     16  N   UNL     1       2.982   3.960  18.518  0.00  0.00    +0.000 N 
ATOM     17  C   UNL     1       3.537   5.236  18.421  0.00  0.00    +0.000 A 
ATOM     18  C   UNL     1       3.250   5.823  19.638  0.00  0.00    +0.000 A 
ATOM     19  N   UNL     1       2.532   4.980  20.448  0.00  0.00    +0.000 NA
ATOM     20  C   UNL     1       2.370   3.876  19.745  0.00  0.00    +0.000 A 
ATOM     21  N   UNL     1       1.618   2.735  20.225  0.00  0.00    +0.000 N 
ATOM     22  O   UNL     1       1.455   1.786  19.450  0.00  0.00    +0.000 OA
ATOM     23  O   UNL     1       1.179   2.790  21.382  0.00  0.00    +0.000 OA
ENDBRANCH  14  17
ENDBRANCH  13  14
ENDBRANCH   1  13
TORSDOF 9
ENDMDL
MODEL 5
REMARK VINA RESULT:      -6.1      3.989      6.820
REMARK  Name = 
REMARK  10 active torsions:
REMARK  status: ('A' for Active; 'I' for Inactive)
REMARK    1  A    between atoms: C_1  and  N_2
REMARK    2  A    between atoms: C_3  and  C_4
REMARK    3  A    between atoms: C_4  and  O_5
REMARK    4  A    between atoms: O_5  and  P_6
REMARK    5  A    between atoms: P_6  and  N_8
REMARK    6  A    between atoms: P_6  and  N_12
REMARK    7  A    between atoms: N_8  and  C_9
REMARK    8  A    between atoms: C_9  and  C_10
REMARK    9  A    between atoms: N_12  and  C_13
REMARK   10  A    between atoms: C_13  and  C_14
REMARK                            x       y       z     vdW  Elec       q    Type
REMARK                         _______ _______ _______ _____ _____    ______ ____
ROOT
ATOM      1  P   UNL     1       6.334   5.559  16.573  0.00  0.00    +0.000 P 
ATOM      2  O   UNL     1       7.233   4.644  17.346  0.00  0.00    +0.000 OA
ENDROOT
BRANCH   1   3
ATOM      3  N   UNL     1       6.604   5.551  14.957  0.00  0.00    +0.000 NA
ATOM      4  H   UNL     1       7.421   6.142  14.822  0.00  0.00    +0.000 HD
BRANCH   3   5
ATOM      5  C   UNL     1       6.921   4.283  14.289  0.00  0.00    +0.000 C 
BRANCH   5   6
ATOM      6  C   UNL     1       6.909   4.356  12.769  0.00  0.00    +0.000 C 
ATOM      7 BR   UNL     1       5.452   3.255  12.076  0.00  0.00    +0.000 Br
ENDBRANCH   5   6
ENDBRANCH   3   5
ENDBRANCH   1   3
BRANCH   1   8
ATOM      8  N   UNL     1       6.584   7.121  16.951  0.00  0.00    +0.000 NA
ATOM      9  H   UNL     1       6.382   7.718  16.153  0.00  0.00    +0.000 HD
BRANCH   8  10
ATOM     10  C   UNL     1       7.739   7.663  17.655  0.00  0.00    +0.000 C 
BRANCH  10  11
ATOM     11  C   UNL     1       7.866   9.182  17.627  0.00  0.00    +0.000 C 
ATOM     12 BR   UNL     1       9.110   9.803  18.995  0.00  0.00    +0.000 Br
ENDBRANCH  10  11
ENDBRANCH   8  10
ENDBRANCH   1   8
BRANCH   1  13
ATOM     13  O   UNL     1       4.770   5.210  16.812  0.00  0.00    +0.000 OA
BRANCH  13  14
ATOM     14  C   UNL     1       4.487   3.815  16.887  0.00  0.00    +0.000 C 
BRANCH  14  17
ATOM     15  C   UNL     1       1.625   4.225  17.923  0.00  0.00    +0.000 C 
ATOM     16  N   UNL     1       2.708   3.656  18.697  0.00  0.00    +0.000 N 
ATOM     17  C   UNL     1       4.007   3.421  18.246  0.00  0.00    +0.000 A 
ATOM     18  C   UNL     1       4.638   2.828  19.322  0.00  0.00    +0.000 A 
ATOM     19  N   UNL     1       3.797   2.718  20.401  0.00  0.00    +0.000 NA
ATOM     20  C   UNL     1       2.652   3.238  20.004  0.00  0.00    +0.000 A 
ATOM     21  N   UNL     1       1.495   3.358  20.868  0.00  0.00    +0.000 N 
ATOM     22  O   UNL     1       0.501   3.940  20.420  0.00  0.00    +0.000 OA
ATOM     23  O   UNL     1       1.583   2.876  22.005  0.00  0.00    +0.000 OA
ENDBRANCH  14  17
ENDBRANCH  13  14
ENDBRANCH   1  13
TORSDOF 9
ENDMDL
MODEL 6
REMARK VINA RESULT:      -6.1      3.103      6.549
REMARK  Name = 
REMARK  10 active torsions:
REMARK  status: ('A' for Active; 'I' for Inactive)
REMARK    1  A    between atoms: C_1  and  N_2
REMARK    2  A    between atoms: C_3  and  C_4
REMARK    3  A    between atoms: C_4  and  O_5
REMARK    4  A    between atoms: O_5  and  P_6
REMARK    5  A    between atoms: P_6  and  N_8
REMARK    6  A    between atoms: P_6  and  N_12
REMARK    7  A    between atoms: N_8  and  C_9
REMARK    8  A    between atoms: C_9  and  C_10
REMARK    9  A    between atoms: N_12  and  C_13
REMARK   10  A    between atoms: C_13  and  C_14
REMARK                            x       y       z     vdW  Elec       q    Type
REMARK                         _______ _______ _______ _____ _____    ______ ____
ROOT
ATOM      1  P   UNL     1       5.349   4.379  18.769  0.00  0.00    +0.000 P 
ATOM      2  O   UNL     1       6.186   5.226  19.678  0.00  0.00    +0.000 OA
ENDROOT
BRANCH   1   3
ATOM      3  N   UNL     1       4.922   2.933  19.411  0.00  0.00    +0.000 NA
ATOM      4  H   UNL     1       4.688   3.133  20.381  0.00  0.00    +0.000 HD
BRANCH   3   5
ATOM      5  C   UNL     1       3.760   2.221  18.865  0.00  0.00    +0.000 C 
BRANCH   5   6
ATOM      6  C   UNL     1       2.552   2.192  19.789  0.00  0.00    +0.000 C 
ATOM      7 BR   UNL     1       0.956   2.714  18.792  0.00  0.00    +0.000 Br
ENDBRANCH   5   6
ENDBRANCH   3   5
ENDBRANCH   1   3
BRANCH   1   8
ATOM      8  N   UNL     1       6.163   3.930  17.434  0.00  0.00    +0.000 NA
ATOM      9  H   UNL     1       6.337   2.929  17.442  0.00  0.00    +0.000 HD
BRANCH   8  10
ATOM     10  C   UNL     1       7.327   4.600  16.868  0.00  0.00    +0.000 C 
BRANCH  10  11
ATOM     11  C   UNL     1       7.223   4.950  15.388  0.00  0.00    +0.000 C 
ATOM     12 BR   UNL     1       5.552   4.287  14.631  0.00  0.00    +0.000 Br
ENDBRANCH  10  11
ENDBRANCH   8  10
ENDBRANCH   1   8
BRANCH   1  13
ATOM     13  O   UNL     1       3.990   5.139  18.320  0.00  0.00    +0.000 OA
BRANCH  13  14
ATOM     14  C   UNL     1       3.351   5.862  19.368  0.00  0.00    +0.000 C 
BRANCH  14  17
ATOM     15  C   UNL     1       1.432   7.651  20.965  0.00  0.00    +0.000 C 
ATOM     16  N   UNL     1       1.892   7.928  19.621  0.00  0.00    +0.000 N 
ATOM     17  C   UNL     1       2.791   7.159  18.882  0.00  0.00    +0.000 A 
ATOM     18  C   UNL     1       2.946   7.858  17.702  0.00  0.00    +0.000 A 
ATOM     19  N   UNL     1       2.170   8.990  17.681  0.00  0.00    +0.000 NA
ATOM     20  C   UNL     1       1.535   8.998  18.836  0.00  0.00    +0.000 A 
ATOM     21  N   UNL     1       0.571  10.015  19.202  0.00  0.00    +0.000 N 
ATOM     22  O   UNL     1      -0.030   9.879  20.273  0.00  0.00    +0.000 OA
ATOM     23  O   UNL     1       0.405  10.952  18.409  0.00  0.00    +0.000 OA
ENDBRANCH  14  17
ENDBRANCH  13  14
ENDBRANCH   1  13
TORSDOF 9
ENDMDL
MODEL 7
REMARK VINA RESULT:      -6.1      3.802      7.566
REMARK  Name = 
REMARK  10 active torsions:
REMARK  status: ('A' for Active; 'I' for Inactive)
REMARK    1  A    between atoms: C_1  and  N_2
REMARK    2  A    between atoms: C_3  and  C_4
REMARK    3  A    between atoms: C_4  and  O_5
REMARK    4  A    between atoms: O_5  and  P_6
REMARK    5  A    between atoms: P_6  and  N_8
REMARK    6  A    between atoms: P_6  and  N_12
REMARK    7  A    between atoms: N_8  and  C_9
REMARK    8  A    between atoms: C_9  and  C_10
REMARK    9  A    between atoms: N_12  and  C_13
REMARK   10  A    between atoms: C_13  and  C_14
REMARK                            x       y       z     vdW  Elec       q    Type
REMARK                         _______ _______ _______ _____ _____    ______ ____
ROOT
ATOM      1  P   UNL     1       6.065   5.357  15.636  0.00  0.00    +0.000 P 
ATOM      2  O   UNL     1       5.143   6.537  15.668  0.00  0.00    +0.000 OA
ENDROOT
BRANCH   1   3
ATOM      3  N   UNL     1       7.461   5.579  16.463  0.00  0.00    +0.000 NA
ATOM      4  H   UNL     1       7.626   6.583  16.440  0.00  0.00    +0.000 HD
BRANCH   3   5
ATOM      5  C   UNL     1       7.524   5.203  17.880  0.00  0.00    +0.000 C 
BRANCH   5   6
ATOM      6  C   UNL     1       7.806   6.361  18.824  0.00  0.00    +0.000 C 
ATOM      7 BR   UNL     1       7.906   8.024  17.805  0.00  0.00    +0.000 Br
ENDBRANCH   5   6
ENDBRANCH   3   5
ENDBRANCH   1   3
BRANCH   1   8
ATOM      8  N   UNL     1       6.606   5.048  14.133  0.00  0.00    +0.000 NA
ATOM      9  H   UNL     1       6.264   5.747  13.480  0.00  0.00    +0.000 HD
BRANCH   8  10
ATOM     10  C   UNL     1       6.607   3.751  13.467  0.00  0.00    +0.000 C 
BRANCH  10  11
ATOM     11  C   UNL     1       5.451   3.513  12.503  0.00  0.00    +0.000 C 
ATOM     12 BR   UNL     1       5.791   1.955  11.379  0.00  0.00    +0.000 Br
ENDBRANCH  10  11
ENDBRANCH   8  10
ENDBRANCH   1   8
BRANCH   1  13
ATOM     13  O   UNL     1       5.354   4.022  16.218  0.00  0.00    +0.000 OA
BRANCH  13  14
ATOM     14  C   UNL     1       3.959   4.165  16.468  0.00  0.00    +0.000 C 
BRANCH  14  17
ATOM     15  C   UNL     1       2.805   5.558  18.951  0.00  0.00    +0.000 C 
ATOM     16  N   UNL     1       3.063   4.137  18.848  0.00  0.00    +0.000 N 
ATOM     17  C   UNL     1       3.549   3.468  17.725  0.00  0.00    +0.000 A 
ATOM     18  C   UNL     1       3.571   2.140  18.104  0.00  0.00    +0.000 A 
ATOM     19  N   UNL     1       3.149   1.979  19.400  0.00  0.00    +0.000 NA
ATOM     20  C   UNL     1       2.868   3.194  19.828  0.00  0.00    +0.000 A 
ATOM     21  N   UNL     1       2.424   3.475  21.177  0.00  0.00    +0.000 N 
ATOM     22  O   UNL     1       2.273   4.659  21.499  0.00  0.00    +0.000 OA
ATOM     23  O   UNL     1       2.236   2.507  21.927  0.00  0.00    +0.000 OA
ENDBRANCH  14  17
ENDBRANCH  13  14
ENDBRANCH   1  13
TORSDOF 9
ENDMDL
MODEL 8
REMARK VINA RESULT:      -6.0      1.401      1.401
REMARK  Name = 
REMARK  10 active torsions:
REMARK  status: ('A' for Active; 'I' for Inactive)
REMARK    1  A    between atoms: C_1  and  N_2
REMARK    2  A    between atoms: C_3  and  C_4
REMARK    3  A    between atoms: C_4  and  O_5
REMARK    4  A    between atoms: O_5  and  P_6
REMARK    5  A    between atoms: P_6  and  N_8
REMARK    6  A    between atoms: P_6  and  N_12
REMARK    7  A    between atoms: N_8  and  C_9
REMARK    8  A    between atoms: C_9  and  C_10
REMARK    9  A    between atoms: N_12  and  C_13
REMARK   10  A    between atoms: C_13  and  C_14
REMARK                            x       y       z     vdW  Elec       q    Type
REMARK                         _______ _______ _______ _____ _____    ______ ____
ROOT
ATOM      1  P   UNL     1       2.710   6.031  19.491  0.00  0.00    +0.000 P 
ATOM      2  O   UNL     1       2.252   5.423  18.200  0.00  0.00    +0.000 OA
ENDROOT
BRANCH   1   3
ATOM      3  N   UNL     1       2.018   5.371  20.821  0.00  0.00    +0.000 NA
ATOM      4  H   UNL     1       1.304   6.038  21.106  0.00  0.00    +0.000 HD
BRANCH   3   5
ATOM      5  C   UNL     1       1.327   4.082  20.706  0.00  0.00    +0.000 C 
BRANCH   5   6
ATOM      6  C   UNL     1       2.251   2.873  20.703  0.00  0.00    +0.000 C 
ATOM      7 BR   UNL     1       2.162   1.988  18.964  0.00  0.00    +0.000 Br
ENDBRANCH   5   6
ENDBRANCH   3   5
ENDBRANCH   1   3
BRANCH   1   8
ATOM      8  N   UNL     1       2.272   7.592  19.618  0.00  0.00    +0.000 NA
ATOM      9  H   UNL     1       1.625   7.719  20.392  0.00  0.00    +0.000 HD
BRANCH   8  10
ATOM     10  C   UNL     1       1.865   8.465  18.525  0.00  0.00    +0.000 C 
BRANCH  10  11
ATOM     11  C   UNL     1       1.231   9.786  18.947  0.00  0.00    +0.000 C 
ATOM     12 BR   UNL     1      -0.469  10.066  18.032  0.00  0.00    +0.000 Br
ENDBRANCH  10  11
ENDBRANCH   8  10
ENDBRANCH   1   8
BRANCH   1  13
ATOM     13  O   UNL     1       4.317   5.925  19.669  0.00  0.00    +0.000 OA
BRANCH  13  14
ATOM     14  C   UNL     1       4.907   4.813  19.002  0.00  0.00    +0.000 C 
BRANCH  14  17
ATOM     15  C   UNL     1       4.792   3.681  16.148  0.00  0.00    +0.000 C 
ATOM     16  N   UNL     1       5.732   4.686  16.600  0.00  0.00    +0.000 N 
ATOM     17  C   UNL     1       5.787   5.247  17.876  0.00  0.00    +0.000 A 
ATOM     18  C   UNL     1       6.804   6.178  17.792  0.00  0.00    +0.000 A 
ATOM     19  N   UNL     1       7.379   6.187  16.546  0.00  0.00    +0.000 NA
ATOM     20  C   UNL     1       6.729   5.270  15.857  0.00  0.00    +0.000 A 
ATOM     21  N   UNL     1       7.057   4.928  14.488  0.00  0.00    +0.000 N 
ATOM     22  O   UNL     1       6.441   3.993  13.965  0.00  0.00    +0.000 OA
ATOM     23  O   UNL     1       7.944   5.592  13.934  0.00  0.00    +0.000 OA
ENDBRANCH  14  17
ENDBRANCH  13  14
ENDBRANCH   1  13
TORSDOF 9
ENDMDL
MODEL 9
REMARK VINA RESULT:      -6.0      3.798      7.381
REMARK  Name = 
REMARK  10 active torsions:
REMARK  status: ('A' for Active; 'I' for Inactive)
REMARK    1  A    between atoms: C_1  and  N_2
REMARK    2  A    between atoms: C_3  and  C_4
REMARK    3  A    between atoms: C_4  and  O_5
REMARK    4  A    between atoms: O_5  and  P_6
REMARK    5  A    between atoms: P_6  and  N_8
REMARK    6  A    between atoms: P_6  and  N_12
REMARK    7  A    between atoms: N_8  and  C_9
REMARK    8  A    between atoms: C_9  and  C_10
REMARK    9  A    between atoms: N_12  and  C_13
REMARK   10  A    between atoms: C_13  and  C_14
REMARK                            x       y       z     vdW  Elec       q    Type
REMARK                         _______ _______ _______ _____ _____    ______ ____
ROOT
ATOM      1  P   UNL     1       6.174   5.636  15.694  0.00  0.00    +0.000 P 
ATOM      2  O   UNL     1       5.113   6.689  15.595  0.00  0.00    +0.000 OA
ENDROOT
BRANCH   1   3
ATOM      3  N   UNL     1       7.549   6.142  16.427  0.00  0.00    +0.000 NA
ATOM      4  H   UNL     1       8.242   6.192  15.684  0.00  0.00    +0.000 HD
BRANCH   3   5
ATOM      5  C   UNL     1       7.573   7.458  17.077  0.00  0.00    +0.000 C 
BRANCH   5   6
ATOM      6  C   UNL     1       8.115   7.444  18.498  0.00  0.00    +0.000 C 
ATOM      7 BR   UNL     1       7.842   5.676  19.283  0.00  0.00    +0.000 Br
ENDBRANCH   5   6
ENDBRANCH   3   5
ENDBRANCH   1   3
BRANCH   1   8
ATOM      8  N   UNL     1       6.718   5.179  14.230  0.00  0.00    +0.000 NA
ATOM      9  H   UNL     1       6.434   5.848  13.520  0.00  0.00    +0.000 HD
BRANCH   8  10
ATOM     10  C   UNL     1       6.643   3.839  13.662  0.00  0.00    +0.000 C 
BRANCH  10  11
ATOM     11  C   UNL     1       6.475   3.781  12.149  0.00  0.00    +0.000 C 
ATOM     12 BR   UNL     1       4.704   3.116  11.670  0.00  0.00    +0.000 Br
ENDBRANCH  10  11
ENDBRANCH   8  10
ENDBRANCH   1   8
BRANCH   1  13
ATOM     13  O   UNL     1       5.647   4.324  16.486  0.00  0.00    +0.000 OA
BRANCH  13  14
ATOM     14  C   UNL     1       4.233   4.269  16.649  0.00  0.00    +0.000 C 
BRANCH  14  17
ATOM     15  C   UNL     1       2.901   1.990  18.220  0.00  0.00    +0.000 C 
ATOM     16  N   UNL     1       3.204   3.298  18.762  0.00  0.00    +0.000 N 
ATOM     17  C   UNL     1       3.841   4.341  18.089  0.00  0.00    +0.000 A 
ATOM     18  C   UNL     1       3.943   5.342  19.035  0.00  0.00    +0.000 A 
ATOM     19  N   UNL     1       3.379   4.967  20.228  0.00  0.00    +0.000 NA
ATOM     20  C   UNL     1       2.928   3.744  20.032  0.00  0.00    +0.000 A 
ATOM     21  N   UNL     1       2.216   2.991  21.043  0.00  0.00    +0.000 N 
ATOM     22  O   UNL     1       1.760   1.887  20.724  0.00  0.00    +0.000 OA
ATOM     23  O   UNL     1       2.102   3.509  22.162  0.00  0.00    +0.000 OA
ENDBRANCH  14  17
ENDBRANCH  13  14
ENDBRANCH   1  13
TORSDOF 9
ENDMDL
