MODEL 1
REMARK VINA RESULT:      -7.4      0.000      0.000
REMARK  Name = 
REMARK  9 active torsions:
REMARK  status: ('A' for Active; 'I' for Inactive)
REMARK    1  A    between atoms: C_1  and  C_2
REMARK    2  A    between atoms: C_2  and  C_3
REMARK    3  A    between atoms: C_8  and  N_9
REMARK    4  A    between atoms: N_9  and  C_10
REMARK    5  A    between atoms: C_10  and  C_11
REMARK    6  A    between atoms: N_13  and  C_14
REMARK    7  A    between atoms: C_19  and  C_20
REMARK    8  A    between atoms: C_20  and  O_22
REMARK    9  A    between atoms: O_22  and  C_23
REMARK                            x       y       z     vdW  Elec       q    Type
REMARK                         _______ _______ _______ _____ _____    ______ ____
ROOT
ATOM      1  C   UNL     1       7.633   7.857  17.766  0.00  0.00    +0.000 C 
ATOM      2  O   UNL     1       8.128   7.041  18.540  0.00  0.00    +0.000 OA
ATOM      3  N   UNL     1       6.491   7.675  16.996  0.00  0.00    +0.000 N 
ATOM      4  H   UNL     1       6.396   8.282  16.182  0.00  0.00    +0.000 HD
ENDROOT
BRANCH   3   5
ATOM      5  C   UNL     1       5.536   6.637  17.117  0.00  0.00    +0.000 A 
ATOM      6  C   UNL     1       4.311   6.885  17.762  0.00  0.00    +0.000 A 
ATOM      7  C   UNL     1       3.341   5.890  17.902  0.00  0.00    +0.000 A 
ATOM      8  C   UNL     1       3.569   4.625  17.385  0.00  0.00    +0.000 A 
ATOM      9  C   UNL     1       4.766   4.362  16.722  0.00  0.00    +0.000 A 
ATOM     10  C   UNL     1       5.762   5.352  16.576  0.00  0.00    +0.000 A 
BRANCH  10  11
ATOM     11  C   UNL     1       6.995   4.892  15.868  0.00  0.00    +0.000 C 
ATOM     12  O   UNL     1       7.881   4.264  16.434  0.00  0.00    +0.000 OA
BRANCH  11  13
ATOM     13  O   UNL     1       7.025   5.250  14.558  0.00  0.00    +0.000 OA
ATOM     14  C   UNL     1       6.642   4.198  13.662  0.00  0.00    +0.000 C 
ENDBRANCH  11  13
ENDBRANCH  10  11
ENDBRANCH   3   5
BRANCH   1  15
ATOM     15  C   UNL     1       8.299   9.216  17.524  0.00  0.00    +0.000 C 
BRANCH  15  16
ATOM     16  N   UNL     1       8.482   9.904  18.801  0.00  0.00    +0.000 N 
ATOM     17  H   UNL     1       7.643  10.457  18.988  0.00  0.00    +0.000 HD
BRANCH  16  23
ATOM     18  C   UNL     1       9.973  11.319  20.259  0.00  0.00    +0.000 A 
ATOM     19  C   UNL     1      11.075  12.207  20.288  0.00  0.00    +0.000 A 
ATOM     20  C   UNL     1      11.820  12.492  19.149  0.00  0.00    +0.000 A 
ATOM     21  C   UNL     1      11.482  11.889  17.951  0.00  0.00    +0.000 A 
ATOM     22  C   UNL     1      10.399  11.008  17.903  0.00  0.00    +0.000 A 
ATOM     23  C   UNL     1       9.626  10.687  19.043  0.00  0.00    +0.000 A 
BRANCH  18  25
ATOM     24  C   UNL     1       8.865  12.621  22.080  0.00  0.00    +0.000 C 
ATOM     25  C   UNL     1       9.192  11.234  21.549  0.00  0.00    +0.000 C 
ENDBRANCH  18  25
ENDBRANCH  16  23
ENDBRANCH  15  16
ENDBRANCH   1  15
TORSDOF 7
ENDMDL
MODEL 2
REMARK VINA RESULT:      -7.4      3.824      6.784
REMARK  Name = 
REMARK  9 active torsions:
REMARK  status: ('A' for Active; 'I' for Inactive)
REMARK    1  A    between atoms: C_1  and  C_2
REMARK    2  A    between atoms: C_2  and  C_3
REMARK    3  A    between atoms: C_8  and  N_9
REMARK    4  A    between atoms: N_9  and  C_10
REMARK    5  A    between atoms: C_10  and  C_11
REMARK    6  A    between atoms: N_13  and  C_14
REMARK    7  A    between atoms: C_19  and  C_20
REMARK    8  A    between atoms: C_20  and  O_22
REMARK    9  A    between atoms: O_22  and  C_23
REMARK                            x       y       z     vdW  Elec       q    Type
REMARK                         _______ _______ _______ _____ _____    ______ ____
ROOT
ATOM      1  C   UNL     1       3.496   4.824  19.209  0.00  0.00    +0.000 C 
ATOM      2  O   UNL     1       3.780   3.682  19.565  0.00  0.00    +0.000 OA
ATOM      3  N   UNL     1       4.158   5.577  18.247  0.00  0.00    +0.000 N 
ATOM      4  H   UNL     1       4.027   6.587  18.297  0.00  0.00    +0.000 HD
ENDROOT
BRANCH   3   5
ATOM      5  C   UNL     1       5.121   5.116  17.316  0.00  0.00    +0.000 A 
ATOM      6  C   UNL     1       4.703   4.569  16.090  0.00  0.00    +0.000 A 
ATOM      7  C   UNL     1       5.619   4.104  15.144  0.00  0.00    +0.000 A 
ATOM      8  C   UNL     1       6.978   4.191  15.397  0.00  0.00    +0.000 A 
ATOM      9  C   UNL     1       7.417   4.750  16.596  0.00  0.00    +0.000 A 
ATOM     10  C   UNL     1       6.507   5.219  17.568  0.00  0.00    +0.000 A 
BRANCH  10  11
ATOM     11  C   UNL     1       7.146   5.758  18.807  0.00  0.00    +0.000 C 
ATOM     12  O   UNL     1       6.818   5.389  19.928  0.00  0.00    +0.000 OA
BRANCH  11  13
ATOM     13  O   UNL     1       8.102   6.688  18.555  0.00  0.00    +0.000 OA
ATOM     14  C   UNL     1       7.634   7.805  17.785  0.00  0.00    +0.000 C 
ENDBRANCH  11  13
ENDBRANCH  10  11
ENDBRANCH   3   5
BRANCH   1  15
ATOM     15  C   UNL     1       2.346   5.590  19.871  0.00  0.00    +0.000 C 
BRANCH  15  16
ATOM     16  N   UNL     1       2.774   6.958  20.160  0.00  0.00    +0.000 N 
ATOM     17  H   UNL     1       2.954   7.030  21.164  0.00  0.00    +0.000 HD
BRANCH  16  23
ATOM     18  C   UNL     1       1.064   8.775  20.511  0.00  0.00    +0.000 A 
ATOM     19  C   UNL     1       0.257   9.756  19.885  0.00  0.00    +0.000 A 
ATOM     20  C   UNL     1       0.351  10.027  18.524  0.00  0.00    +0.000 A 
ATOM     21  C   UNL     1       1.262   9.324  17.756  0.00  0.00    +0.000 A 
ATOM     22  C   UNL     1       2.069   8.355  18.357  0.00  0.00    +0.000 A 
ATOM     23  C   UNL     1       2.007   8.060  19.739  0.00  0.00    +0.000 A 
BRANCH  18  25
ATOM     24  C   UNL     1       0.103   9.735  22.607  0.00  0.00    +0.000 C 
ATOM     25  C   UNL     1       0.733   8.511  21.961  0.00  0.00    +0.000 C 
ENDBRANCH  18  25
ENDBRANCH  16  23
ENDBRANCH  15  16
ENDBRANCH   1  15
TORSDOF 7
ENDMDL
MODEL 3
REMARK VINA RESULT:      -7.3      5.642      7.232
REMARK  Name = 
REMARK  9 active torsions:
REMARK  status: ('A' for Active; 'I' for Inactive)
REMARK    1  A    between atoms: C_1  and  C_2
REMARK    2  A    between atoms: C_2  and  C_3
REMARK    3  A    between atoms: C_8  and  N_9
REMARK    4  A    between atoms: N_9  and  C_10
REMARK    5  A    between atoms: C_10  and  C_11
REMARK    6  A    between atoms: N_13  and  C_14
REMARK    7  A    between atoms: C_19  and  C_20
REMARK    8  A    between atoms: C_20  and  O_22
REMARK    9  A    between atoms: O_22  and  C_23
REMARK                            x       y       z     vdW  Elec       q    Type
REMARK                         _______ _______ _______ _____ _____    ______ ____
ROOT
ATOM      1  C   UNL     1       2.170   5.509  19.484  0.00  0.00    +0.000 C 
ATOM      2  O   UNL     1       1.435   4.802  18.799  0.00  0.00    +0.000 OA
ATOM      3  N   UNL     1       3.504   5.803  19.227  0.00  0.00    +0.000 N 
ATOM      4  H   UNL     1       4.060   6.110  20.025  0.00  0.00    +0.000 HD
ENDROOT
BRANCH   3   5
ATOM      5  C   UNL     1       4.214   5.567  18.025  0.00  0.00    +0.000 A 
ATOM      6  C   UNL     1       4.464   6.629  17.139  0.00  0.00    +0.000 A 
ATOM      7  C   UNL     1       5.160   6.440  15.943  0.00  0.00    +0.000 A 
ATOM      8  C   UNL     1       5.638   5.182  15.615  0.00  0.00    +0.000 A 
ATOM      9  C   UNL     1       5.424   4.118  16.488  0.00  0.00    +0.000 A 
ATOM     10  C   UNL     1       4.715   4.287  17.697  0.00  0.00    +0.000 A 
BRANCH  10  11
ATOM     11  C   UNL     1       4.547   3.036  18.499  0.00  0.00    +0.000 C 
ATOM     12  O   UNL     1       4.917   2.949  19.662  0.00  0.00    +0.000 OA
BRANCH  11  13
ATOM     13  O   UNL     1       3.961   2.030  17.802  0.00  0.00    +0.000 OA
ATOM     14  C   UNL     1       2.558   1.884  18.066  0.00  0.00    +0.000 C 
ENDBRANCH  11  13
ENDBRANCH  10  11
ENDBRANCH   3   5
BRANCH   1  15
ATOM     15  C   UNL     1       1.671   6.126  20.795  0.00  0.00    +0.000 C 
BRANCH  15  16
ATOM     16  N   UNL     1       2.094   7.523  20.868  0.00  0.00    +0.000 N 
ATOM     17  H   UNL     1       2.254   7.757  21.851  0.00  0.00    +0.000 HD
BRANCH  16  23
ATOM     18  C   UNL     1       0.145   9.117  20.759  0.00  0.00    +0.000 A 
ATOM     19  C   UNL     1      -0.584  10.016  19.943  0.00  0.00    +0.000 A 
ATOM     20  C   UNL     1      -0.174  10.338  18.654  0.00  0.00    +0.000 A 
ATOM     21  C   UNL     1       0.984   9.770  18.152  0.00  0.00    +0.000 A 
ATOM     22  C   UNL     1       1.717   8.884  18.942  0.00  0.00    +0.000 A 
ATOM     23  C   UNL     1       1.335   8.541  20.260  0.00  0.00    +0.000 A 
BRANCH  18  25
ATOM     24  C   UNL     1       0.091   9.571  23.214  0.00  0.00    +0.000 C 
ATOM     25  C   UNL     1      -0.517   8.771  22.072  0.00  0.00    +0.000 C 
ENDBRANCH  18  25
ENDBRANCH  16  23
ENDBRANCH  15  16
ENDBRANCH   1  15
TORSDOF 7
ENDMDL
MODEL 4
REMARK VINA RESULT:      -7.1      1.501      1.915
REMARK  Name = 
REMARK  9 active torsions:
REMARK  status: ('A' for Active; 'I' for Inactive)
REMARK    1  A    between atoms: C_1  and  C_2
REMARK    2  A    between atoms: C_2  and  C_3
REMARK    3  A    between atoms: C_8  and  N_9
REMARK    4  A    between atoms: N_9  and  C_10
REMARK    5  A    between atoms: C_10  and  C_11
REMARK    6  A    between atoms: N_13  and  C_14
REMARK    7  A    between atoms: C_19  and  C_20
REMARK    8  A    between atoms: C_20  and  O_22
REMARK    9  A    between atoms: O_22  and  C_23
REMARK                            x       y       z     vdW  Elec       q    Type
REMARK                         _______ _______ _______ _____ _____    ______ ____
ROOT
ATOM      1  C   UNL     1       7.668   7.730  17.781  0.00  0.00    +0.000 C 
ATOM      2  O   UNL     1       8.286   7.105  18.640  0.00  0.00    +0.000 OA
ATOM      3  N   UNL     1       6.586   7.264  17.043  0.00  0.00    +0.000 N 
ATOM      4  H   UNL     1       6.398   7.749  16.165  0.00  0.00    +0.000 HD
ENDROOT
BRANCH   3   5
ATOM      5  C   UNL     1       5.825   6.096  17.288  0.00  0.00    +0.000 A 
ATOM      6  C   UNL     1       5.105   5.968  18.489  0.00  0.00    +0.000 A 
ATOM      7  C   UNL     1       4.341   4.833  18.769  0.00  0.00    +0.000 A 
ATOM      8  C   UNL     1       4.267   3.805  17.844  0.00  0.00    +0.000 A 
ATOM      9  C   UNL     1       4.953   3.919  16.637  0.00  0.00    +0.000 A 
ATOM     10  C   UNL     1       5.736   5.054  16.338  0.00  0.00    +0.000 A 
BRANCH  10  11
ATOM     11  C   UNL     1       6.430   4.999  15.014  0.00  0.00    +0.000 C 
ATOM     12  O   UNL     1       7.580   5.388  14.860  0.00  0.00    +0.000 OA
BRANCH  11  13
ATOM     13  O   UNL     1       5.653   4.489  14.024  0.00  0.00    +0.000 OA
ATOM     14  C   UNL     1       6.387   3.758  13.032  0.00  0.00    +0.000 C 
ENDBRANCH  11  13
ENDBRANCH  10  11
ENDBRANCH   3   5
BRANCH   1  15
ATOM     15  C   UNL     1       8.090   9.148  17.382  0.00  0.00    +0.000 C 
BRANCH  15  16
ATOM     16  N   UNL     1       8.606   9.851  18.555  0.00  0.00    +0.000 N 
ATOM     17  H   UNL     1       7.822  10.044  19.182  0.00  0.00    +0.000 HD
BRANCH  16  23
ATOM     18  C   UNL     1       9.004  12.224  17.804  0.00  0.00    +0.000 A 
ATOM     19  C   UNL     1       9.971  13.237  17.599  0.00  0.00    +0.000 A 
ATOM     20  C   UNL     1      11.302  13.069  17.965  0.00  0.00    +0.000 A 
ATOM     21  C   UNL     1      11.696  11.879  18.552  0.00  0.00    +0.000 A 
ATOM     22  C   UNL     1      10.756  10.870  18.765  0.00  0.00    +0.000 A 
ATOM     23  C   UNL     1       9.393  11.010  18.415  0.00  0.00    +0.000 A 
BRANCH  18  25
ATOM     24  C   UNL     1       7.183  13.920  17.588  0.00  0.00    +0.000 C 
ATOM     25  C   UNL     1       7.642  12.518  17.221  0.00  0.00    +0.000 C 
ENDBRANCH  18  25
ENDBRANCH  16  23
ENDBRANCH  15  16
ENDBRANCH   1  15
TORSDOF 7
ENDMDL
MODEL 5
REMARK VINA RESULT:      -7.1      5.528      7.311
REMARK  Name = 
REMARK  9 active torsions:
REMARK  status: ('A' for Active; 'I' for Inactive)
REMARK    1  A    between atoms: C_1  and  C_2
REMARK    2  A    between atoms: C_2  and  C_3
REMARK    3  A    between atoms: C_8  and  N_9
REMARK    4  A    between atoms: N_9  and  C_10
REMARK    5  A    between atoms: C_10  and  C_11
REMARK    6  A    between atoms: N_13  and  C_14
REMARK    7  A    between atoms: C_19  and  C_20
REMARK    8  A    between atoms: C_20  and  O_22
REMARK    9  A    between atoms: O_22  and  C_23
REMARK                            x       y       z     vdW  Elec       q    Type
REMARK                         _______ _______ _______ _____ _____    ______ ____
ROOT
ATOM      1  C   UNL     1       2.872   5.469  19.961  0.00  0.00    +0.000 C 
ATOM      2  O   UNL     1       3.429   4.531  20.527  0.00  0.00    +0.000 OA
ATOM      3  N   UNL     1       3.228   6.020  18.736  0.00  0.00    +0.000 N 
ATOM      4  H   UNL     1       2.904   6.971  18.559  0.00  0.00    +0.000 HD
ENDROOT
BRANCH   3   5
ATOM      5  C   UNL     1       4.124   5.478  17.783  0.00  0.00    +0.000 A 
ATOM      6  C   UNL     1       5.331   6.140  17.500  0.00  0.00    +0.000 A 
ATOM      7  C   UNL     1       6.243   5.638  16.568  0.00  0.00    +0.000 A 
ATOM      8  C   UNL     1       5.974   4.450  15.910  0.00  0.00    +0.000 A 
ATOM      9  C   UNL     1       4.795   3.762  16.192  0.00  0.00    +0.000 A 
ATOM     10  C   UNL     1       3.858   4.257  17.124  0.00  0.00    +0.000 A 
BRANCH  10  11
ATOM     11  C   UNL     1       2.634   3.412  17.281  0.00  0.00    +0.000 C 
ATOM     12  O   UNL     1       1.506   3.889  17.295  0.00  0.00    +0.000 OA
BRANCH  11  13
ATOM     13  O   UNL     1       2.910   2.090  17.413  0.00  0.00    +0.000 OA
ATOM     14  C   UNL     1       3.109   1.673  18.772  0.00  0.00    +0.000 C 
ENDBRANCH  11  13
ENDBRANCH  10  11
ENDBRANCH   3   5
BRANCH   1  15
ATOM     15  C   UNL     1       1.695   6.197  20.618  0.00  0.00    +0.000 C 
BRANCH  15  16
ATOM     16  N   UNL     1       2.043   7.603  20.819  0.00  0.00    +0.000 N 
ATOM     17  H   UNL     1       2.146   7.765  21.824  0.00  0.00    +0.000 HD
BRANCH  16  23
ATOM     18  C   UNL     1       0.080   9.183  20.794  0.00  0.00    +0.000 A 
ATOM     19  C   UNL     1      -0.675  10.095  20.019  0.00  0.00    +0.000 A 
ATOM     20  C   UNL     1      -0.297  10.452  18.729  0.00  0.00    +0.000 A 
ATOM     21  C   UNL     1       0.852   9.907  18.186  0.00  0.00    +0.000 A 
ATOM     22  C   UNL     1       1.611   9.007  18.937  0.00  0.00    +0.000 A 
ATOM     23  C   UNL     1       1.263   8.629  20.255  0.00  0.00    +0.000 A 
BRANCH  18  25
ATOM     24  C   UNL     1       0.107   9.545  23.266  0.00  0.00    +0.000 C 
ATOM     25  C   UNL     1      -0.548   8.799  22.113  0.00  0.00    +0.000 C 
ENDBRANCH  18  25
ENDBRANCH  16  23
ENDBRANCH  15  16
ENDBRANCH   1  15
TORSDOF 7
ENDMDL
MODEL 6
REMARK VINA RESULT:      -7.1      5.653      7.544
REMARK  Name = 
REMARK  9 active torsions:
REMARK  status: ('A' for Active; 'I' for Inactive)
REMARK    1  A    between atoms: C_1  and  C_2
REMARK    2  A    between atoms: C_2  and  C_3
REMARK    3  A    between atoms: C_8  and  N_9
REMARK    4  A    between atoms: N_9  and  C_10
REMARK    5  A    between atoms: C_10  and  C_11
REMARK    6  A    between atoms: N_13  and  C_14
REMARK    7  A    between atoms: C_19  and  C_20
REMARK    8  A    between atoms: C_20  and  O_22
REMARK    9  A    between atoms: O_22  and  C_23
REMARK                            x       y       z     vdW  Elec       q    Type
REMARK                         _______ _______ _______ _____ _____    ______ ____
ROOT
ATOM      1  C   UNL     1       2.260   5.562  19.321  0.00  0.00    +0.000 C 
ATOM      2  O   UNL     1       1.513   4.802  18.709  0.00  0.00    +0.000 OA
ATOM      3  N   UNL     1       3.574   5.871  18.990  0.00  0.00    +0.000 N 
ATOM      4  H   UNL     1       4.155   6.234  19.745  0.00  0.00    +0.000 HD
ENDROOT
BRANCH   3   5
ATOM      5  C   UNL     1       4.237   5.583  17.772  0.00  0.00    +0.000 A 
ATOM      6  C   UNL     1       4.577   6.628  16.895  0.00  0.00    +0.000 A 
ATOM      7  C   UNL     1       5.232   6.387  15.686  0.00  0.00    +0.000 A 
ATOM      8  C   UNL     1       5.578   5.093  15.334  0.00  0.00    +0.000 A 
ATOM      9  C   UNL     1       5.274   4.043  16.197  0.00  0.00    +0.000 A 
ATOM     10  C   UNL     1       4.605   4.265  17.420  0.00  0.00    +0.000 A 
BRANCH  10  11
ATOM     11  C   UNL     1       4.327   3.025  18.209  0.00  0.00    +0.000 C 
ATOM     12  O   UNL     1       3.661   2.100  17.764  0.00  0.00    +0.000 OA
BRANCH  11  13
ATOM     13  O   UNL     1       4.877   3.047  19.450  0.00  0.00    +0.000 OA
ATOM     14  C   UNL     1       4.058   2.435  20.457  0.00  0.00    +0.000 C 
ENDBRANCH  11  13
ENDBRANCH  10  11
ENDBRANCH   3   5
BRANCH   1  15
ATOM     15  C   UNL     1       1.802   6.241  20.616  0.00  0.00    +0.000 C 
BRANCH  15  16
ATOM     16  N   UNL     1       2.080   7.675  20.540  0.00  0.00    +0.000 N 
ATOM     17  H   UNL     1       2.954   7.856  21.040  0.00  0.00    +0.000 HD
BRANCH  16  23
ATOM     18  C   UNL     1       0.462   9.552  20.084  0.00  0.00    +0.000 A 
ATOM     19  C   UNL     1      -0.366  10.545  20.660  0.00  0.00    +0.000 A 
ATOM     20  C   UNL     1      -0.546  10.646  22.035  0.00  0.00    +0.000 A 
ATOM     21  C   UNL     1       0.096   9.748  22.869  0.00  0.00    +0.000 A 
ATOM     22  C   UNL     1       0.914   8.759  22.319  0.00  0.00    +0.000 A 
ATOM     23  C   UNL     1       1.113   8.621  20.925  0.00  0.00    +0.000 A 
BRANCH  18  25
ATOM     24  C   UNL     1      -0.636  10.085  17.905  0.00  0.00    +0.000 C 
ATOM     25  C   UNL     1       0.657   9.674  18.592  0.00  0.00    +0.000 C 
ENDBRANCH  18  25
ENDBRANCH  16  23
ENDBRANCH  15  16
ENDBRANCH   1  15
TORSDOF 7
ENDMDL
MODEL 7
REMARK VINA RESULT:      -7.1      1.527      2.796
REMARK  Name = 
REMARK  9 active torsions:
REMARK  status: ('A' for Active; 'I' for Inactive)
REMARK    1  A    between atoms: C_1  and  C_2
REMARK    2  A    between atoms: C_2  and  C_3
REMARK    3  A    between atoms: C_8  and  N_9
REMARK    4  A    between atoms: N_9  and  C_10
REMARK    5  A    between atoms: C_10  and  C_11
REMARK    6  A    between atoms: N_13  and  C_14
REMARK    7  A    between atoms: C_19  and  C_20
REMARK    8  A    between atoms: C_20  and  O_22
REMARK    9  A    between atoms: O_22  and  C_23
REMARK                            x       y       z     vdW  Elec       q    Type
REMARK                         _______ _______ _______ _____ _____    ______ ____
ROOT
ATOM      1  C   UNL     1       7.722   7.656  17.872  0.00  0.00    +0.000 C 
ATOM      2  O   UNL     1       8.217   6.871  18.678  0.00  0.00    +0.000 OA
ATOM      3  N   UNL     1       6.919   7.326  16.787  0.00  0.00    +0.000 N 
ATOM      4  H   UNL     1       6.864   8.019  16.041  0.00  0.00    +0.000 HD
ENDROOT
BRANCH   3   5
ATOM      5  C   UNL     1       6.307   6.076  16.527  0.00  0.00    +0.000 A 
ATOM      6  C   UNL     1       6.987   5.108  15.769  0.00  0.00    +0.000 A 
ATOM      7  C   UNL     1       6.421   3.862  15.490  0.00  0.00    +0.000 A 
ATOM      8  C   UNL     1       5.163   3.551  15.980  0.00  0.00    +0.000 A 
ATOM      9  C   UNL     1       4.479   4.486  16.754  0.00  0.00    +0.000 A 
ATOM     10  C   UNL     1       5.031   5.752  17.040  0.00  0.00    +0.000 A 
BRANCH  10  11
ATOM     11  C   UNL     1       4.150   6.644  17.856  0.00  0.00    +0.000 C 
ATOM     12  O   UNL     1       3.854   7.777  17.499  0.00  0.00    +0.000 OA
BRANCH  11  13
ATOM     13  O   UNL     1       3.734   6.071  19.014  0.00  0.00    +0.000 OA
ATOM     14  C   UNL     1       2.527   6.640  19.540  0.00  0.00    +0.000 C 
ENDBRANCH  11  13
ENDBRANCH  10  11
ENDBRANCH   3   5
BRANCH   1  15
ATOM     15  C   UNL     1       8.005   9.159  17.963  0.00  0.00    +0.000 C 
BRANCH  15  16
ATOM     16  N   UNL     1       8.958   9.412  19.043  0.00  0.00    +0.000 N 
ATOM     17  H   UNL     1       8.485   9.237  19.932  0.00  0.00    +0.000 HD
BRANCH  16  23
ATOM     18  C   UNL     1       9.714  11.508  20.221  0.00  0.00    +0.000 A 
ATOM     19  C   UNL     1      10.335  12.771  20.073  0.00  0.00    +0.000 A 
ATOM     20  C   UNL     1      10.883  13.184  18.863  0.00  0.00    +0.000 A 
ATOM     21  C   UNL     1      10.826  12.337  17.771  0.00  0.00    +0.000 A 
ATOM     22  C   UNL     1      10.220  11.085  17.899  0.00  0.00    +0.000 A 
ATOM     23  C   UNL     1       9.662  10.628  19.116  0.00  0.00    +0.000 A 
BRANCH  18  25
ATOM     24  C   UNL     1       8.843  12.594  22.294  0.00  0.00    +0.000 C 
ATOM     25  C   UNL     1       9.049  11.280  21.558  0.00  0.00    +0.000 C 
ENDBRANCH  18  25
ENDBRANCH  16  23
ENDBRANCH  15  16
ENDBRANCH   1  15
TORSDOF 7
ENDMDL
MODEL 8
REMARK VINA RESULT:      -7.1      4.837      7.897
REMARK  Name = 
REMARK  9 active torsions:
REMARK  status: ('A' for Active; 'I' for Inactive)
REMARK    1  A    between atoms: C_1  and  C_2
REMARK    2  A    between atoms: C_2  and  C_3
REMARK    3  A    between atoms: C_8  and  N_9
REMARK    4  A    between atoms: N_9  and  C_10
REMARK    5  A    between atoms: C_10  and  C_11
REMARK    6  A    between atoms: N_13  and  C_14
REMARK    7  A    between atoms: C_19  and  C_20
REMARK    8  A    between atoms: C_20  and  O_22
REMARK    9  A    between atoms: O_22  and  C_23
REMARK                            x       y       z     vdW  Elec       q    Type
REMARK                         _______ _______ _______ _____ _____    ______ ____
ROOT
ATOM      1  C   UNL     1       2.408   7.813  18.614  0.00  0.00    +0.000 C 
ATOM      2  O   UNL     1       2.105   7.625  19.790  0.00  0.00    +0.000 OA
ATOM      3  N   UNL     1       2.959   6.879  17.745  0.00  0.00    +0.000 N 
ATOM      4  H   UNL     1       3.453   7.253  16.936  0.00  0.00    +0.000 HD
ENDROOT
BRANCH   3   5
ATOM      5  C   UNL     1       3.054   5.480  17.945  0.00  0.00    +0.000 A 
ATOM      6  C   UNL     1       1.903   4.679  17.848  0.00  0.00    +0.000 A 
ATOM      7  C   UNL     1       1.954   3.296  18.037  0.00  0.00    +0.000 A 
ATOM      8  C   UNL     1       3.164   2.680  18.311  0.00  0.00    +0.000 A 
ATOM      9  C   UNL     1       4.322   3.450  18.389  0.00  0.00    +0.000 A 
ATOM     10  C   UNL     1       4.291   4.850  18.209  0.00  0.00    +0.000 A 
BRANCH  10  11
ATOM     11  C   UNL     1       5.617   5.525  18.358  0.00  0.00    +0.000 C 
ATOM     12  O   UNL     1       5.976   6.433  17.620  0.00  0.00    +0.000 OA
BRANCH  11  13
ATOM     13  O   UNL     1       6.363   5.020  19.374  0.00  0.00    +0.000 OA
ATOM     14  C   UNL     1       7.669   5.604  19.478  0.00  0.00    +0.000 C 
ENDBRANCH  11  13
ENDBRANCH  10  11
ENDBRANCH   3   5
BRANCH   1  15
ATOM     15  C   UNL     1       2.247   9.195  17.971  0.00  0.00    +0.000 C 
BRANCH  15  16
ATOM     16  N   UNL     1       0.840   9.419  17.644  0.00  0.00    +0.000 N 
ATOM     17  H   UNL     1       0.786   9.750  16.678  0.00  0.00    +0.000 HD
BRANCH  16  23
ATOM     18  C   UNL     1      -1.340  10.524  18.261  0.00  0.00    +0.000 A 
ATOM     19  C   UNL     1      -1.968  11.484  19.089  0.00  0.00    +0.000 A 
ATOM     20  C   UNL     1      -1.277  12.158  20.090  0.00  0.00    +0.000 A 
ATOM     21  C   UNL     1       0.064  11.882  20.289  0.00  0.00    +0.000 A 
ATOM     22  C   UNL     1       0.701  10.936  19.483  0.00  0.00    +0.000 A 
ATOM     23  C   UNL     1       0.027  10.225  18.463  0.00  0.00    +0.000 A 
BRANCH  18  25
ATOM     24  C   UNL     1      -3.665   9.965  17.539  0.00  0.00    +0.000 C 
ATOM     25  C   UNL     1      -2.198   9.995  17.137  0.00  0.00    +0.000 C 
ENDBRANCH  18  25
ENDBRANCH  16  23
ENDBRANCH  15  16
ENDBRANCH   1  15
TORSDOF 7
ENDMDL
MODEL 9
REMARK VINA RESULT:      -7.0      5.698      7.252
REMARK  Name = 
REMARK  9 active torsions:
REMARK  status: ('A' for Active; 'I' for Inactive)
REMARK    1  A    between atoms: C_1  and  C_2
REMARK    2  A    between atoms: C_2  and  C_3
REMARK    3  A    between atoms: C_8  and  N_9
REMARK    4  A    between atoms: N_9  and  C_10
REMARK    5  A    between atoms: C_10  and  C_11
REMARK    6  A    between atoms: N_13  and  C_14
REMARK    7  A    between atoms: C_19  and  C_20
REMARK    8  A    between atoms: C_20  and  O_22
REMARK    9  A    between atoms: O_22  and  C_23
REMARK                            x       y       z     vdW  Elec       q    Type
REMARK                         _______ _______ _______ _____ _____    ______ ____
ROOT
ATOM      1  C   UNL     1       2.160   5.516  19.392  0.00  0.00    +0.000 C 
ATOM      2  O   UNL     1       1.437   4.725  18.792  0.00  0.00    +0.000 OA
ATOM      3  N   UNL     1       3.471   5.844  19.066  0.00  0.00    +0.000 N 
ATOM      4  H   UNL     1       4.037   6.238  19.817  0.00  0.00    +0.000 HD
ENDROOT
BRANCH   3   5
ATOM      5  C   UNL     1       4.153   5.541  17.863  0.00  0.00    +0.000 A 
ATOM      6  C   UNL     1       4.502   6.574  16.976  0.00  0.00    +0.000 A 
ATOM      7  C   UNL     1       5.175   6.319  15.779  0.00  0.00    +0.000 A 
ATOM      8  C   UNL     1       5.530   5.021  15.451  0.00  0.00    +0.000 A 
ATOM      9  C   UNL     1       5.217   3.983  16.325  0.00  0.00    +0.000 A 
ATOM     10  C   UNL     1       4.530   4.219  17.535  0.00  0.00    +0.000 A 
BRANCH  10  11
ATOM     11  C   UNL     1       4.244   2.990  18.338  0.00  0.00    +0.000 C 
ATOM     12  O   UNL     1       3.821   1.960  17.830  0.00  0.00    +0.000 OA
BRANCH  11  13
ATOM     13  O   UNL     1       4.493   3.148  19.663  0.00  0.00    +0.000 OA
ATOM     14  C   UNL     1       4.601   1.912  20.382  0.00  0.00    +0.000 C 
ENDBRANCH  11  13
ENDBRANCH  10  11
ENDBRANCH   3   5
BRANCH   1  15
ATOM     15  C   UNL     1       1.675   6.216  20.665  0.00  0.00    +0.000 C 
BRANCH  15  16
ATOM     16  N   UNL     1       2.221   7.571  20.716  0.00  0.00    +0.000 N 
ATOM     17  H   UNL     1       2.576   7.736  21.660  0.00  0.00    +0.000 HD
BRANCH  16  23
ATOM     18  C   UNL     1       0.581   9.445  21.102  0.00  0.00    +0.000 A 
ATOM     19  C   UNL     1      -0.241  10.421  20.490  0.00  0.00    +0.000 A 
ATOM     20  C   UNL     1      -0.230  10.637  19.117  0.00  0.00    +0.000 A 
ATOM     21  C   UNL     1       0.613   9.881  18.321  0.00  0.00    +0.000 A 
ATOM     22  C   UNL     1       1.433   8.915  18.907  0.00  0.00    +0.000 A 
ATOM     23  C   UNL     1       1.455   8.676  20.300  0.00  0.00    +0.000 A 
BRANCH  18  25
ATOM     24  C   UNL     1      -0.795  10.131  23.070  0.00  0.00    +0.000 C 
ATOM     25  C   UNL     1       0.339   9.245  22.579  0.00  0.00    +0.000 C 
ENDBRANCH  18  25
ENDBRANCH  16  23
ENDBRANCH  15  16
ENDBRANCH   1  15
TORSDOF 7
ENDMDL
