MODEL 1
REMARK VINA RESULT:      -7.1      0.000      0.000
REMARK  Name = 
REMARK  9 active torsions:
REMARK  status: ('A' for Active; 'I' for Inactive)
REMARK    1  A    between atoms: C_1  and  O_2
REMARK    2  A    between atoms: O_2  and  C_3
REMARK    3  A    between atoms: C_3  and  C_5
REMARK    4  A    between atoms: C_5  and  C_6
REMARK    5  A    between atoms: C_5  and  C_16
REMARK    6  A    between atoms: C_9  and  O_10
REMARK    7  A    between atoms: O_10  and  C_11
REMARK    8  A    between atoms: C_12  and  O_13
REMARK    9  A    between atoms: O_13  and  C_14
REMARK                            x       y       z     vdW  Elec       q    Type
REMARK                         _______ _______ _______ _____ _____    ______ ____
ROOT
ATOM      1  C   UNL     1       6.440   4.375  16.323  0.00  0.00    +0.000 C 
ENDROOT
BRANCH   1   2
ATOM      2  C   UNL     1       6.357   4.693  14.796  0.00  0.00    +0.000 C 
ATOM      3  C   UNL     1       5.771   3.495  13.999  0.00  0.00    +0.000 C 
ATOM      4  C   UNL     1       5.780   3.788  12.497  0.00  0.00    +0.000 C 
ATOM      5  C   UNL     1       7.202   4.142  12.057  0.00  0.00    +0.000 C 
ATOM      6  C   UNL     1       7.678   5.361  12.842  0.00  0.00    +0.000 C 
ATOM      7  N   UNL     1       7.694   5.066  14.279  0.00  0.00    +0.000 NA
ATOM      8  H   UNL     1       8.014   5.939  14.757  0.00  0.00    +0.000 HD
ENDBRANCH   1   2
BRANCH   1   9
ATOM      9  C   UNL     1       5.038   4.312  16.915  0.00  0.00    +0.000 A 
ATOM     10  C   UNL     1       4.414   3.086  17.207  0.00  0.00    +0.000 A 
ATOM     11  C   UNL     1       3.149   3.055  17.783  0.00  0.00    +0.000 A 
ATOM     12  C   UNL     1       2.465   4.236  18.088  0.00  0.00    +0.000 A 
ATOM     13  C   UNL     1       3.074   5.486  17.797  0.00  0.00    +0.000 A 
ATOM     14  C   UNL     1       4.361   5.503  17.214  0.00  0.00    +0.000 A 
BRANCH  12  15
ATOM     15  O   UNL     1       1.240   4.094  18.662  0.00  0.00    +0.000 OA
ATOM     16  C   UNL     1       0.882   3.250  19.690  0.00  0.00    +0.000 C 
ENDBRANCH  12  15
BRANCH  13  17
ATOM     17  O   UNL     1       2.422   6.642  18.086  0.00  0.00    +0.000 OA
ATOM     18  C   UNL     1       2.896   7.919  17.869  0.00  0.00    +0.000 C 
ENDBRANCH  13  17
ENDBRANCH   1   9
BRANCH   1  19
ATOM     19  C   UNL     1       7.306   5.334  17.127  0.00  0.00    +0.000 C 
ATOM     20  O   UNL     1       7.562   6.456  16.709  0.00  0.00    +0.000 OA
BRANCH  19  22
ATOM     21  C   UNL     1       7.830   5.792  19.434  0.00  0.00    +0.000 C 
ATOM     22  O   UNL     1       7.754   4.946  18.347  0.00  0.00    +0.000 OA
ENDBRANCH  19  22
ENDBRANCH   1  19
TORSDOF 6
ENDMDL
MODEL 2
REMARK VINA RESULT:      -7.1      0.693      1.012
REMARK  Name = 
REMARK  9 active torsions:
REMARK  status: ('A' for Active; 'I' for Inactive)
REMARK    1  A    between atoms: C_1  and  O_2
REMARK    2  A    between atoms: O_2  and  C_3
REMARK    3  A    between atoms: C_3  and  C_5
REMARK    4  A    between atoms: C_5  and  C_6
REMARK    5  A    between atoms: C_5  and  C_16
REMARK    6  A    between atoms: C_9  and  O_10
REMARK    7  A    between atoms: O_10  and  C_11
REMARK    8  A    between atoms: C_12  and  O_13
REMARK    9  A    between atoms: O_13  and  C_14
REMARK                            x       y       z     vdW  Elec       q    Type
REMARK                         _______ _______ _______ _____ _____    ______ ____
ROOT
ATOM      1  C   UNL     1       6.481   4.611  16.531  0.00  0.00    +0.000 C 
ENDROOT
BRANCH   1   2
ATOM      2  C   UNL     1       6.409   4.854  14.990  0.00  0.00    +0.000 C 
ATOM      3  C   UNL     1       5.821   3.622  14.249  0.00  0.00    +0.000 C 
ATOM      4  C   UNL     1       5.840   3.840  12.735  0.00  0.00    +0.000 C 
ATOM      5  C   UNL     1       7.267   4.163  12.287  0.00  0.00    +0.000 C 
ATOM      6  C   UNL     1       7.747   5.416  13.014  0.00  0.00    +0.000 C 
ATOM      7  N   UNL     1       7.752   5.193  14.464  0.00  0.00    +0.000 NA
ATOM      8  H   UNL     1       8.075   6.086  14.900  0.00  0.00    +0.000 HD
ENDBRANCH   1   2
BRANCH   1   9
ATOM      9  C   UNL     1       5.074   4.545  17.110  0.00  0.00    +0.000 A 
ATOM     10  C   UNL     1       4.396   3.323  17.263  0.00  0.00    +0.000 A 
ATOM     11  C   UNL     1       3.127   3.284  17.830  0.00  0.00    +0.000 A 
ATOM     12  C   UNL     1       2.492   4.452  18.263  0.00  0.00    +0.000 A 
ATOM     13  C   UNL     1       3.157   5.699  18.114  0.00  0.00    +0.000 A 
ATOM     14  C   UNL     1       4.447   5.724  17.539  0.00  0.00    +0.000 A 
BRANCH  12  15
ATOM     15  O   UNL     1       1.259   4.301  18.816  0.00  0.00    +0.000 OA
ATOM     16  C   UNL     1       0.951   4.024  20.130  0.00  0.00    +0.000 C 
ENDBRANCH  12  15
BRANCH  13  17
ATOM     17  O   UNL     1       2.554   6.843  18.529  0.00  0.00    +0.000 OA
ATOM     18  C   UNL     1       2.618   8.070  17.901  0.00  0.00    +0.000 C 
ENDBRANCH  13  17
ENDBRANCH   1   9
BRANCH   1  19
ATOM     19  C   UNL     1       7.316   5.628  17.297  0.00  0.00    +0.000 C 
ATOM     20  O   UNL     1       7.804   5.353  18.385  0.00  0.00    +0.000 OA
BRANCH  19  22
ATOM     21  C   UNL     1       7.713   7.999  17.454  0.00  0.00    +0.000 C 
ATOM     22  O   UNL     1       7.558   6.836  16.730  0.00  0.00    +0.000 OA
ENDBRANCH  19  22
ENDBRANCH   1  19
TORSDOF 6
ENDMDL
MODEL 3
REMARK VINA RESULT:      -7.0      1.500      1.732
REMARK  Name = 
REMARK  9 active torsions:
REMARK  status: ('A' for Active; 'I' for Inactive)
REMARK    1  A    between atoms: C_1  and  O_2
REMARK    2  A    between atoms: O_2  and  C_3
REMARK    3  A    between atoms: C_3  and  C_5
REMARK    4  A    between atoms: C_5  and  C_6
REMARK    5  A    between atoms: C_5  and  C_16
REMARK    6  A    between atoms: C_9  and  O_10
REMARK    7  A    between atoms: O_10  and  C_11
REMARK    8  A    between atoms: C_12  and  O_13
REMARK    9  A    between atoms: O_13  and  C_14
REMARK                            x       y       z     vdW  Elec       q    Type
REMARK                         _______ _______ _______ _____ _____    ______ ____
ROOT
ATOM      1  C   UNL     1       6.662   5.223  17.412  0.00  0.00    +0.000 C 
ENDROOT
BRANCH   1   2
ATOM      2  C   UNL     1       6.375   5.236  15.876  0.00  0.00    +0.000 C 
ATOM      3  C   UNL     1       5.499   4.025  15.453  0.00  0.00    +0.000 C 
ATOM      4  C   UNL     1       5.302   4.003  13.936  0.00  0.00    +0.000 C 
ATOM      5  C   UNL     1       6.668   4.005  13.246  0.00  0.00    +0.000 C 
ATOM      6  C   UNL     1       7.438   5.253  13.667  0.00  0.00    +0.000 C 
ATOM      7  N   UNL     1       7.648   5.256  15.120  0.00  0.00    +0.000 NA
ATOM      8  H   UNL     1       8.166   6.136  15.342  0.00  0.00    +0.000 HD
ENDBRANCH   1   2
BRANCH   1   9
ATOM      9  C   UNL     1       5.351   5.128  18.182  0.00  0.00    +0.000 A 
ATOM     10  C   UNL     1       5.082   4.057  19.052  0.00  0.00    +0.000 A 
ATOM     11  C   UNL     1       3.895   4.012  19.774  0.00  0.00    +0.000 A 
ATOM     12  C   UNL     1       2.939   5.025  19.656  0.00  0.00    +0.000 A 
ATOM     13  C   UNL     1       3.188   6.116  18.779  0.00  0.00    +0.000 A 
ATOM     14  C   UNL     1       4.400   6.150  18.053  0.00  0.00    +0.000 A 
BRANCH  12  15
ATOM     15  O   UNL     1       1.819   4.892  20.417  0.00  0.00    +0.000 OA
ATOM     16  C   UNL     1       0.815   3.958  20.284  0.00  0.00    +0.000 C 
ENDBRANCH  12  15
BRANCH  13  17
ATOM     17  O   UNL     1       2.269   7.108  18.653  0.00  0.00    +0.000 OA
ATOM     18  C   UNL     1       2.430   8.280  17.944  0.00  0.00    +0.000 C 
ENDBRANCH  13  17
ENDBRANCH   1   9
BRANCH   1  19
ATOM     19  C   UNL     1       7.482   6.402  17.916  0.00  0.00    +0.000 C 
ATOM     20  O   UNL     1       8.098   6.337  18.971  0.00  0.00    +0.000 OA
BRANCH  19  22
ATOM     21  C   UNL     1       7.933   8.753  17.638  0.00  0.00    +0.000 C 
ATOM     22  O   UNL     1       7.566   7.517  17.148  0.00  0.00    +0.000 OA
ENDBRANCH  19  22
ENDBRANCH   1  19
TORSDOF 6
ENDMDL
MODEL 4
REMARK VINA RESULT:      -6.7      1.165      1.216
REMARK  Name = 
REMARK  9 active torsions:
REMARK  status: ('A' for Active; 'I' for Inactive)
REMARK    1  A    between atoms: C_1  and  O_2
REMARK    2  A    between atoms: O_2  and  C_3
REMARK    3  A    between atoms: C_3  and  C_5
REMARK    4  A    between atoms: C_5  and  C_6
REMARK    5  A    between atoms: C_5  and  C_16
REMARK    6  A    between atoms: C_9  and  O_10
REMARK    7  A    between atoms: O_10  and  C_11
REMARK    8  A    between atoms: C_12  and  O_13
REMARK    9  A    between atoms: O_13  and  C_14
REMARK                            x       y       z     vdW  Elec       q    Type
REMARK                         _______ _______ _______ _____ _____    ______ ____
ROOT
ATOM      1  C   UNL     1       6.616   5.292  17.049  0.00  0.00    +0.000 C 
ENDROOT
BRANCH   1   2
ATOM      2  C   UNL     1       6.350   5.224  15.512  0.00  0.00    +0.000 C 
ATOM      3  C   UNL     1       5.500   3.978  15.138  0.00  0.00    +0.000 C 
ATOM      4  C   UNL     1       5.324   3.878  13.622  0.00  0.00    +0.000 C 
ATOM      5  C   UNL     1       6.699   3.867  12.951  0.00  0.00    +0.000 C 
ATOM      6  C   UNL     1       7.444   5.147  13.319  0.00  0.00    +0.000 C 
ATOM      7  N   UNL     1       7.633   5.226  14.772  0.00  0.00    +0.000 NA
ATOM      8  H   UNL     1       8.134   6.125  14.957  0.00  0.00    +0.000 HD
ENDBRANCH   1   2
BRANCH   1   9
ATOM      9  C   UNL     1       5.295   5.228  17.806  0.00  0.00    +0.000 A 
ATOM     10  C   UNL     1       4.981   4.151  18.652  0.00  0.00    +0.000 A 
ATOM     11  C   UNL     1       3.786   4.134  19.362  0.00  0.00    +0.000 A 
ATOM     12  C   UNL     1       2.867   5.183  19.256  0.00  0.00    +0.000 A 
ATOM     13  C   UNL     1       3.163   6.280  18.403  0.00  0.00    +0.000 A 
ATOM     14  C   UNL     1       4.382   6.286  17.689  0.00  0.00    +0.000 A 
BRANCH  12  15
ATOM     15  O   UNL     1       1.736   5.075  20.004  0.00  0.00    +0.000 OA
ATOM     16  C   UNL     1       1.007   3.937  20.273  0.00  0.00    +0.000 C 
ENDBRANCH  12  15
BRANCH  13  17
ATOM     17  O   UNL     1       2.281   7.307  18.288  0.00  0.00    +0.000 OA
ATOM     18  C   UNL     1       2.544   8.549  17.749  0.00  0.00    +0.000 C 
ENDBRANCH  13  17
ENDBRANCH   1   9
BRANCH   1  19
ATOM     19  C   UNL     1       7.423   6.500  17.503  0.00  0.00    +0.000 C 
ATOM     20  O   UNL     1       7.739   7.381  16.714  0.00  0.00    +0.000 OA
BRANCH  19  22
ATOM     21  C   UNL     1       8.187   5.561  19.586  0.00  0.00    +0.000 C 
ATOM     22  O   UNL     1       7.746   6.616  18.815  0.00  0.00    +0.000 OA
ENDBRANCH  19  22
ENDBRANCH   1  19
TORSDOF 6
ENDMDL
MODEL 5
REMARK VINA RESULT:      -6.7      1.286      2.207
REMARK  Name = 
REMARK  9 active torsions:
REMARK  status: ('A' for Active; 'I' for Inactive)
REMARK    1  A    between atoms: C_1  and  O_2
REMARK    2  A    between atoms: O_2  and  C_3
REMARK    3  A    between atoms: C_3  and  C_5
REMARK    4  A    between atoms: C_5  and  C_6
REMARK    5  A    between atoms: C_5  and  C_16
REMARK    6  A    between atoms: C_9  and  O_10
REMARK    7  A    between atoms: O_10  and  C_11
REMARK    8  A    between atoms: C_12  and  O_13
REMARK    9  A    between atoms: O_13  and  C_14
REMARK                            x       y       z     vdW  Elec       q    Type
REMARK                         _______ _______ _______ _____ _____    ______ ____
ROOT
ATOM      1  C   UNL     1       6.600   5.231  16.712  0.00  0.00    +0.000 C 
ENDROOT
BRANCH   1   2
ATOM      2  C   UNL     1       6.428   5.177  15.160  0.00  0.00    +0.000 C 
ATOM      3  C   UNL     1       5.796   3.832  14.707  0.00  0.00    +0.000 C 
ATOM      4  C   UNL     1       5.716   3.759  13.181  0.00  0.00    +0.000 C 
ATOM      5  C   UNL     1       7.111   3.977  12.588  0.00  0.00    +0.000 C 
ATOM      6  C   UNL     1       7.633   5.340  13.032  0.00  0.00    +0.000 C 
ATOM      7  N   UNL     1       7.733   5.396  14.495  0.00  0.00    +0.000 NA
ATOM      8  H   UNL     1       8.082   6.353  14.731  0.00  0.00    +0.000 HD
ENDBRANCH   1   2
BRANCH   1   9
ATOM      9  C   UNL     1       5.260   4.977  17.390  0.00  0.00    +0.000 A 
ATOM     10  C   UNL     1       4.190   5.882  17.271  0.00  0.00    +0.000 A 
ATOM     11  C   UNL     1       2.964   5.610  17.867  0.00  0.00    +0.000 A 
ATOM     12  C   UNL     1       2.760   4.435  18.597  0.00  0.00    +0.000 A 
ATOM     13  C   UNL     1       3.829   3.509  18.734  0.00  0.00    +0.000 A 
ATOM     14  C   UNL     1       5.069   3.797  18.121  0.00  0.00    +0.000 A 
BRANCH  12  15
ATOM     15  O   UNL     1       1.519   4.260  19.127  0.00  0.00    +0.000 OA
ATOM     16  C   UNL     1       1.132   4.419  20.440  0.00  0.00    +0.000 C 
ENDBRANCH  12  15
BRANCH  13  17
ATOM     17  O   UNL     1       3.647   2.364  19.441  0.00  0.00    +0.000 OA
ATOM     18  C   UNL     1       4.378   1.962  20.540  0.00  0.00    +0.000 C 
ENDBRANCH  13  17
ENDBRANCH   1   9
BRANCH   1  19
ATOM     19  C   UNL     1       7.220   6.517  17.239  0.00  0.00    +0.000 C 
ATOM     20  O   UNL     1       6.963   7.598  16.727  0.00  0.00    +0.000 OA
BRANCH  19  22
ATOM     21  C   UNL     1       7.712   5.754  19.471  0.00  0.00    +0.000 C 
ATOM     22  O   UNL     1       8.028   6.456  18.326  0.00  0.00    +0.000 OA
ENDBRANCH  19  22
ENDBRANCH   1  19
TORSDOF 6
ENDMDL
MODEL 6
REMARK VINA RESULT:      -6.6      2.229      6.191
REMARK  Name = 
REMARK  9 active torsions:
REMARK  status: ('A' for Active; 'I' for Inactive)
REMARK    1  A    between atoms: C_1  and  O_2
REMARK    2  A    between atoms: O_2  and  C_3
REMARK    3  A    between atoms: C_3  and  C_5
REMARK    4  A    between atoms: C_5  and  C_6
REMARK    5  A    between atoms: C_5  and  C_16
REMARK    6  A    between atoms: C_9  and  O_10
REMARK    7  A    between atoms: O_10  and  C_11
REMARK    8  A    between atoms: C_12  and  O_13
REMARK    9  A    between atoms: O_13  and  C_14
REMARK                            x       y       z     vdW  Elec       q    Type
REMARK                         _______ _______ _______ _____ _____    ______ ____
ROOT
ATOM      1  C   UNL     1       2.683   5.254  17.850  0.00  0.00    +0.000 C 
ENDROOT
BRANCH   1   2
ATOM      2  C   UNL     1       2.573   4.009  18.787  0.00  0.00    +0.000 C 
ATOM      3  C   UNL     1       1.174   3.926  19.457  0.00  0.00    +0.000 C 
ATOM      4  C   UNL     1       1.113   2.754  20.439  0.00  0.00    +0.000 C 
ATOM      5  C   UNL     1       2.243   2.889  21.462  0.00  0.00    +0.000 C 
ATOM      6  C   UNL     1       3.581   2.903  20.729  0.00  0.00    +0.000 C 
ATOM      7  N   UNL     1       3.645   4.044  19.808  0.00  0.00    +0.000 NA
ATOM      8  H   UNL     1       4.574   3.989  19.332  0.00  0.00    +0.000 HD
ENDBRANCH   1   2
BRANCH   1   9
ATOM      9  C   UNL     1       4.017   5.232  17.115  0.00  0.00    +0.000 A 
ATOM     10  C   UNL     1       4.376   4.168  16.269  0.00  0.00    +0.000 A 
ATOM     11  C   UNL     1       5.582   4.189  15.579  0.00  0.00    +0.000 A 
ATOM     12  C   UNL     1       6.468   5.264  15.704  0.00  0.00    +0.000 A 
ATOM     13  C   UNL     1       6.127   6.348  16.556  0.00  0.00    +0.000 A 
ATOM     14  C   UNL     1       4.897   6.315  17.251  0.00  0.00    +0.000 A 
BRANCH  12  15
ATOM     15  O   UNL     1       7.614   5.192  14.974  0.00  0.00    +0.000 OA
ATOM     16  C   UNL     1       7.740   5.157  13.603  0.00  0.00    +0.000 C 
ENDBRANCH  12  15
BRANCH  13  17
ATOM     17  O   UNL     1       6.977   7.399  16.690  0.00  0.00    +0.000 OA
ATOM     18  C   UNL     1       7.760   7.678  17.792  0.00  0.00    +0.000 C 
ENDBRANCH  13  17
ENDBRANCH   1   9
BRANCH   1  19
ATOM     19  C   UNL     1       2.489   6.594  18.547  0.00  0.00    +0.000 C 
ATOM     20  O   UNL     1       2.174   7.594  17.916  0.00  0.00    +0.000 OA
BRANCH  19  22
ATOM     21  C   UNL     1       1.803   7.415  20.706  0.00  0.00    +0.000 C 
ATOM     22  O   UNL     1       2.620   6.655  19.895  0.00  0.00    +0.000 OA
ENDBRANCH  19  22
ENDBRANCH   1  19
TORSDOF 6
ENDMDL
MODEL 7
REMARK VINA RESULT:      -6.6      1.487      2.424
REMARK  Name = 
REMARK  9 active torsions:
REMARK  status: ('A' for Active; 'I' for Inactive)
REMARK    1  A    between atoms: C_1  and  O_2
REMARK    2  A    between atoms: O_2  and  C_3
REMARK    3  A    between atoms: C_3  and  C_5
REMARK    4  A    between atoms: C_5  and  C_6
REMARK    5  A    between atoms: C_5  and  C_16
REMARK    6  A    between atoms: C_9  and  O_10
REMARK    7  A    between atoms: O_10  and  C_11
REMARK    8  A    between atoms: C_12  and  O_13
REMARK    9  A    between atoms: O_13  and  C_14
REMARK                            x       y       z     vdW  Elec       q    Type
REMARK                         _______ _______ _______ _____ _____    ______ ____
ROOT
ATOM      1  C   UNL     1       6.642   4.795  16.953  0.00  0.00    +0.000 C 
ENDROOT
BRANCH   1   2
ATOM      2  C   UNL     1       6.442   4.952  15.412  0.00  0.00    +0.000 C 
ATOM      3  C   UNL     1       5.789   3.685  14.793  0.00  0.00    +0.000 C 
ATOM      4  C   UNL     1       5.681   3.819  13.273  0.00  0.00    +0.000 C 
ATOM      5  C   UNL     1       7.067   4.105  12.689  0.00  0.00    +0.000 C 
ATOM      6  C   UNL     1       7.610   5.393  13.302  0.00  0.00    +0.000 C 
ATOM      7  N   UNL     1       7.736   5.250  14.757  0.00  0.00    +0.000 NA
ATOM      8  H   UNL     1       8.098   6.164  15.114  0.00  0.00    +0.000 HD
ENDBRANCH   1   2
BRANCH   1   9
ATOM      9  C   UNL     1       5.290   4.651  17.638  0.00  0.00    +0.000 A 
ATOM     10  C   UNL     1       4.184   5.431  17.259  0.00  0.00    +0.000 A 
ATOM     11  C   UNL     1       2.949   5.255  17.873  0.00  0.00    +0.000 A 
ATOM     12  C   UNL     1       2.772   4.301  18.880  0.00  0.00    +0.000 A 
ATOM     13  C   UNL     1       3.878   3.504  19.283  0.00  0.00    +0.000 A 
ATOM     14  C   UNL     1       5.127   3.693  18.649  0.00  0.00    +0.000 A 
BRANCH  12  15
ATOM     15  O   UNL     1       1.522   4.200  19.405  0.00  0.00    +0.000 OA
ATOM     16  C   UNL     1       0.652   3.135  19.314  0.00  0.00    +0.000 C 
ENDBRANCH  12  15
BRANCH  13  17
ATOM     17  O   UNL     1       3.724   2.574  20.260  0.00  0.00    +0.000 OA
ATOM     18  C   UNL     1       4.702   1.728  20.740  0.00  0.00    +0.000 C 
ENDBRANCH  13  17
ENDBRANCH   1   9
BRANCH   1  19
ATOM     19  C   UNL     1       7.446   5.910  17.607  0.00  0.00    +0.000 C 
ATOM     20  O   UNL     1       7.924   5.772  18.725  0.00  0.00    +0.000 OA
BRANCH  19  22
ATOM     21  C   UNL     1       7.654   8.307  17.475  0.00  0.00    +0.000 C 
ATOM     22  O   UNL     1       7.673   7.050  16.908  0.00  0.00    +0.000 OA
ENDBRANCH  19  22
ENDBRANCH   1  19
TORSDOF 6
ENDMDL
MODEL 8
REMARK VINA RESULT:      -6.6      1.251      2.553
REMARK  Name = 
REMARK  9 active torsions:
REMARK  status: ('A' for Active; 'I' for Inactive)
REMARK    1  A    between atoms: C_1  and  O_2
REMARK    2  A    between atoms: O_2  and  C_3
REMARK    3  A    between atoms: C_3  and  C_5
REMARK    4  A    between atoms: C_5  and  C_6
REMARK    5  A    between atoms: C_5  and  C_16
REMARK    6  A    between atoms: C_9  and  O_10
REMARK    7  A    between atoms: O_10  and  C_11
REMARK    8  A    between atoms: C_12  and  O_13
REMARK    9  A    between atoms: O_13  and  C_14
REMARK                            x       y       z     vdW  Elec       q    Type
REMARK                         _______ _______ _______ _____ _____    ______ ____
ROOT
ATOM      1  C   UNL     1       6.023   4.633  16.591  0.00  0.00    +0.000 C 
ENDROOT
BRANCH   1   2
ATOM      2  C   UNL     1       6.101   4.830  15.044  0.00  0.00    +0.000 C 
ATOM      3  C   UNL     1       5.538   3.596  14.287  0.00  0.00    +0.000 C 
ATOM      4  C   UNL     1       5.703   3.767  12.775  0.00  0.00    +0.000 C 
ATOM      5  C   UNL     1       7.176   4.027  12.451  0.00  0.00    +0.000 C 
ATOM      6  C   UNL     1       7.633   5.285  13.184  0.00  0.00    +0.000 C 
ATOM      7  N   UNL     1       7.497   5.107  14.634  0.00  0.00    +0.000 NA
ATOM      8  H   UNL     1       7.812   6.002  15.074  0.00  0.00    +0.000 HD
ENDBRANCH   1   2
BRANCH   1   9
ATOM      9  C   UNL     1       4.952   5.545  17.176  0.00  0.00    +0.000 A 
ATOM     10  C   UNL     1       4.751   6.850  16.694  0.00  0.00    +0.000 A 
ATOM     11  C   UNL     1       3.742   7.650  17.217  0.00  0.00    +0.000 A 
ATOM     12  C   UNL     1       2.901   7.182  18.231  0.00  0.00    +0.000 A 
ATOM     13  C   UNL     1       3.089   5.867  18.736  0.00  0.00    +0.000 A 
ATOM     14  C   UNL     1       4.117   5.064  18.194  0.00  0.00    +0.000 A 
BRANCH  12  15
ATOM     15  O   UNL     1       1.937   8.039  18.662  0.00  0.00    +0.000 OA
ATOM     16  C   UNL     1       1.502   9.195  18.052  0.00  0.00    +0.000 C 
ENDBRANCH  12  15
BRANCH  13  17
ATOM     17  O   UNL     1       2.281   5.397  19.722  0.00  0.00    +0.000 OA
ATOM     18  C   UNL     1       2.567   4.356  20.581  0.00  0.00    +0.000 C 
ENDBRANCH  13  17
ENDBRANCH   1   9
BRANCH   1  19
ATOM     19  C   UNL     1       7.342   4.834  17.325  0.00  0.00    +0.000 C 
ATOM     20  O   UNL     1       8.276   4.060  17.170  0.00  0.00    +0.000 OA
BRANCH  19  22
ATOM     21  C   UNL     1       7.786   5.847  19.467  0.00  0.00    +0.000 C 
ATOM     22  O   UNL     1       7.487   5.922  18.122  0.00  0.00    +0.000 OA
ENDBRANCH  19  22
ENDBRANCH   1  19
TORSDOF 6
ENDMDL
MODEL 9
REMARK VINA RESULT:      -6.6      2.585      4.545
REMARK  Name = 
REMARK  9 active torsions:
REMARK  status: ('A' for Active; 'I' for Inactive)
REMARK    1  A    between atoms: C_1  and  O_2
REMARK    2  A    between atoms: O_2  and  C_3
REMARK    3  A    between atoms: C_3  and  C_5
REMARK    4  A    between atoms: C_5  and  C_6
REMARK    5  A    between atoms: C_5  and  C_16
REMARK    6  A    between atoms: C_9  and  O_10
REMARK    7  A    between atoms: O_10  and  C_11
REMARK    8  A    between atoms: C_12  and  O_13
REMARK    9  A    between atoms: O_13  and  C_14
REMARK                            x       y       z     vdW  Elec       q    Type
REMARK                         _______ _______ _______ _____ _____    ______ ____
ROOT
ATOM      1  C   UNL     1       3.192   4.794  17.551  0.00  0.00    +0.000 C 
ENDROOT
BRANCH   1   2
ATOM      2  C   UNL     1       4.662   5.189  17.198  0.00  0.00    +0.000 C 
ATOM      3  C   UNL     1       5.247   4.264  16.096  0.00  0.00    +0.000 C 
ATOM      4  C   UNL     1       6.714   4.606  15.825  0.00  0.00    +0.000 C 
ATOM      5  C   UNL     1       7.504   4.527  17.133  0.00  0.00    +0.000 C 
ATOM      6  C   UNL     1       6.903   5.505  18.139  0.00  0.00    +0.000 C 
ATOM      7  N   UNL     1       5.505   5.157  18.415  0.00  0.00    +0.000 NA
ATOM      8  H   UNL     1       5.151   5.868  19.096  0.00  0.00    +0.000 HD
ENDBRANCH   1   2
BRANCH   1   9
ATOM      9  C   UNL     1       2.616   5.787  18.552  0.00  0.00    +0.000 A 
ATOM     10  C   UNL     1       2.282   5.405  19.863  0.00  0.00    +0.000 A 
ATOM     11  C   UNL     1       1.794   6.338  20.770  0.00  0.00    +0.000 A 
ATOM     12  C   UNL     1       1.622   7.677  20.407  0.00  0.00    +0.000 A 
ATOM     13  C   UNL     1       1.950   8.086  19.086  0.00  0.00    +0.000 A 
ATOM     14  C   UNL     1       2.447   7.127  18.174  0.00  0.00    +0.000 A 
BRANCH  12  15
ATOM     15  O   UNL     1       1.152   8.511  21.373  0.00  0.00    +0.000 OA
ATOM     16  C   UNL     1      -0.161   8.777  21.692  0.00  0.00    +0.000 C 
ENDBRANCH  12  15
BRANCH  13  17
ATOM     17  O   UNL     1       1.788   9.383  18.717  0.00  0.00    +0.000 OA
ATOM     18  C   UNL     1       0.643   9.941  18.187  0.00  0.00    +0.000 C 
ENDBRANCH  13  17
ENDBRANCH   1   9
BRANCH   1  19
ATOM     19  C   UNL     1       3.022   3.371  18.067  0.00  0.00    +0.000 C 
ATOM     20  O   UNL     1       3.857   2.861  18.801  0.00  0.00    +0.000 OA
BRANCH  19  22
ATOM     21  C   UNL     1       0.916   2.357  18.653  0.00  0.00    +0.000 C 
ATOM     22  O   UNL     1       1.897   2.688  17.741  0.00  0.00    +0.000 OA
ENDBRANCH  19  22
ENDBRANCH   1  19
TORSDOF 6
ENDMDL
