MODEL 1
REMARK VINA RESULT:      -8.8      0.000      0.000
REMARK  Name = 
REMARK  2 active torsions:
REMARK  status: ('A' for Active; 'I' for Inactive)
REMARK    1  A    between atoms: C_2  and  C_3
REMARK    2  A    between atoms: C_15  and  N_16
REMARK                            x       y       z     vdW  Elec       q    Type
REMARK                         _______ _______ _______ _____ _____    ______ ____
ROOT
ATOM      1  O   UNL     1       2.078   5.560  21.164  0.00  0.00    +0.000 OA
ATOM      2  C   UNL     1       2.259   6.203  20.130  0.00  0.00    +0.000 C 
ATOM      3  N   UNL     1       1.843   7.535  19.968  0.00  0.00    +0.000 N 
ATOM      4  C   UNL     1       1.922   8.261  18.698  0.00  0.00    +0.000 C 
ATOM      5  C   UNL     1       1.963   9.774  18.831  0.00  0.00    +0.000 C 
ATOM      6  C   UNL     1       0.982  10.350  19.847  0.00  0.00    +0.000 C 
ATOM      7  C   UNL     1       0.987   9.554  21.152  0.00  0.00    +0.000 C 
ATOM      8  C   UNL     1       0.918   8.045  20.981  0.00  0.00    +0.000 C 
ENDROOT
BRANCH   6   9
ATOM      9  N   UNL     1      -0.359  10.670  19.306  0.00  0.00    +0.000 N 
ATOM     10  C   UNL     1      -1.255  11.465  20.001  0.00  0.00    +0.000 A 
ATOM     11  O   UNL     1      -1.073  11.958  21.107  0.00  0.00    +0.000 OA
ATOM     12  N   UNL     1      -2.451  11.737  19.416  0.00  0.00    +0.000 N 
ATOM     13  C   UNL     1      -2.830  11.286  18.165  0.00  0.00    +0.000 A 
ATOM     14  C   UNL     1      -4.052  11.675  17.623  0.00  0.00    +0.000 A 
ATOM     15  C   UNL     1      -4.406  11.238  16.347  0.00  0.00    +0.000 A 
ATOM     16  C   UNL     1      -3.550  10.399  15.631  0.00  0.00    +0.000 A 
ATOM     17  C   UNL     1      -2.336   9.997  16.189  0.00  0.00    +0.000 A 
ATOM     18  C   UNL     1      -1.976  10.452  17.461  0.00  0.00    +0.000 A 
ATOM     19  C   UNL     1      -0.689  10.082  18.077  0.00  0.00    +0.000 A 
ATOM     20  O   UNL     1       0.015   9.268  17.483  0.00  0.00    +0.000 OA
ATOM     21  H   UNL     1      -3.064  12.338  19.954  0.00  0.00    +0.000 HD
ENDBRANCH   6   9
BRANCH   2  22
ATOM     22  C   UNL     1       3.032   5.526  19.050  0.00  0.00    +0.000 A 
ATOM     23  C   UNL     1       2.402   4.619  18.154  0.00  0.00    +0.000 A 
ATOM     24  C   UNL     1       3.039   4.073  17.027  0.00  0.00    +0.000 A 
ATOM     25  C   UNL     1       4.412   4.375  16.899  0.00  0.00    +0.000 A 
ATOM     26  N   UNL     1       5.221   3.939  15.923  0.00  0.00    +0.000 NA
ATOM     27  S   UNL     1       6.735   4.524  16.275  0.00  0.00    +0.000 S 
ATOM     28  N   UNL     1       6.420   5.400  17.652  0.00  0.00    +0.000 NA
ATOM     29  C   UNL     1       5.112   5.252  17.906  0.00  0.00    +0.000 A 
ATOM     30  C   UNL     1       4.405   5.836  18.980  0.00  0.00    +0.000 A 
ENDBRANCH   2  22
TORSDOF 2
ENDMDL
MODEL 2
REMARK VINA RESULT:      -8.7      0.904      2.062
REMARK  Name = 
REMARK  2 active torsions:
REMARK  status: ('A' for Active; 'I' for Inactive)
REMARK    1  A    between atoms: C_2  and  C_3
REMARK    2  A    between atoms: C_15  and  N_16
REMARK                            x       y       z     vdW  Elec       q    Type
REMARK                         _______ _______ _______ _____ _____    ______ ____
ROOT
ATOM      1  O   UNL     1       2.084   5.688  21.192  0.00  0.00    +0.000 OA
ATOM      2  C   UNL     1       2.243   6.303  20.138  0.00  0.00    +0.000 C 
ATOM      3  N   UNL     1       1.807   7.624  19.944  0.00  0.00    +0.000 N 
ATOM      4  C   UNL     1       1.860   8.313  18.652  0.00  0.00    +0.000 C 
ATOM      5  C   UNL     1       1.881   9.830  18.741  0.00  0.00    +0.000 C 
ATOM      6  C   UNL     1       0.905  10.423  19.752  0.00  0.00    +0.000 C 
ATOM      7  C   UNL     1       0.939   9.664  21.080  0.00  0.00    +0.000 C 
ATOM      8  C   UNL     1       0.888   8.151  20.953  0.00  0.00    +0.000 C 
ENDROOT
BRANCH   6   9
ATOM      9  N   UNL     1      -0.447  10.709  19.221  0.00  0.00    +0.000 N 
ATOM     10  C   UNL     1      -0.910  10.126  18.052  0.00  0.00    +0.000 A 
ATOM     11  O   UNL     1      -0.282   9.360  17.332  0.00  0.00    +0.000 OA
ATOM     12  N   UNL     1      -2.176  10.418  17.655  0.00  0.00    +0.000 N 
ATOM     13  C   UNL     1      -3.041  11.246  18.345  0.00  0.00    +0.000 A 
ATOM     14  C   UNL     1      -4.345  11.428  17.890  0.00  0.00    +0.000 A 
ATOM     15  C   UNL     1      -5.216  12.241  18.616  0.00  0.00    +0.000 A 
ATOM     16  C   UNL     1      -4.775  12.882  19.775  0.00  0.00    +0.000 A 
ATOM     17  C   UNL     1      -3.462  12.709  20.213  0.00  0.00    +0.000 A 
ATOM     18  C   UNL     1      -2.596  11.880  19.494  0.00  0.00    +0.000 A 
ATOM     19  C   UNL     1      -1.211  11.640  19.938  0.00  0.00    +0.000 A 
ATOM     20  O   UNL     1      -0.802  12.281  20.903  0.00  0.00    +0.000 OA
ATOM     21  H   UNL     1      -2.476   9.953  16.806  0.00  0.00    +0.000 HD
ENDBRANCH   6   9
BRANCH   2  22
ATOM     22  C   UNL     1       3.011   5.605  19.068  0.00  0.00    +0.000 A 
ATOM     23  C   UNL     1       2.377   4.681  18.193  0.00  0.00    +0.000 A 
ATOM     24  C   UNL     1       3.009   4.113  17.073  0.00  0.00    +0.000 A 
ATOM     25  C   UNL     1       4.381   4.413  16.933  0.00  0.00    +0.000 A 
ATOM     26  N   UNL     1       5.186   3.958  15.963  0.00  0.00    +0.000 NA
ATOM     27  S   UNL     1       6.702   4.550  16.297  0.00  0.00    +0.000 S 
ATOM     28  N   UNL     1       6.393   5.452  17.658  0.00  0.00    +0.000 NA
ATOM     29  C   UNL     1       5.086   5.309  17.920  0.00  0.00    +0.000 A 
ATOM     30  C   UNL     1       4.384   5.914  18.986  0.00  0.00    +0.000 A 
ENDBRANCH   2  22
TORSDOF 2
ENDMDL
MODEL 3
REMARK VINA RESULT:      -8.7      2.941      4.502
REMARK  Name = 
REMARK  2 active torsions:
REMARK  status: ('A' for Active; 'I' for Inactive)
REMARK    1  A    between atoms: C_2  and  C_3
REMARK    2  A    between atoms: C_15  and  N_16
REMARK                            x       y       z     vdW  Elec       q    Type
REMARK                         _______ _______ _______ _____ _____    ______ ____
ROOT
ATOM      1  O   UNL     1       1.450   9.538  22.214  0.00  0.00    +0.000 OA
ATOM      2  C   UNL     1       0.992   9.493  21.072  0.00  0.00    +0.000 C 
ATOM      3  N   UNL     1       0.088  10.442  20.568  0.00  0.00    +0.000 N 
ATOM      4  C   UNL     1      -0.575  10.320  19.267  0.00  0.00    +0.000 C 
ATOM      5  C   UNL     1      -1.047  11.633  18.667  0.00  0.00    +0.000 C 
ATOM      6  C   UNL     1      -1.727  12.577  19.654  0.00  0.00    +0.000 C 
ATOM      7  C   UNL     1      -0.952  12.671  20.970  0.00  0.00    +0.000 C 
ATOM      8  C   UNL     1      -0.521  11.336  21.554  0.00  0.00    +0.000 C 
ENDROOT
BRANCH   6   9
ATOM      9  N   UNL     1      -3.189  12.387  19.792  0.00  0.00    +0.000 N 
ATOM     10  C   UNL     1      -3.949  11.818  18.784  0.00  0.00    +0.000 A 
ATOM     11  O   UNL     1      -3.535  11.443  17.694  0.00  0.00    +0.000 OA
ATOM     12  N   UNL     1      -5.278  11.650  19.008  0.00  0.00    +0.000 N 
ATOM     13  C   UNL     1      -5.924  11.994  20.181  0.00  0.00    +0.000 A 
ATOM     14  C   UNL     1      -7.280  11.718  20.340  0.00  0.00    +0.000 A 
ATOM     15  C   UNL     1      -7.909  12.042  21.541  0.00  0.00    +0.000 A 
ATOM     16  C   UNL     1      -7.188  12.656  22.567  0.00  0.00    +0.000 A 
ATOM     17  C   UNL     1      -5.834  12.947  22.393  0.00  0.00    +0.000 A 
ATOM     18  C   UNL     1      -5.202  12.605  21.194  0.00  0.00    +0.000 A 
ATOM     19  C   UNL     1      -3.767  12.861  20.979  0.00  0.00    +0.000 A 
ATOM     20  O   UNL     1      -3.162  13.487  21.846  0.00  0.00    +0.000 OA
ATOM     21  H   UNL     1      -5.789  11.212  18.249  0.00  0.00    +0.000 HD
ENDBRANCH   6   9
BRANCH   2  22
ATOM     22  C   UNL     1       1.506   8.409  20.188  0.00  0.00    +0.000 A 
ATOM     23  C   UNL     1       1.931   8.684  18.859  0.00  0.00    +0.000 A 
ATOM     24  C   UNL     1       2.566   7.739  18.036  0.00  0.00    +0.000 A 
ATOM     25  C   UNL     1       2.645   6.431  18.561  0.00  0.00    +0.000 A 
ATOM     26  N   UNL     1       3.179   5.370  17.940  0.00  0.00    +0.000 NA
ATOM     27  S   UNL     1       2.959   4.074  18.956  0.00  0.00    +0.000 S 
ATOM     28  N   UNL     1       2.224   4.813  20.250  0.00  0.00    +0.000 NA
ATOM     29  C   UNL     1       2.101   6.108  19.929  0.00  0.00    +0.000 A 
ATOM     30  C   UNL     1       1.539   7.115  20.746  0.00  0.00    +0.000 A 
ENDBRANCH   2  22
TORSDOF 2
ENDMDL
MODEL 4
REMARK VINA RESULT:      -8.6      2.333      3.685
REMARK  Name = 
REMARK  2 active torsions:
REMARK  status: ('A' for Active; 'I' for Inactive)
REMARK    1  A    between atoms: C_2  and  C_3
REMARK    2  A    between atoms: C_15  and  N_16
REMARK                            x       y       z     vdW  Elec       q    Type
REMARK                         _______ _______ _______ _____ _____    ______ ____
ROOT
ATOM      1  O   UNL     1       1.391   8.653  21.974  0.00  0.00    +0.000 OA
ATOM      2  C   UNL     1       1.181   8.760  20.766  0.00  0.00    +0.000 C 
ATOM      3  N   UNL     1       0.433   9.809  20.205  0.00  0.00    +0.000 N 
ATOM      4  C   UNL     1       0.054   9.869  18.792  0.00  0.00    +0.000 C 
ATOM      5  C   UNL     1      -0.241  11.266  18.270  0.00  0.00    +0.000 C 
ATOM      6  C   UNL     1      -1.081  12.131  19.204  0.00  0.00    +0.000 C 
ATOM      7  C   UNL     1      -0.596  12.035  20.651  0.00  0.00    +0.000 C 
ATOM      8  C   UNL     1      -0.339  10.621  21.147  0.00  0.00    +0.000 C 
ENDROOT
BRANCH   6   9
ATOM      9  N   UNL     1      -2.545  12.009  19.017  0.00  0.00    +0.000 N 
ATOM     10  C   UNL     1      -3.092  11.505  17.849  0.00  0.00    +0.000 A 
ATOM     11  O   UNL     1      -2.468  11.139  16.860  0.00  0.00    +0.000 OA
ATOM     12  N   UNL     1      -4.444  11.396  17.775  0.00  0.00    +0.000 N 
ATOM     13  C   UNL     1      -5.313  11.741  18.794  0.00  0.00    +0.000 A 
ATOM     14  C   UNL     1      -6.682  11.528  18.646  0.00  0.00    +0.000 A 
ATOM     15  C   UNL     1      -7.542  11.850  19.695  0.00  0.00    +0.000 A 
ATOM     16  C   UNL     1      -7.035  12.401  20.873  0.00  0.00    +0.000 A 
ATOM     17  C   UNL     1      -5.665  12.630  21.006  0.00  0.00    +0.000 A 
ATOM     18  C   UNL     1      -4.803  12.289  19.960  0.00  0.00    +0.000 A 
ATOM     19  C   UNL     1      -3.346  12.479  20.068  0.00  0.00    +0.000 A 
ATOM     20  O   UNL     1      -2.917  13.052  21.067  0.00  0.00    +0.000 OA
ATOM     21  H   UNL     1      -4.796  11.005  16.909  0.00  0.00    +0.000 HD
ENDBRANCH   6   9
BRANCH   2  22
ATOM     22  C   UNL     1       1.834   7.754  19.882  0.00  0.00    +0.000 A 
ATOM     23  C   UNL     1       2.386   8.128  18.626  0.00  0.00    +0.000 A 
ATOM     24  C   UNL     1       3.147   7.260  17.824  0.00  0.00    +0.000 A 
ATOM     25  C   UNL     1       3.226   5.926  18.277  0.00  0.00    +0.000 A 
ATOM     26  N   UNL     1       3.869   4.927  17.657  0.00  0.00    +0.000 NA
ATOM     27  S   UNL     1       3.597   3.562  18.565  0.00  0.00    +0.000 S 
ATOM     28  N   UNL     1       2.695   4.190  19.812  0.00  0.00    +0.000 NA
ATOM     29  C   UNL     1       2.552   5.498  19.555  0.00  0.00    +0.000 A 
ATOM     30  C   UNL     1       1.862   6.429  20.364  0.00  0.00    +0.000 A 
ENDBRANCH   2  22
TORSDOF 2
ENDMDL
MODEL 5
REMARK VINA RESULT:      -8.6      4.210      9.148
REMARK  Name = 
REMARK  2 active torsions:
REMARK  status: ('A' for Active; 'I' for Inactive)
REMARK    1  A    between atoms: C_2  and  C_3
REMARK    2  A    between atoms: C_15  and  N_16
REMARK                            x       y       z     vdW  Elec       q    Type
REMARK                         _______ _______ _______ _____ _____    ______ ____
ROOT
ATOM      1  O   UNL     1      -3.506  12.166  19.587  0.00  0.00    +0.000 OA
ATOM      2  C   UNL     1      -2.386  12.343  20.065  0.00  0.00    +0.000 C 
ATOM      3  N   UNL     1      -1.241  11.661  19.618  0.00  0.00    +0.000 N 
ATOM      4  C   UNL     1       0.066  11.755  20.273  0.00  0.00    +0.000 C 
ATOM      5  C   UNL     1       1.251  11.429  19.380  0.00  0.00    +0.000 C 
ATOM      6  C   UNL     1       1.059  10.207  18.488  0.00  0.00    +0.000 C 
ATOM      7  C   UNL     1      -0.316  10.207  17.819  0.00  0.00    +0.000 C 
ATOM      8  C   UNL     1      -1.480  10.508  18.749  0.00  0.00    +0.000 C 
ENDROOT
BRANCH   6   9
ATOM      9  N   UNL     1       1.467   8.921  19.097  0.00  0.00    +0.000 N 
ATOM     10  C   UNL     1       1.140   8.596  20.403  0.00  0.00    +0.000 A 
ATOM     11  O   UNL     1       0.526   9.305  21.190  0.00  0.00    +0.000 OA
ATOM     12  N   UNL     1       1.525   7.380  20.870  0.00  0.00    +0.000 N 
ATOM     13  C   UNL     1       2.210   6.436  20.127  0.00  0.00    +0.000 A 
ATOM     14  C   UNL     1       2.500   5.190  20.677  0.00  0.00    +0.000 A 
ATOM     15  C   UNL     1       3.162   4.237  19.903  0.00  0.00    +0.000 A 
ATOM     16  C   UNL     1       3.548   4.541  18.596  0.00  0.00    +0.000 A 
ATOM     17  C   UNL     1       3.271   5.799  18.059  0.00  0.00    +0.000 A 
ATOM     18  C   UNL     1       2.591   6.745  18.831  0.00  0.00    +0.000 A 
ATOM     19  C   UNL     1       2.246   8.074  18.295  0.00  0.00    +0.000 A 
ATOM     20  O   UNL     1       2.672   8.369  17.181  0.00  0.00    +0.000 OA
ATOM     21  H   UNL     1       1.246   7.180  21.824  0.00  0.00    +0.000 HD
ENDBRANCH   6   9
BRANCH   2  22
ATOM     22  C   UNL     1      -2.266  13.396  21.112  0.00  0.00    +0.000 A 
ATOM     23  C   UNL     1      -1.633  14.639  20.835  0.00  0.00    +0.000 A 
ATOM     24  C   UNL     1      -1.627  15.723  21.729  0.00  0.00    +0.000 A 
ATOM     25  C   UNL     1      -2.181  15.465  23.001  0.00  0.00    +0.000 A 
ATOM     26  N   UNL     1      -2.253  16.340  24.014  0.00  0.00    +0.000 NA
ATOM     27  S   UNL     1      -2.926  15.519  25.292  0.00  0.00    +0.000 S 
ATOM     28  N   UNL     1      -3.205  14.034  24.599  0.00  0.00    +0.000 NA
ATOM     29  C   UNL     1      -2.759  14.115  23.338  0.00  0.00    +0.000 A 
ATOM     30  C   UNL     1      -2.808  13.081  22.375  0.00  0.00    +0.000 A 
ENDBRANCH   2  22
TORSDOF 2
ENDMDL
MODEL 6
REMARK VINA RESULT:      -8.5      4.444      8.518
REMARK  Name = 
REMARK  2 active torsions:
REMARK  status: ('A' for Active; 'I' for Inactive)
REMARK    1  A    between atoms: C_2  and  C_3
REMARK    2  A    between atoms: C_15  and  N_16
REMARK                            x       y       z     vdW  Elec       q    Type
REMARK                         _______ _______ _______ _____ _____    ______ ____
ROOT
ATOM      1  O   UNL     1       1.112  13.999  22.019  0.00  0.00    +0.000 OA
ATOM      2  C   UNL     1       1.247  13.677  20.839  0.00  0.00    +0.000 C 
ATOM      3  N   UNL     1       0.966  12.388  20.356  0.00  0.00    +0.000 N 
ATOM      4  C   UNL     1       1.260  11.952  18.989  0.00  0.00    +0.000 C 
ATOM      5  C   UNL     1       0.420  10.786  18.498  0.00  0.00    +0.000 C 
ATOM      6  C   UNL     1       0.237   9.660  19.511  0.00  0.00    +0.000 C 
ATOM      7  C   UNL     1      -0.099  10.202  20.902  0.00  0.00    +0.000 C 
ATOM      8  C   UNL     1       0.780  11.349  21.371  0.00  0.00    +0.000 C 
ENDROOT
BRANCH   6   9
ATOM      9  N   UNL     1       1.284   8.614  19.476  0.00  0.00    +0.000 N 
ATOM     10  C   UNL     1       1.546   7.806  20.570  0.00  0.00    +0.000 A 
ATOM     11  O   UNL     1       0.991   7.868  21.660  0.00  0.00    +0.000 OA
ATOM     12  N   UNL     1       2.500   6.848  20.440  0.00  0.00    +0.000 N 
ATOM     13  C   UNL     1       3.220   6.613  19.283  0.00  0.00    +0.000 A 
ATOM     14  C   UNL     1       4.131   5.561  19.228  0.00  0.00    +0.000 A 
ATOM     15  C   UNL     1       4.825   5.317  18.044  0.00  0.00    +0.000 A 
ATOM     16  C   UNL     1       4.624   6.136  16.932  0.00  0.00    +0.000 A 
ATOM     17  C   UNL     1       3.724   7.200  17.001  0.00  0.00    +0.000 A 
ATOM     18  C   UNL     1       3.015   7.431  18.183  0.00  0.00    +0.000 A 
ATOM     19  C   UNL     1       2.029   8.521  18.292  0.00  0.00    +0.000 A 
ATOM     20  O   UNL     1       1.927   9.296  17.343  0.00  0.00    +0.000 OA
ATOM     21  H   UNL     1       2.642   6.270  21.260  0.00  0.00    +0.000 HD
ENDBRANCH   6   9
BRANCH   2  22
ATOM     22  C   UNL     1       1.655  14.755  19.895  0.00  0.00    +0.000 A 
ATOM     23  C   UNL     1       3.011  14.909  19.497  0.00  0.00    +0.000 A 
ATOM     24  C   UNL     1       3.430  15.802  18.496  0.00  0.00    +0.000 A 
ATOM     25  C   UNL     1       2.428  16.654  17.984  0.00  0.00    +0.000 A 
ATOM     26  N   UNL     1       2.607  17.599  17.051  0.00  0.00    +0.000 NA
ATOM     27  S   UNL     1       1.139  18.352  16.860  0.00  0.00    +0.000 S 
ATOM     28  N   UNL     1       0.199  17.477  17.915  0.00  0.00    +0.000 NA
ATOM     29  C   UNL     1       1.007  16.568  18.479  0.00  0.00    +0.000 A 
ATOM     30  C   UNL     1       0.624  15.600  19.435  0.00  0.00    +0.000 A 
ENDBRANCH   2  22
TORSDOF 2
ENDMDL
MODEL 7
REMARK VINA RESULT:      -8.5      4.553      9.379
REMARK  Name = 
REMARK  2 active torsions:
REMARK  status: ('A' for Active; 'I' for Inactive)
REMARK    1  A    between atoms: C_2  and  C_3
REMARK    2  A    between atoms: C_15  and  N_16
REMARK                            x       y       z     vdW  Elec       q    Type
REMARK                         _______ _______ _______ _____ _____    ______ ____
ROOT
ATOM      1  O   UNL     1      -4.238  12.496  19.949  0.00  0.00    +0.000 OA
ATOM      2  C   UNL     1      -3.199  12.640  20.592  0.00  0.00    +0.000 C 
ATOM      3  N   UNL     1      -1.952  12.163  20.157  0.00  0.00    +0.000 N 
ATOM      4  C   UNL     1      -0.738  12.199  20.976  0.00  0.00    +0.000 C 
ATOM      5  C   UNL     1       0.562  12.172  20.191  0.00  0.00    +0.000 C 
ATOM      6  C   UNL     1       0.589  11.175  19.037  0.00  0.00    +0.000 C 
ATOM      7  C   UNL     1      -0.700  11.228  18.215  0.00  0.00    +0.000 C 
ATOM      8  C   UNL     1      -1.981  11.224  19.034  0.00  0.00    +0.000 C 
ENDROOT
BRANCH   6   9
ATOM      9  N   UNL     1       1.055   9.817  19.398  0.00  0.00    +0.000 N 
ATOM     10  C   UNL     1       0.733   9.234  20.613  0.00  0.00    +0.000 A 
ATOM     11  O   UNL     1       0.078   9.751  21.509  0.00  0.00    +0.000 OA
ATOM     12  N   UNL     1       1.173   7.971  20.847  0.00  0.00    +0.000 N 
ATOM     13  C   UNL     1       1.910   7.219  19.951  0.00  0.00    +0.000 A 
ATOM     14  C   UNL     1       2.257   5.906  20.259  0.00  0.00    +0.000 A 
ATOM     15  C   UNL     1       2.972   5.150  19.330  0.00  0.00    +0.000 A 
ATOM     16  C   UNL     1       3.354   5.715  18.112  0.00  0.00    +0.000 A 
ATOM     17  C   UNL     1       3.020   7.038  17.819  0.00  0.00    +0.000 A 
ATOM     18  C   UNL     1       2.287   7.787  18.744  0.00  0.00    +0.000 A 
ATOM     19  C   UNL     1       1.881   9.176  18.464  0.00  0.00    +0.000 A 
ATOM     20  O   UNL     1       2.302   9.697  17.434  0.00  0.00    +0.000 OA
ATOM     21  H   UNL     1       0.897   7.580  21.741  0.00  0.00    +0.000 HD
ENDBRANCH   6   9
BRANCH   2  22
ATOM     22  C   UNL     1      -3.297  13.432  21.850  0.00  0.00    +0.000 A 
ATOM     23  C   UNL     1      -3.717  12.829  23.068  0.00  0.00    +0.000 A 
ATOM     24  C   UNL     1      -3.681  13.483  24.311  0.00  0.00    +0.000 A 
ATOM     25  C   UNL     1      -3.320  14.847  24.270  0.00  0.00    +0.000 A 
ATOM     26  N   UNL     1      -3.250  15.669  25.326  0.00  0.00    +0.000 NA
ATOM     27  S   UNL     1      -2.850  17.166  24.727  0.00  0.00    +0.000 S 
ATOM     28  N   UNL     1      -2.697  16.825  23.108  0.00  0.00    +0.000 NA
ATOM     29  C   UNL     1      -2.976  15.521  22.966  0.00  0.00    +0.000 A 
ATOM     30  C   UNL     1      -2.956  14.796  21.753  0.00  0.00    +0.000 A 
ENDBRANCH   2  22
TORSDOF 2
ENDMDL
MODEL 8
REMARK VINA RESULT:      -8.5      1.341      2.361
REMARK  Name = 
REMARK  2 active torsions:
REMARK  status: ('A' for Active; 'I' for Inactive)
REMARK    1  A    between atoms: C_2  and  C_3
REMARK    2  A    between atoms: C_15  and  N_16
REMARK                            x       y       z     vdW  Elec       q    Type
REMARK                         _______ _______ _______ _____ _____    ______ ____
ROOT
ATOM      1  O   UNL     1       1.838   6.020  20.876  0.00  0.00    +0.000 OA
ATOM      2  C   UNL     1       2.094   6.875  20.029  0.00  0.00    +0.000 C 
ATOM      3  N   UNL     1       1.466   8.131  19.989  0.00  0.00    +0.000 N 
ATOM      4  C   UNL     1       1.654   9.098  18.905  0.00  0.00    +0.000 C 
ATOM      5  C   UNL     1       1.370  10.542  19.283  0.00  0.00    +0.000 C 
ATOM      6  C   UNL     1       0.112  10.745  20.121  0.00  0.00    +0.000 C 
ATOM      7  C   UNL     1       0.013   9.716  21.248  0.00  0.00    +0.000 C 
ATOM      8  C   UNL     1       0.275   8.279  20.828  0.00  0.00    +0.000 C 
ENDROOT
BRANCH   6   9
ATOM      9  N   UNL     1      -1.130  10.953  19.342  0.00  0.00    +0.000 N 
ATOM     10  C   UNL     1      -1.321  10.363  18.104  0.00  0.00    +0.000 A 
ATOM     11  O   UNL     1      -0.518   9.652  17.513  0.00  0.00    +0.000 OA
ATOM     12  N   UNL     1      -2.505  10.579  17.474  0.00  0.00    +0.000 N 
ATOM     13  C   UNL     1      -3.539  11.338  17.989  0.00  0.00    +0.000 A 
ATOM     14  C   UNL     1      -4.742  11.444  17.295  0.00  0.00    +0.000 A 
ATOM     15  C   UNL     1      -5.787  12.185  17.844  0.00  0.00    +0.000 A 
ATOM     16  C   UNL     1      -5.619  12.833  19.070  0.00  0.00    +0.000 A 
ATOM     17  C   UNL     1      -4.405  12.737  19.750  0.00  0.00    +0.000 A 
ATOM     18  C   UNL     1      -3.365  11.978  19.206  0.00  0.00    +0.000 A 
ATOM     19  C   UNL     1      -2.077  11.820  19.905  0.00  0.00    +0.000 A 
ATOM     20  O   UNL     1      -1.902  12.469  20.934  0.00  0.00    +0.000 OA
ATOM     21  H   UNL     1      -2.606  10.111  16.580  0.00  0.00    +0.000 HD
ENDBRANCH   6   9
BRANCH   2  22
ATOM     22  C   UNL     1       3.183   6.554  19.064  0.00  0.00    +0.000 A 
ATOM     23  C   UNL     1       3.217   7.146  17.771  0.00  0.00    +0.000 A 
ATOM     24  C   UNL     1       4.295   7.004  16.881  0.00  0.00    +0.000 A 
ATOM     25  C   UNL     1       5.311   6.115  17.293  0.00  0.00    +0.000 A 
ATOM     26  N   UNL     1       6.410   5.806  16.592  0.00  0.00    +0.000 NA
ATOM     27  S   UNL     1       7.233   4.674  17.488  0.00  0.00    +0.000 S 
ATOM     28  N   UNL     1       6.256   4.566  18.828  0.00  0.00    +0.000 NA
ATOM     29  C   UNL     1       5.229   5.401  18.618  0.00  0.00    +0.000 A 
ATOM     30  C   UNL     1       4.158   5.638  19.509  0.00  0.00    +0.000 A 
ENDBRANCH   2  22
TORSDOF 2
ENDMDL
MODEL 9
REMARK VINA RESULT:      -8.5      4.126      8.889
REMARK  Name = 
REMARK  2 active torsions:
REMARK  status: ('A' for Active; 'I' for Inactive)
REMARK    1  A    between atoms: C_2  and  C_3
REMARK    2  A    between atoms: C_15  and  N_16
REMARK                            x       y       z     vdW  Elec       q    Type
REMARK                         _______ _______ _______ _____ _____    ______ ____
ROOT
ATOM      1  O   UNL     1      -3.041  12.316  20.150  0.00  0.00    +0.000 OA
ATOM      2  C   UNL     1      -1.857  12.425  20.468  0.00  0.00    +0.000 C 
ATOM      3  N   UNL     1      -0.828  11.677  19.873  0.00  0.00    +0.000 N 
ATOM      4  C   UNL     1       0.560  11.691  20.340  0.00  0.00    +0.000 C 
ATOM      5  C   UNL     1       1.589  11.296  19.294  0.00  0.00    +0.000 C 
ATOM      6  C   UNL     1       1.204  10.089  18.446  0.00  0.00    +0.000 C 
ATOM      7  C   UNL     1      -0.249  10.171  17.973  0.00  0.00    +0.000 C 
ATOM      8  C   UNL     1      -1.252  10.541  19.053  0.00  0.00    +0.000 C 
ENDROOT
BRANCH   6   9
ATOM      9  N   UNL     1       1.615   8.779  19.002  0.00  0.00    +0.000 N 
ATOM     10  C   UNL     1       1.304   8.408  20.299  0.00  0.00    +0.000 A 
ATOM     11  O   UNL     1       0.703   9.090  21.120  0.00  0.00    +0.000 OA
ATOM     12  N   UNL     1       1.691   7.174  20.717  0.00  0.00    +0.000 N 
ATOM     13  C   UNL     1       2.362   6.257  19.931  0.00  0.00    +0.000 A 
ATOM     14  C   UNL     1       2.655   4.990  20.431  0.00  0.00    +0.000 A 
ATOM     15  C   UNL     1       3.303   4.064  19.614  0.00  0.00    +0.000 A 
ATOM     16  C   UNL     1       3.674   4.414  18.314  0.00  0.00    +0.000 A 
ATOM     17  C   UNL     1       3.394   5.692  17.827  0.00  0.00    +0.000 A 
ATOM     18  C   UNL     1       2.727   6.612  18.642  0.00  0.00    +0.000 A 
ATOM     19  C   UNL     1       2.380   7.960  18.159  0.00  0.00    +0.000 A 
ATOM     20  O   UNL     1       2.792   8.294  17.051  0.00  0.00    +0.000 OA
ATOM     21  H   UNL     1       1.424   6.941  21.667  0.00  0.00    +0.000 HD
ENDBRANCH   6   9
BRANCH   2  22
ATOM     22  C   UNL     1      -1.531  13.468  21.481  0.00  0.00    +0.000 A 
ATOM     23  C   UNL     1      -1.750  13.240  22.867  0.00  0.00    +0.000 A 
ATOM     24  C   UNL     1      -1.321  14.119  23.876  0.00  0.00    +0.000 A 
ATOM     25  C   UNL     1      -0.763  15.335  23.426  0.00  0.00    +0.000 A 
ATOM     26  N   UNL     1      -0.318  16.328  24.208  0.00  0.00    +0.000 NA
ATOM     27  S   UNL     1       0.171  17.544  23.187  0.00  0.00    +0.000 S 
ATOM     28  N   UNL     1      -0.113  16.843  21.707  0.00  0.00    +0.000 NA
ATOM     29  C   UNL     1      -0.625  15.629  21.954  0.00  0.00    +0.000 A 
ATOM     30  C   UNL     1      -1.004  14.676  20.981  0.00  0.00    +0.000 A 
ENDBRANCH   2  22
TORSDOF 2
ENDMDL
