MODEL 1
REMARK VINA RESULT:      -7.6      0.000      0.000
REMARK  Name = 
REMARK  7 active torsions:
REMARK  status: ('A' for Active; 'I' for Inactive)
REMARK    1  A    between atoms: C_1  and  C_2
REMARK    2  A    between atoms: C_2  and  O_3
REMARK    3  A    between atoms: O_3  and  C_4
REMARK    4  A    between atoms: C_9  and  N_10
REMARK    5  A    between atoms: C_14  and  C_16
REMARK    6  A    between atoms: C_20  and  O_21
REMARK    7  A    between atoms: O_21  and  C_22
REMARK                            x       y       z     vdW  Elec       q    Type
REMARK                         _______ _______ _______ _____ _____    ______ ____
ROOT
ATOM      1  N   UNL     1       0.844   9.639  19.639  0.00  0.00    +0.000 N 
ATOM      2  C   UNL     1       1.109   8.870  20.865  0.00  0.00    +0.000 C 
ATOM      3  C   UNL     1       1.342   7.402  20.503  0.00  0.00    +0.000 C 
ATOM      4  N   UNL     1       2.392   7.211  19.487  0.00  0.00    +0.000 N 
ATOM      5  C   UNL     1       3.026   5.966  19.541  0.00  0.00    +0.000 C 
ATOM      6  O   UNL     1       2.828   5.232  20.510  0.00  0.00    +0.000 OA
ATOM      7  C   UNL     1       2.198   8.042  18.288  0.00  0.00    +0.000 C 
ATOM      8  C   UNL     1       1.927   9.532  18.643  0.00  0.00    +0.000 C 
ENDROOT
BRANCH   5   9
ATOM      9  C   UNL     1       3.885   5.473  18.483  0.00  0.00    +0.000 A 
ATOM     10  C   UNL     1       5.101   6.052  18.167  0.00  0.00    +0.000 A 
ATOM     11  C   UNL     1       5.582   5.505  16.959  0.00  0.00    +0.000 A 
ATOM     12  C   UNL     1       6.716   5.767  16.176  0.00  0.00    +0.000 A 
ATOM     13  C   UNL     1       6.897   5.106  14.958  0.00  0.00    +0.000 A 
ATOM     14  C   UNL     1       5.938   4.189  14.527  0.00  0.00    +0.000 A 
ATOM     15  C   UNL     1       4.793   3.903  15.304  0.00  0.00    +0.000 A 
ATOM     16  C   UNL     1       4.642   4.576  16.530  0.00  0.00    +0.000 A 
ATOM     17  N   UNL     1       3.641   4.538  17.493  0.00  0.00    +0.000 N 
ATOM     18  H   UNL     1       2.798   3.986  17.410  0.00  0.00    +0.000 HD
BRANCH  13  19
ATOM     19  O   UNL     1       8.041   5.480  14.311  0.00  0.00    +0.000 OA
ATOM     20  C   UNL     1       8.088   5.352  12.902  0.00  0.00    +0.000 C 
ENDBRANCH  13  19
ENDBRANCH   5   9
BRANCH   1  26
ATOM     21  C   UNL     1      -1.135  10.829  18.746  0.00  0.00    +0.000 A 
ATOM     22  C   UNL     1      -2.119  11.821  18.928  0.00  0.00    +0.000 A 
ATOM     23  C   UNL     1      -2.013  12.762  19.946  0.00  0.00    +0.000 A 
ATOM     24  C   UNL     1      -0.931  12.707  20.808  0.00  0.00    +0.000 A 
ATOM     25  C   UNL     1       0.020  11.690  20.668  0.00  0.00    +0.000 A 
ATOM     26  C   UNL     1      -0.056  10.704  19.658  0.00  0.00    +0.000 A 
BRANCH  21  27
ATOM     27  O   UNL     1      -1.242   9.908  17.727  0.00  0.00    +0.000 OA
BRANCH  27  29
ATOM     28  C   UNL     1      -2.608  10.033  15.757  0.00  0.00    +0.000 C 
ATOM     29  C   UNL     1      -2.569   9.696  17.237  0.00  0.00    +0.000 C 
ENDBRANCH  27  29
ENDBRANCH  21  27
ENDBRANCH   1  26
TORSDOF 5
ENDMDL
MODEL 2
REMARK VINA RESULT:      -7.4      1.282      2.151
REMARK  Name = 
REMARK  7 active torsions:
REMARK  status: ('A' for Active; 'I' for Inactive)
REMARK    1  A    between atoms: C_1  and  C_2
REMARK    2  A    between atoms: C_2  and  O_3
REMARK    3  A    between atoms: O_3  and  C_4
REMARK    4  A    between atoms: C_9  and  N_10
REMARK    5  A    between atoms: C_14  and  C_16
REMARK    6  A    between atoms: C_20  and  O_21
REMARK    7  A    between atoms: O_21  and  C_22
REMARK                            x       y       z     vdW  Elec       q    Type
REMARK                         _______ _______ _______ _____ _____    ______ ____
ROOT
ATOM      1  N   UNL     1       0.890   9.515  19.322  0.00  0.00    +0.000 N 
ATOM      2  C   UNL     1       1.223   8.833  20.582  0.00  0.00    +0.000 C 
ATOM      3  C   UNL     1       1.519   7.359  20.300  0.00  0.00    +0.000 C 
ATOM      4  N   UNL     1       2.552   7.159  19.268  0.00  0.00    +0.000 N 
ATOM      5  C   UNL     1       3.247   5.951  19.376  0.00  0.00    +0.000 C 
ATOM      6  O   UNL     1       3.110   5.267  20.392  0.00  0.00    +0.000 OA
ATOM      7  C   UNL     1       2.287   7.907  18.029  0.00  0.00    +0.000 C 
ATOM      8  C   UNL     1       1.952   9.401  18.304  0.00  0.00    +0.000 C 
ENDROOT
BRANCH   5   9
ATOM      9  C   UNL     1       4.103   5.437  18.325  0.00  0.00    +0.000 A 
ATOM     10  C   UNL     1       5.293   6.041  17.959  0.00  0.00    +0.000 A 
ATOM     11  C   UNL     1       5.770   5.454  16.769  0.00  0.00    +0.000 A 
ATOM     12  C   UNL     1       6.880   5.716  15.952  0.00  0.00    +0.000 A 
ATOM     13  C   UNL     1       7.061   5.006  14.762  0.00  0.00    +0.000 A 
ATOM     14  C   UNL     1       6.126   4.039  14.393  0.00  0.00    +0.000 A 
ATOM     15  C   UNL     1       5.005   3.752  15.204  0.00  0.00    +0.000 A 
ATOM     16  C   UNL     1       4.854   4.476  16.401  0.00  0.00    +0.000 A 
ATOM     17  N   UNL     1       3.873   4.450  17.384  0.00  0.00    +0.000 N 
ATOM     18  H   UNL     1       3.048   3.867  17.343  0.00  0.00    +0.000 HD
BRANCH  13  19
ATOM     19  O   UNL     1       8.180   5.386  14.077  0.00  0.00    +0.000 OA
ATOM     20  C   UNL     1       8.108   5.464  12.664  0.00  0.00    +0.000 C 
ENDBRANCH  13  19
ENDBRANCH   5   9
BRANCH   1  26
ATOM     21  C   UNL     1       0.228  11.875  19.669  0.00  0.00    +0.000 A 
ATOM     22  C   UNL     1      -0.716  12.897  19.453  0.00  0.00    +0.000 A 
ATOM     23  C   UNL     1      -1.988  12.613  18.966  0.00  0.00    +0.000 A 
ATOM     24  C   UNL     1      -2.321  11.303  18.668  0.00  0.00    +0.000 A 
ATOM     25  C   UNL     1      -1.368  10.289  18.827  0.00  0.00    +0.000 A 
ATOM     26  C   UNL     1      -0.060  10.535  19.304  0.00  0.00    +0.000 A 
BRANCH  21  27
ATOM     27  O   UNL     1       1.481  12.165  20.162  0.00  0.00    +0.000 OA
BRANCH  27  29
ATOM     28  C   UNL     1       2.731  13.095  18.337  0.00  0.00    +0.000 C 
ATOM     29  C   UNL     1       2.063  13.375  19.671  0.00  0.00    +0.000 C 
ENDBRANCH  27  29
ENDBRANCH  21  27
ENDBRANCH   1  26
TORSDOF 5
ENDMDL
MODEL 3
REMARK VINA RESULT:      -7.2      1.131      1.462
REMARK  Name = 
REMARK  7 active torsions:
REMARK  status: ('A' for Active; 'I' for Inactive)
REMARK    1  A    between atoms: C_1  and  C_2
REMARK    2  A    between atoms: C_2  and  O_3
REMARK    3  A    between atoms: O_3  and  C_4
REMARK    4  A    between atoms: C_9  and  N_10
REMARK    5  A    between atoms: C_14  and  C_16
REMARK    6  A    between atoms: C_20  and  O_21
REMARK    7  A    between atoms: O_21  and  C_22
REMARK                            x       y       z     vdW  Elec       q    Type
REMARK                         _______ _______ _______ _____ _____    ______ ____
ROOT
ATOM      1  N   UNL     1       0.199   9.860  20.066  0.00  0.00    +0.000 N 
ATOM      2  C   UNL     1       0.326   8.977  21.235  0.00  0.00    +0.000 C 
ATOM      3  C   UNL     1       0.718   7.572  20.772  0.00  0.00    +0.000 C 
ATOM      4  N   UNL     1       1.925   7.554  19.926  0.00  0.00    +0.000 N 
ATOM      5  C   UNL     1       2.631   6.348  19.957  0.00  0.00    +0.000 C 
ATOM      6  O   UNL     1       2.339   5.502  20.804  0.00  0.00    +0.000 OA
ATOM      7  C   UNL     1       1.859   8.500  18.800  0.00  0.00    +0.000 C 
ATOM      8  C   UNL     1       1.429   9.924  19.252  0.00  0.00    +0.000 C 
ENDROOT
BRANCH   5   9
ATOM      9  C   UNL     1       3.678   6.022  19.008  0.00  0.00    +0.000 A 
ATOM     10  C   UNL     1       3.420   5.557  17.731  0.00  0.00    +0.000 A 
ATOM     11  C   UNL     1       4.622   5.110  17.144  0.00  0.00    +0.000 A 
ATOM     12  C   UNL     1       4.917   4.509  15.911  0.00  0.00    +0.000 A 
ATOM     13  C   UNL     1       6.221   4.094  15.626  0.00  0.00    +0.000 A 
ATOM     14  C   UNL     1       7.223   4.278  16.580  0.00  0.00    +0.000 A 
ATOM     15  C   UNL     1       6.950   4.890  17.824  0.00  0.00    +0.000 A 
ATOM     16  C   UNL     1       5.630   5.306  18.079  0.00  0.00    +0.000 A 
ATOM     17  N   UNL     1       5.044   5.904  19.188  0.00  0.00    +0.000 N 
ATOM     18  H   UNL     1       5.538   6.109  20.046  0.00  0.00    +0.000 HD
BRANCH  13  19
ATOM     19  O   UNL     1       6.341   3.517  14.393  0.00  0.00    +0.000 OA
ATOM     20  C   UNL     1       6.708   4.339  13.300  0.00  0.00    +0.000 C 
ENDBRANCH  13  19
ENDBRANCH   5   9
BRANCH   1  26
ATOM     21  C   UNL     1      -1.700  11.026  18.989  0.00  0.00    +0.000 A 
ATOM     22  C   UNL     1      -2.769  11.936  19.107  0.00  0.00    +0.000 A 
ATOM     23  C   UNL     1      -2.889  12.767  20.216  0.00  0.00    +0.000 A 
ATOM     24  C   UNL     1      -1.950  12.680  21.230  0.00  0.00    +0.000 A 
ATOM     25  C   UNL     1      -0.918  11.739  21.145  0.00  0.00    +0.000 A 
ATOM     26  C   UNL     1      -0.767  10.865  20.044  0.00  0.00    +0.000 A 
BRANCH  21  27
ATOM     27  O   UNL     1      -1.584  10.215  17.881  0.00  0.00    +0.000 OA
BRANCH  27  29
ATOM     28  C   UNL     1      -2.690  10.208  15.751  0.00  0.00    +0.000 C 
ATOM     29  C   UNL     1      -2.817   9.894  17.230  0.00  0.00    +0.000 C 
ENDBRANCH  27  29
ENDBRANCH  21  27
ENDBRANCH   1  26
TORSDOF 5
ENDMDL
MODEL 4
REMARK VINA RESULT:      -7.1      1.177      2.286
REMARK  Name = 
REMARK  7 active torsions:
REMARK  status: ('A' for Active; 'I' for Inactive)
REMARK    1  A    between atoms: C_1  and  C_2
REMARK    2  A    between atoms: C_2  and  O_3
REMARK    3  A    between atoms: O_3  and  C_4
REMARK    4  A    between atoms: C_9  and  N_10
REMARK    5  A    between atoms: C_14  and  C_16
REMARK    6  A    between atoms: C_20  and  O_21
REMARK    7  A    between atoms: O_21  and  C_22
REMARK                            x       y       z     vdW  Elec       q    Type
REMARK                         _______ _______ _______ _____ _____    ______ ____
ROOT
ATOM      1  N   UNL     1       0.763   9.253  19.298  0.00  0.00    +0.000 N 
ATOM      2  C   UNL     1       1.158   8.623  20.567  0.00  0.00    +0.000 C 
ATOM      3  C   UNL     1       1.543   7.164  20.313  0.00  0.00    +0.000 C 
ATOM      4  N   UNL     1       2.571   7.007  19.268  0.00  0.00    +0.000 N 
ATOM      5  C   UNL     1       3.343   5.848  19.391  0.00  0.00    +0.000 C 
ATOM      6  O   UNL     1       3.266   5.180  20.423  0.00  0.00    +0.000 OA
ATOM      7  C   UNL     1       2.239   7.708  18.017  0.00  0.00    +0.000 C 
ATOM      8  C   UNL     1       1.814   9.183  18.265  0.00  0.00    +0.000 C 
ENDROOT
BRANCH   5   9
ATOM      9  C   UNL     1       4.214   5.366  18.337  0.00  0.00    +0.000 A 
ATOM     10  C   UNL     1       5.345   6.047  17.922  0.00  0.00    +0.000 A 
ATOM     11  C   UNL     1       5.840   5.458  16.741  0.00  0.00    +0.000 A 
ATOM     12  C   UNL     1       6.908   5.777  15.889  0.00  0.00    +0.000 A 
ATOM     13  C   UNL     1       7.118   5.040  14.720  0.00  0.00    +0.000 A 
ATOM     14  C   UNL     1       6.255   3.991  14.406  0.00  0.00    +0.000 A 
ATOM     15  C   UNL     1       5.179   3.646  15.254  0.00  0.00    +0.000 A 
ATOM     16  C   UNL     1       4.997   4.398  16.429  0.00  0.00    +0.000 A 
ATOM     17  N   UNL     1       4.042   4.331  17.437  0.00  0.00    +0.000 N 
ATOM     18  H   UNL     1       3.265   3.684  17.435  0.00  0.00    +0.000 HD
BRANCH  13  19
ATOM     19  O   UNL     1       8.188   5.483  13.994  0.00  0.00    +0.000 OA
ATOM     20  C   UNL     1       8.084   5.494  12.582  0.00  0.00    +0.000 C 
ENDBRANCH  13  19
ENDBRANCH   5   9
BRANCH   1  26
ATOM     21  C   UNL     1      -0.506  11.103  20.345  0.00  0.00    +0.000 A 
ATOM     22  C   UNL     1      -1.415  12.168  20.193  0.00  0.00    +0.000 A 
ATOM     23  C   UNL     1      -2.156  12.321  19.026  0.00  0.00    +0.000 A 
ATOM     24  C   UNL     1      -1.979  11.421  17.989  0.00  0.00    +0.000 A 
ATOM     25  C   UNL     1      -1.037  10.394  18.112  0.00  0.00    +0.000 A 
ATOM     26  C   UNL     1      -0.251  10.210  19.273  0.00  0.00    +0.000 A 
BRANCH  21  27
ATOM     27  O   UNL     1       0.216  10.952  21.510  0.00  0.00    +0.000 OA
BRANCH  27  29
ATOM     28  C   UNL     1      -0.409   9.611  23.399  0.00  0.00    +0.000 C 
ATOM     29  C   UNL     1      -0.561  10.955  22.711  0.00  0.00    +0.000 C 
ENDBRANCH  27  29
ENDBRANCH  21  27
ENDBRANCH   1  26
TORSDOF 5
ENDMDL
MODEL 5
REMARK VINA RESULT:      -7.1      2.849      9.978
REMARK  Name = 
REMARK  7 active torsions:
REMARK  status: ('A' for Active; 'I' for Inactive)
REMARK    1  A    between atoms: C_1  and  C_2
REMARK    2  A    between atoms: C_2  and  O_3
REMARK    3  A    between atoms: O_3  and  C_4
REMARK    4  A    between atoms: C_9  and  N_10
REMARK    5  A    between atoms: C_14  and  C_16
REMARK    6  A    between atoms: C_20  and  O_21
REMARK    7  A    between atoms: O_21  and  C_22
REMARK                            x       y       z     vdW  Elec       q    Type
REMARK                         _______ _______ _______ _____ _____    ______ ____
ROOT
ATOM      1  N   UNL     1       2.446   6.547  18.955  0.00  0.00    +0.000 N 
ATOM      2  C   UNL     1       2.885   7.571  17.995  0.00  0.00    +0.000 C 
ATOM      3  C   UNL     1       1.856   8.703  17.953  0.00  0.00    +0.000 C 
ATOM      4  N   UNL     1       1.562   9.272  19.281  0.00  0.00    +0.000 N 
ATOM      5  C   UNL     1       1.121  10.598  19.253  0.00  0.00    +0.000 C 
ATOM      6  O   UNL     1       1.205  11.239  18.204  0.00  0.00    +0.000 OA
ATOM      7  C   UNL     1       1.211   8.254  20.284  0.00  0.00    +0.000 C 
ATOM      8  C   UNL     1       2.231   7.081  20.313  0.00  0.00    +0.000 C 
ENDROOT
BRANCH   5   9
ATOM      9  C   UNL     1       0.527  11.256  20.401  0.00  0.00    +0.000 A 
ATOM     10  C   UNL     1      -0.615  10.791  21.029  0.00  0.00    +0.000 A 
ATOM     11  C   UNL     1      -1.073  11.761  21.945  0.00  0.00    +0.000 A 
ATOM     12  C   UNL     1      -2.193  11.824  22.788  0.00  0.00    +0.000 A 
ATOM     13  C   UNL     1      -2.436  12.973  23.547  0.00  0.00    +0.000 A 
ATOM     14  C   UNL     1      -1.559  14.054  23.455  0.00  0.00    +0.000 A 
ATOM     15  C   UNL     1      -0.420  14.007  22.620  0.00  0.00    +0.000 A 
ATOM     16  C   UNL     1      -0.195  12.835  21.875  0.00  0.00    +0.000 A 
ATOM     17  N   UNL     1       0.796  12.490  20.964  0.00  0.00    +0.000 N 
ATOM     18  H   UNL     1       1.538  13.112  20.675  0.00  0.00    +0.000 HD
BRANCH  13  19
ATOM     19  O   UNL     1      -3.570  12.883  24.304  0.00  0.00    +0.000 OA
ATOM     20  C   UNL     1      -4.817  13.118  23.676  0.00  0.00    +0.000 C 
ENDBRANCH  13  19
ENDBRANCH   5   9
BRANCH   1  26
ATOM     21  C   UNL     1       3.950   4.581  18.980  0.00  0.00    +0.000 A 
ATOM     22  C   UNL     1       4.095   3.183  18.892  0.00  0.00    +0.000 A 
ATOM     23  C   UNL     1       3.051   2.377  18.449  0.00  0.00    +0.000 A 
ATOM     24  C   UNL     1       1.842   2.961  18.111  0.00  0.00    +0.000 A 
ATOM     25  C   UNL     1       1.674   4.344  18.251  0.00  0.00    +0.000 A 
ATOM     26  C   UNL     1       2.702   5.198  18.711  0.00  0.00    +0.000 A 
BRANCH  21  27
ATOM     27  O   UNL     1       4.994   5.372  19.409  0.00  0.00    +0.000 OA
BRANCH  27  29
ATOM     28  C   UNL     1       7.360   5.738  19.247  0.00  0.00    +0.000 C 
ATOM     29  C   UNL     1       6.071   5.515  18.478  0.00  0.00    +0.000 C 
ENDBRANCH  27  29
ENDBRANCH  21  27
ENDBRANCH   1  26
TORSDOF 5
ENDMDL
MODEL 6
REMARK VINA RESULT:      -7.1      3.522      5.201
REMARK  Name = 
REMARK  7 active torsions:
REMARK  status: ('A' for Active; 'I' for Inactive)
REMARK    1  A    between atoms: C_1  and  C_2
REMARK    2  A    between atoms: C_2  and  O_3
REMARK    3  A    between atoms: O_3  and  C_4
REMARK    4  A    between atoms: C_9  and  N_10
REMARK    5  A    between atoms: C_14  and  C_16
REMARK    6  A    between atoms: C_20  and  O_21
REMARK    7  A    between atoms: O_21  and  C_22
REMARK                            x       y       z     vdW  Elec       q    Type
REMARK                         _______ _______ _______ _____ _____    ______ ____
ROOT
ATOM      1  N   UNL     1      -0.649  11.262  21.859  0.00  0.00    +0.000 N 
ATOM      2  C   UNL     1      -0.562  11.401  20.397  0.00  0.00    +0.000 C 
ATOM      3  C   UNL     1       0.720  10.730  19.899  0.00  0.00    +0.000 C 
ATOM      4  N   UNL     1       0.851   9.328  20.334  0.00  0.00    +0.000 N 
ATOM      5  C   UNL     1       1.634   8.534  19.492  0.00  0.00    +0.000 C 
ATOM      6  O   UNL     1       1.968   8.974  18.390  0.00  0.00    +0.000 OA
ATOM      7  C   UNL     1       0.673   9.152  21.785  0.00  0.00    +0.000 C 
ATOM      8  C   UNL     1      -0.609   9.858  22.310  0.00  0.00    +0.000 C 
ENDROOT
BRANCH   5   9
ATOM      9  C   UNL     1       2.110   7.217  19.867  0.00  0.00    +0.000 A 
ATOM     10  C   UNL     1       2.852   6.414  19.019  0.00  0.00    +0.000 A 
ATOM     11  C   UNL     1       2.958   5.121  19.573  0.00  0.00    +0.000 A 
ATOM     12  C   UNL     1       3.544   3.931  19.114  0.00  0.00    +0.000 A 
ATOM     13  C   UNL     1       3.423   2.756  19.862  0.00  0.00    +0.000 A 
ATOM     14  C   UNL     1       2.713   2.776  21.062  0.00  0.00    +0.000 A 
ATOM     15  C   UNL     1       2.123   3.966  21.547  0.00  0.00    +0.000 A 
ATOM     16  C   UNL     1       2.268   5.135  20.779  0.00  0.00    +0.000 A 
ATOM     17  N   UNL     1       1.799   6.430  20.961  0.00  0.00    +0.000 N 
ATOM     18  H   UNL     1       1.213   6.714  21.734  0.00  0.00    +0.000 HD
BRANCH  13  19
ATOM     19  O   UNL     1       4.036   1.684  19.275  0.00  0.00    +0.000 OA
ATOM     20  C   UNL     1       3.790   1.438  17.903  0.00  0.00    +0.000 C 
ENDBRANCH  13  19
ENDBRANCH   5   9
BRANCH   1  26
ATOM     21  C   UNL     1      -0.591  13.549  22.804  0.00  0.00    +0.000 A 
ATOM     22  C   UNL     1      -1.282  14.601  23.436  0.00  0.00    +0.000 A 
ATOM     23  C   UNL     1      -2.543  14.406  23.989  0.00  0.00    +0.000 A 
ATOM     24  C   UNL     1      -3.136  13.159  23.896  0.00  0.00    +0.000 A 
ATOM     25  C   UNL     1      -2.480  12.124  23.220  0.00  0.00    +0.000 A 
ATOM     26  C   UNL     1      -1.204  12.283  22.630  0.00  0.00    +0.000 A 
BRANCH  21  27
ATOM     27  O   UNL     1       0.664  13.749  22.270  0.00  0.00    +0.000 OA
BRANCH  27  29
ATOM     28  C   UNL     1       2.179  15.604  22.124  0.00  0.00    +0.000 C 
ATOM     29  C   UNL     1       0.862  15.021  21.646  0.00  0.00    +0.000 C 
ENDBRANCH  27  29
ENDBRANCH  21  27
ENDBRANCH   1  26
TORSDOF 5
ENDMDL
MODEL 7
REMARK VINA RESULT:      -7.0      1.550      2.174
REMARK  Name = 
REMARK  7 active torsions:
REMARK  status: ('A' for Active; 'I' for Inactive)
REMARK    1  A    between atoms: C_1  and  C_2
REMARK    2  A    between atoms: C_2  and  O_3
REMARK    3  A    between atoms: O_3  and  C_4
REMARK    4  A    between atoms: C_9  and  N_10
REMARK    5  A    between atoms: C_14  and  C_16
REMARK    6  A    between atoms: C_20  and  O_21
REMARK    7  A    between atoms: O_21  and  C_22
REMARK                            x       y       z     vdW  Elec       q    Type
REMARK                         _______ _______ _______ _____ _____    ______ ____
ROOT
ATOM      1  N   UNL     1      -0.038  10.450  21.064  0.00  0.00    +0.000 N 
ATOM      2  C   UNL     1       0.290   9.447  22.089  0.00  0.00    +0.000 C 
ATOM      3  C   UNL     1       0.444   8.076  21.428  0.00  0.00    +0.000 C 
ATOM      4  N   UNL     1       1.409   8.072  20.313  0.00  0.00    +0.000 N 
ATOM      5  C   UNL     1       2.001   6.829  20.069  0.00  0.00    +0.000 C 
ATOM      6  O   UNL     1       1.851   5.920  20.888  0.00  0.00    +0.000 OA
ATOM      7  C   UNL     1       1.155   9.129  19.321  0.00  0.00    +0.000 C 
ATOM      8  C   UNL     1       0.963  10.523  19.983  0.00  0.00    +0.000 C 
ENDROOT
BRANCH   5   9
ATOM      9  C   UNL     1       2.762   6.540  18.869  0.00  0.00    +0.000 A 
ATOM     10  C   UNL     1       2.920   5.261  18.367  0.00  0.00    +0.000 A 
ATOM     11  C   UNL     1       3.892   5.275  17.346  0.00  0.00    +0.000 A 
ATOM     12  C   UNL     1       4.462   4.266  16.555  0.00  0.00    +0.000 A 
ATOM     13  C   UNL     1       5.486   4.574  15.654  0.00  0.00    +0.000 A 
ATOM     14  C   UNL     1       5.937   5.890  15.552  0.00  0.00    +0.000 A 
ATOM     15  C   UNL     1       5.370   6.923  16.331  0.00  0.00    +0.000 A 
ATOM     16  C   UNL     1       4.335   6.586  17.223  0.00  0.00    +0.000 A 
ATOM     17  N   UNL     1       3.603   7.347  18.126  0.00  0.00    +0.000 N 
ATOM     18  H   UNL     1       3.758   8.332  18.290  0.00  0.00    +0.000 HD
BRANCH  13  19
ATOM     19  O   UNL     1       5.942   3.482  14.971  0.00  0.00    +0.000 OA
ATOM     20  C   UNL     1       6.259   3.633  13.599  0.00  0.00    +0.000 C 
ENDBRANCH  13  19
ENDBRANCH   5   9
BRANCH   1  26
ATOM     21  C   UNL     1      -1.649  12.203  20.384  0.00  0.00    +0.000 A 
ATOM     22  C   UNL     1      -2.637  13.133  20.763  0.00  0.00    +0.000 A 
ATOM     23  C   UNL     1      -2.839  13.466  22.098  0.00  0.00    +0.000 A 
ATOM     24  C   UNL     1      -2.069  12.854  23.072  0.00  0.00    +0.000 A 
ATOM     25  C   UNL     1      -1.124  11.887  22.707  0.00  0.00    +0.000 A 
ATOM     26  C   UNL     1      -0.897  11.507  21.365  0.00  0.00    +0.000 A 
BRANCH  21  27
ATOM     27  O   UNL     1      -1.447  11.888  19.058  0.00  0.00    +0.000 OA
BRANCH  27  29
ATOM     28  C   UNL     1      -2.375  10.000  17.903  0.00  0.00    +0.000 C 
ATOM     29  C   UNL     1      -2.608  11.429  18.359  0.00  0.00    +0.000 C 
ENDBRANCH  27  29
ENDBRANCH  21  27
ENDBRANCH   1  26
TORSDOF 5
ENDMDL
MODEL 8
REMARK VINA RESULT:      -7.0      3.595      5.200
REMARK  Name = 
REMARK  7 active torsions:
REMARK  status: ('A' for Active; 'I' for Inactive)
REMARK    1  A    between atoms: C_1  and  C_2
REMARK    2  A    between atoms: C_2  and  O_3
REMARK    3  A    between atoms: O_3  and  C_4
REMARK    4  A    between atoms: C_9  and  N_10
REMARK    5  A    between atoms: C_14  and  C_16
REMARK    6  A    between atoms: C_20  and  O_21
REMARK    7  A    between atoms: O_21  and  C_22
REMARK                            x       y       z     vdW  Elec       q    Type
REMARK                         _______ _______ _______ _____ _____    ______ ____
ROOT
ATOM      1  N   UNL     1      -0.186  12.092  20.895  0.00  0.00    +0.000 N 
ATOM      2  C   UNL     1      -0.063  12.194  19.433  0.00  0.00    +0.000 C 
ATOM      3  C   UNL     1       1.137  11.367  18.965  0.00  0.00    +0.000 C 
ATOM      4  N   UNL     1       1.095   9.967  19.426  0.00  0.00    +0.000 N 
ATOM      5  C   UNL     1       1.789   9.072  18.608  0.00  0.00    +0.000 C 
ATOM      6  O   UNL     1       2.188   9.449  17.505  0.00  0.00    +0.000 OA
ATOM      7  C   UNL     1       0.878   9.840  20.876  0.00  0.00    +0.000 C 
ATOM      8  C   UNL     1      -0.318  10.701  21.370  0.00  0.00    +0.000 C 
ENDROOT
BRANCH   5   9
ATOM      9  C   UNL     1       2.101   7.714  19.012  0.00  0.00    +0.000 A 
ATOM     10  C   UNL     1       2.248   6.675  18.111  0.00  0.00    +0.000 A 
ATOM     11  C   UNL     1       2.310   5.453  18.812  0.00  0.00    +0.000 A 
ATOM     12  C   UNL     1       2.401   4.116  18.395  0.00  0.00    +0.000 A 
ATOM     13  C   UNL     1       2.366   3.083  19.337  0.00  0.00    +0.000 A 
ATOM     14  C   UNL     1       2.235   3.393  20.690  0.00  0.00    +0.000 A 
ATOM     15  C   UNL     1       2.151   4.733  21.133  0.00  0.00    +0.000 A 
ATOM     16  C   UNL     1       2.199   5.752  20.164  0.00  0.00    +0.000 A 
ATOM     17  N   UNL     1       2.119   7.135  20.267  0.00  0.00    +0.000 N 
ATOM     18  H   UNL     1       1.975   7.629  21.137  0.00  0.00    +0.000 HD
BRANCH  13  19
ATOM     19  O   UNL     1       2.452   1.842  18.771  0.00  0.00    +0.000 OA
ATOM     20  C   UNL     1       3.636   1.502  18.073  0.00  0.00    +0.000 C 
ENDBRANCH  13  19
ENDBRANCH   5   9
BRANCH   1  26
ATOM     21  C   UNL     1       0.241  14.191  22.136  0.00  0.00    +0.000 A 
ATOM     22  C   UNL     1      -0.277  15.364  22.719  0.00  0.00    +0.000 A 
ATOM     23  C   UNL     1      -1.644  15.529  22.912  0.00  0.00    +0.000 A 
ATOM     24  C   UNL     1      -2.511  14.530  22.502  0.00  0.00    +0.000 A 
ATOM     25  C   UNL     1      -2.007  13.387  21.871  0.00  0.00    +0.000 A 
ATOM     26  C   UNL     1      -0.627  13.185  21.641  0.00  0.00    +0.000 A 
BRANCH  21  27
ATOM     27  O   UNL     1       1.599  14.031  21.960  0.00  0.00    +0.000 OA
BRANCH  27  29
ATOM     28  C   UNL     1       3.406  14.311  20.406  0.00  0.00    +0.000 C 
ATOM     29  C   UNL     1       2.211  14.969  21.070  0.00  0.00    +0.000 C 
ENDBRANCH  27  29
ENDBRANCH  21  27
ENDBRANCH   1  26
TORSDOF 5
ENDMDL
MODEL 9
REMARK VINA RESULT:      -7.0      3.242      5.077
REMARK  Name = 
REMARK  7 active torsions:
REMARK  status: ('A' for Active; 'I' for Inactive)
REMARK    1  A    between atoms: C_1  and  C_2
REMARK    2  A    between atoms: C_2  and  O_3
REMARK    3  A    between atoms: O_3  and  C_4
REMARK    4  A    between atoms: C_9  and  N_10
REMARK    5  A    between atoms: C_14  and  C_16
REMARK    6  A    between atoms: C_20  and  O_21
REMARK    7  A    between atoms: O_21  and  C_22
REMARK                            x       y       z     vdW  Elec       q    Type
REMARK                         _______ _______ _______ _____ _____    ______ ____
ROOT
ATOM      1  N   UNL     1      -0.560  11.898  21.449  0.00  0.00    +0.000 N 
ATOM      2  C   UNL     1      -0.535  12.188  20.007  0.00  0.00    +0.000 C 
ATOM      3  C   UNL     1       0.721  11.573  19.386  0.00  0.00    +0.000 C 
ATOM      4  N   UNL     1       0.866  10.134  19.668  0.00  0.00    +0.000 N 
ATOM      5  C   UNL     1       1.609   9.432  18.715  0.00  0.00    +0.000 C 
ATOM      6  O   UNL     1       1.896   9.984  17.651  0.00  0.00    +0.000 OA
ATOM      7  C   UNL     1       0.751   9.808  21.099  0.00  0.00    +0.000 C 
ATOM      8  C   UNL     1      -0.505  10.455  21.750  0.00  0.00    +0.000 C 
ENDROOT
BRANCH   5   9
ATOM      9  C   UNL     1       2.096   8.084  18.930  0.00  0.00    +0.000 A 
ATOM     10  C   UNL     1       2.432   7.229  17.896  0.00  0.00    +0.000 A 
ATOM     11  C   UNL     1       2.640   5.932  18.409  0.00  0.00    +0.000 A 
ATOM     12  C   UNL     1       2.942   4.703  17.803  0.00  0.00    +0.000 A 
ATOM     13  C   UNL     1       3.015   3.539  18.575  0.00  0.00    +0.000 A 
ATOM     14  C   UNL     1       2.781   3.611  19.948  0.00  0.00    +0.000 A 
ATOM     15  C   UNL     1       2.485   4.840  20.580  0.00  0.00    +0.000 A 
ATOM     16  C   UNL     1       2.427   5.997  19.780  0.00  0.00    +0.000 A 
ATOM     17  N   UNL     1       2.143   7.322  20.084  0.00  0.00    +0.000 N 
ATOM     18  H   UNL     1       1.890   7.648  21.006  0.00  0.00    +0.000 HD
BRANCH  13  19
ATOM     19  O   UNL     1       3.305   2.426  17.837  0.00  0.00    +0.000 OA
ATOM     20  C   UNL     1       3.736   1.262  18.519  0.00  0.00    +0.000 C 
ENDBRANCH  13  19
ENDBRANCH   5   9
BRANCH   1  26
ATOM     21  C   UNL     1      -0.385  14.008  22.731  0.00  0.00    +0.000 A 
ATOM     22  C   UNL     1      -1.029  15.006  23.489  0.00  0.00    +0.000 A 
ATOM     23  C   UNL     1      -2.326  14.828  23.960  0.00  0.00    +0.000 A 
ATOM     24  C   UNL     1      -3.001  13.658  23.657  0.00  0.00    +0.000 A 
ATOM     25  C   UNL     1      -2.387  12.687  22.857  0.00  0.00    +0.000 A 
ATOM     26  C   UNL     1      -1.078  12.833  22.345  0.00  0.00    +0.000 A 
BRANCH  21  27
ATOM     27  O   UNL     1       0.905  14.188  22.279  0.00  0.00    +0.000 OA
BRANCH  27  29
ATOM     28  C   UNL     1       0.879  15.597  20.337  0.00  0.00    +0.000 C 
ATOM     29  C   UNL     1       1.208  15.507  21.815  0.00  0.00    +0.000 C 
ENDBRANCH  27  29
ENDBRANCH  21  27
ENDBRANCH   1  26
TORSDOF 5
ENDMDL
