MODEL 1
REMARK VINA RESULT:      -7.5      0.000      0.000
REMARK  Name = 
REMARK  9 active torsions:
REMARK  status: ('A' for Active; 'I' for Inactive)
REMARK    1  A    between atoms: C_1  and  C_2
REMARK    2  A    between atoms: C_2  and  O_3
REMARK    3  A    between atoms: O_3  and  C_4
REMARK    4  A    between atoms: C_10  and  C_11
REMARK    5  A    between atoms: C_13  and  C_14
REMARK    6  A    between atoms: N_17  and  C_18
REMARK    7  A    between atoms: C_18  and  C_19
REMARK    8  A    between atoms: C_23  and  C_24
REMARK    9  A    between atoms: C_26  and  C_27
REMARK                            x       y       z     vdW  Elec       q    Type
REMARK                         _______ _______ _______ _____ _____    ______ ____
ROOT
ATOM      1  C   UNL     1      -0.446  12.112  18.657  0.00  0.00    +0.000 C 
ATOM      2  C   UNL     1      -0.371  13.634  18.796  0.00  0.00    +0.000 C 
ATOM      3  C   UNL     1       0.980  13.865  19.485  0.00  0.00    +0.000 C 
ATOM      4  C   UNL     1       2.125  13.994  18.492  0.00  0.00    +0.000 C 
ATOM      5  C   UNL     1       1.140  12.608  20.327  0.00  0.00    +0.000 C 
ATOM      6  O   UNL     1       1.953  12.469  21.227  0.00  0.00    +0.000 OA
ATOM      7  N   UNL     1       0.251  11.651  19.850  0.00  0.00    +0.000 N 
ENDROOT
BRANCH   1  14
ATOM      8  C   UNL     1      -2.940  12.104  19.132  0.00  0.00    +0.000 A 
ATOM      9  C   UNL     1      -4.230  11.616  18.885  0.00  0.00    +0.000 A 
ATOM     10  C   UNL     1      -4.433  10.582  17.970  0.00  0.00    +0.000 A 
ATOM     11  C   UNL     1      -3.346  10.015  17.316  0.00  0.00    +0.000 A 
ATOM     12  C   UNL     1      -2.066  10.500  17.563  0.00  0.00    +0.000 A 
ATOM     13  F   UNL     1      -1.047   9.945  16.891  0.00  0.00    +0.000 F 
ATOM     14  C   UNL     1      -1.831  11.549  18.462  0.00  0.00    +0.000 A 
BRANCH   8  15
ATOM     15  O   UNL     1      -2.680  13.074  20.067  0.00  0.00    +0.000 OA
BRANCH  15  17
ATOM     16  C   UNL     1      -2.211  12.328  22.288  0.00  0.00    +0.000 C 
ATOM     17  C   UNL     1      -3.273  12.882  21.353  0.00  0.00    +0.000 C 
ENDBRANCH  15  17
ENDBRANCH   8  15
ENDBRANCH   1  14
BRANCH   7  18
ATOM     18  C   UNL     1       0.252  10.281  20.339  0.00  0.00    +0.000 C 
BRANCH  18  19
ATOM     19  C   UNL     1       1.138   9.294  19.608  0.00  0.00    +0.000 A 
ATOM     20  C   UNL     1       1.708   9.690  18.390  0.00  0.00    +0.000 A 
ATOM     21  C   UNL     1       2.499   8.793  17.691  0.00  0.00    +0.000 A 
ATOM     22  N   UNL     1       2.774   7.546  18.120  0.00  0.00    +0.000 NA
ATOM     23  C   UNL     1       2.218   7.154  19.295  0.00  0.00    +0.000 A 
ATOM     24  C   UNL     1       1.404   7.996  20.052  0.00  0.00    +0.000 A 
BRANCH  23  25
ATOM     25  C   UNL     1       2.507   5.780  19.755  0.00  0.00    +0.000 A 
ATOM     26  N   UNL     1       1.765   5.088  20.604  0.00  0.00    +0.000 NA
ATOM     27  C   UNL     1       2.314   3.835  20.828  0.00  0.00    +0.000 A 
ATOM     28  C   UNL     1       1.614   2.885  21.729  0.00  0.00    +0.000 C 
ATOM     29  C   UNL     1       3.495   3.594  20.158  0.00  0.00    +0.000 A 
ATOM     30  S   UNL     1       3.919   4.945  19.203  0.00  0.00    +0.000 S 
ENDBRANCH  23  25
ENDBRANCH  18  19
ENDBRANCH   7  18
TORSDOF 6
ENDMDL
MODEL 2
REMARK VINA RESULT:      -7.5      4.052      8.826
REMARK  Name = 
REMARK  9 active torsions:
REMARK  status: ('A' for Active; 'I' for Inactive)
REMARK    1  A    between atoms: C_1  and  C_2
REMARK    2  A    between atoms: C_2  and  O_3
REMARK    3  A    between atoms: O_3  and  C_4
REMARK    4  A    between atoms: C_10  and  C_11
REMARK    5  A    between atoms: C_13  and  C_14
REMARK    6  A    between atoms: N_17  and  C_18
REMARK    7  A    between atoms: C_18  and  C_19
REMARK    8  A    between atoms: C_23  and  C_24
REMARK    9  A    between atoms: C_26  and  C_27
REMARK                            x       y       z     vdW  Elec       q    Type
REMARK                         _______ _______ _______ _____ _____    ______ ____
ROOT
ATOM      1  C   UNL     1       3.762   5.146  18.092  0.00  0.00    +0.000 C 
ATOM      2  C   UNL     1       3.552   3.657  17.809  0.00  0.00    +0.000 C 
ATOM      3  C   UNL     1       2.121   3.398  18.295  0.00  0.00    +0.000 C 
ATOM      4  C   UNL     1       1.083   3.654  17.212  0.00  0.00    +0.000 C 
ATOM      5  C   UNL     1       1.971   4.403  19.428  0.00  0.00    +0.000 C 
ATOM      6  O   UNL     1       1.078   4.388  20.261  0.00  0.00    +0.000 OA
ATOM      7  N   UNL     1       2.980   5.352  19.303  0.00  0.00    +0.000 N 
ENDROOT
BRANCH   1  14
ATOM      8  C   UNL     1       5.738   6.484  17.223  0.00  0.00    +0.000 A 
ATOM      9  C   UNL     1       7.056   6.942  17.352  0.00  0.00    +0.000 A 
ATOM     10  C   UNL     1       7.850   6.525  18.420  0.00  0.00    +0.000 A 
ATOM     11  C   UNL     1       7.338   5.630  19.352  0.00  0.00    +0.000 A 
ATOM     12  C   UNL     1       6.030   5.175  19.223  0.00  0.00    +0.000 A 
ATOM     13  F   UNL     1       5.565   4.335  20.158  0.00  0.00    +0.000 F 
ATOM     14  C   UNL     1       5.202   5.590  18.171  0.00  0.00    +0.000 A 
BRANCH   8  15
ATOM     15  O   UNL     1       4.938   6.814  16.158  0.00  0.00    +0.000 OA
BRANCH  15  17
ATOM     16  C   UNL     1       5.448   4.902  14.819  0.00  0.00    +0.000 C 
ATOM     17  C   UNL     1       5.413   6.420  14.869  0.00  0.00    +0.000 C 
ENDBRANCH  15  17
ENDBRANCH   8  15
ENDBRANCH   1  14
BRANCH   7  18
ATOM     18  C   UNL     1       3.035   6.539  20.141  0.00  0.00    +0.000 C 
BRANCH  18  19
ATOM     19  C   UNL     1       2.160   7.706  19.732  0.00  0.00    +0.000 A 
ATOM     20  C   UNL     1       2.158   8.094  18.385  0.00  0.00    +0.000 A 
ATOM     21  C   UNL     1       1.387   9.177  17.995  0.00  0.00    +0.000 A 
ATOM     22  N   UNL     1       0.611   9.885  18.839  0.00  0.00    +0.000 NA
ATOM     23  C   UNL     1       0.615   9.519  20.146  0.00  0.00    +0.000 A 
ATOM     24  C   UNL     1       1.371   8.446  20.617  0.00  0.00    +0.000 A 
BRANCH  23  25
ATOM     25  C   UNL     1      -0.224  10.308  21.072  0.00  0.00    +0.000 A 
ATOM     26  N   UNL     1      -0.889  11.405  20.752  0.00  0.00    +0.000 NA
ATOM     27  C   UNL     1      -1.576  11.902  21.848  0.00  0.00    +0.000 A 
ATOM     28  C   UNL     1      -2.414  13.117  21.692  0.00  0.00    +0.000 C 
ATOM     29  C   UNL     1      -1.403  11.182  23.012  0.00  0.00    +0.000 A 
ATOM     30  S   UNL     1      -0.387   9.838  22.730  0.00  0.00    +0.000 S 
ENDBRANCH  23  25
ENDBRANCH  18  19
ENDBRANCH   7  18
TORSDOF 6
ENDMDL
MODEL 3
REMARK VINA RESULT:      -7.3      3.829      7.024
REMARK  Name = 
REMARK  9 active torsions:
REMARK  status: ('A' for Active; 'I' for Inactive)
REMARK    1  A    between atoms: C_1  and  C_2
REMARK    2  A    between atoms: C_2  and  O_3
REMARK    3  A    between atoms: O_3  and  C_4
REMARK    4  A    between atoms: C_10  and  C_11
REMARK    5  A    between atoms: C_13  and  C_14
REMARK    6  A    between atoms: N_17  and  C_18
REMARK    7  A    between atoms: C_18  and  C_19
REMARK    8  A    between atoms: C_23  and  C_24
REMARK    9  A    between atoms: C_26  and  C_27
REMARK                            x       y       z     vdW  Elec       q    Type
REMARK                         _______ _______ _______ _____ _____    ______ ____
ROOT
ATOM      1  C   UNL     1      -0.204  12.326  19.945  0.00  0.00    +0.000 C 
ATOM      2  C   UNL     1       1.208  12.814  20.278  0.00  0.00    +0.000 C 
ATOM      3  C   UNL     1       2.041  12.346  19.078  0.00  0.00    +0.000 C 
ATOM      4  C   UNL     1       2.058  13.364  17.949  0.00  0.00    +0.000 C 
ATOM      5  C   UNL     1       1.316  11.079  18.648  0.00  0.00    +0.000 C 
ATOM      6  O   UNL     1       1.767  10.242  17.882  0.00  0.00    +0.000 OA
ATOM      7  N   UNL     1       0.051  11.086  19.226  0.00  0.00    +0.000 N 
ENDROOT
BRANCH   1  14
ATOM      8  C   UNL     1      -0.800  11.426  22.243  0.00  0.00    +0.000 A 
ATOM      9  C   UNL     1      -1.648  11.386  23.358  0.00  0.00    +0.000 A 
ATOM     10  C   UNL     1      -2.834  12.121  23.373  0.00  0.00    +0.000 A 
ATOM     11  C   UNL     1      -3.189  12.882  22.266  0.00  0.00    +0.000 A 
ATOM     12  C   UNL     1      -2.346  12.921  21.160  0.00  0.00    +0.000 A 
ATOM     13  F   UNL     1      -2.711  13.690  20.124  0.00  0.00    +0.000 F 
ATOM     14  C   UNL     1      -1.140  12.209  21.122  0.00  0.00    +0.000 A 
BRANCH   8  15
ATOM     15  O   UNL     1       0.344  10.674  22.153  0.00  0.00    +0.000 OA
BRANCH  15  17
ATOM     16  C   UNL     1       1.153   8.519  21.512  0.00  0.00    +0.000 C 
ATOM     17  C   UNL     1       0.200   9.278  22.420  0.00  0.00    +0.000 C 
ENDBRANCH  15  17
ENDBRANCH   8  15
ENDBRANCH   1  14
BRANCH   7  18
ATOM     18  C   UNL     1      -0.955  10.089  18.897  0.00  0.00    +0.000 C 
BRANCH  18  19
ATOM     19  C   UNL     1      -2.115  10.546  18.037  0.00  0.00    +0.000 A 
ATOM     20  C   UNL     1      -1.992  10.438  16.645  0.00  0.00    +0.000 A 
ATOM     21  C   UNL     1      -3.030  10.876  15.839  0.00  0.00    +0.000 A 
ATOM     22  N   UNL     1      -4.178  11.396  16.315  0.00  0.00    +0.000 NA
ATOM     23  C   UNL     1      -4.300  11.512  17.662  0.00  0.00    +0.000 A 
ATOM     24  C   UNL     1      -3.297  11.100  18.538  0.00  0.00    +0.000 A 
BRANCH  23  25
ATOM     25  C   UNL     1      -5.554  12.097  18.180  0.00  0.00    +0.000 A 
ATOM     26  N   UNL     1      -5.948  12.058  19.442  0.00  0.00    +0.000 NA
ATOM     27  C   UNL     1      -7.169  12.698  19.595  0.00  0.00    +0.000 A 
ATOM     28  C   UNL     1      -7.775  12.794  20.947  0.00  0.00    +0.000 C 
ATOM     29  C   UNL     1      -7.707  13.200  18.429  0.00  0.00    +0.000 A 
ATOM     30  S   UNL     1      -6.658  12.898  17.115  0.00  0.00    +0.000 S 
ENDBRANCH  23  25
ENDBRANCH  18  19
ENDBRANCH   7  18
TORSDOF 6
ENDMDL
MODEL 4
REMARK VINA RESULT:      -7.3      4.111      8.801
REMARK  Name = 
REMARK  9 active torsions:
REMARK  status: ('A' for Active; 'I' for Inactive)
REMARK    1  A    between atoms: C_1  and  C_2
REMARK    2  A    between atoms: C_2  and  O_3
REMARK    3  A    between atoms: O_3  and  C_4
REMARK    4  A    between atoms: C_10  and  C_11
REMARK    5  A    between atoms: C_13  and  C_14
REMARK    6  A    between atoms: N_17  and  C_18
REMARK    7  A    between atoms: C_18  and  C_19
REMARK    8  A    between atoms: C_23  and  C_24
REMARK    9  A    between atoms: C_26  and  C_27
REMARK                            x       y       z     vdW  Elec       q    Type
REMARK                         _______ _______ _______ _____ _____    ______ ____
ROOT
ATOM      1  C   UNL     1       3.779   5.061  18.197  0.00  0.00    +0.000 C 
ATOM      2  C   UNL     1       3.607   3.546  18.072  0.00  0.00    +0.000 C 
ATOM      3  C   UNL     1       2.172   3.307  18.558  0.00  0.00    +0.000 C 
ATOM      4  C   UNL     1       1.152   3.419  17.435  0.00  0.00    +0.000 C 
ATOM      5  C   UNL     1       1.977   4.424  19.573  0.00  0.00    +0.000 C 
ATOM      6  O   UNL     1       1.068   4.478  20.386  0.00  0.00    +0.000 OA
ATOM      7  N   UNL     1       2.967   5.378  19.363  0.00  0.00    +0.000 N 
ENDROOT
BRANCH   1  14
ATOM      8  C   UNL     1       5.708   6.439  17.285  0.00  0.00    +0.000 A 
ATOM      9  C   UNL     1       7.014   6.934  17.392  0.00  0.00    +0.000 A 
ATOM     10  C   UNL     1       7.830   6.556  18.458  0.00  0.00    +0.000 A 
ATOM     11  C   UNL     1       7.353   5.662  19.409  0.00  0.00    +0.000 A 
ATOM     12  C   UNL     1       6.056   5.169  19.301  0.00  0.00    +0.000 A 
ATOM     13  F   UNL     1       5.625   4.332  20.255  0.00  0.00    +0.000 F 
ATOM     14  C   UNL     1       5.206   5.546  18.253  0.00  0.00    +0.000 A 
BRANCH   8  15
ATOM     15  O   UNL     1       4.888   6.730  16.224  0.00  0.00    +0.000 OA
BRANCH  15  17
ATOM     16  C   UNL     1       5.444   4.828  14.890  0.00  0.00    +0.000 C 
ATOM     17  C   UNL     1       5.368   6.344  14.935  0.00  0.00    +0.000 C 
ENDBRANCH  15  17
ENDBRANCH   8  15
ENDBRANCH   1  14
BRANCH   7  18
ATOM     18  C   UNL     1       2.979   6.650  20.068  0.00  0.00    +0.000 C 
BRANCH  18  19
ATOM     19  C   UNL     1       2.195   7.785  19.444  0.00  0.00    +0.000 A 
ATOM     20  C   UNL     1       2.355   8.027  18.073  0.00  0.00    +0.000 A 
ATOM     21  C   UNL     1       1.669   9.078  17.487  0.00  0.00    +0.000 A 
ATOM     22  N   UNL     1       0.830   9.890  18.159  0.00  0.00    +0.000 NA
ATOM     23  C   UNL     1       0.677   9.667  19.490  0.00  0.00    +0.000 A 
ATOM     24  C   UNL     1       1.339   8.634  20.152  0.00  0.00    +0.000 A 
BRANCH  23  25
ATOM     25  C   UNL     1      -0.231  10.569  20.228  0.00  0.00    +0.000 A 
ATOM     26  N   UNL     1      -0.473  10.511  21.527  0.00  0.00    +0.000 NA
ATOM     27  C   UNL     1      -1.371  11.497  21.904  0.00  0.00    +0.000 A 
ATOM     28  C   UNL     1      -1.754  11.625  23.332  0.00  0.00    +0.000 C 
ATOM     29  C   UNL     1      -1.828  12.287  20.869  0.00  0.00    +0.000 A 
ATOM     30  S   UNL     1      -1.100  11.814  19.398  0.00  0.00    +0.000 S 
ENDBRANCH  23  25
ENDBRANCH  18  19
ENDBRANCH   7  18
TORSDOF 6
ENDMDL
MODEL 5
REMARK VINA RESULT:      -7.3      4.566      7.333
REMARK  Name = 
REMARK  9 active torsions:
REMARK  status: ('A' for Active; 'I' for Inactive)
REMARK    1  A    between atoms: C_1  and  C_2
REMARK    2  A    between atoms: C_2  and  O_3
REMARK    3  A    between atoms: O_3  and  C_4
REMARK    4  A    between atoms: C_10  and  C_11
REMARK    5  A    between atoms: C_13  and  C_14
REMARK    6  A    between atoms: N_17  and  C_18
REMARK    7  A    between atoms: C_18  and  C_19
REMARK    8  A    between atoms: C_23  and  C_24
REMARK    9  A    between atoms: C_26  and  C_27
REMARK                            x       y       z     vdW  Elec       q    Type
REMARK                         _______ _______ _______ _____ _____    ______ ____
ROOT
ATOM      1  C   UNL     1       2.406   5.816  19.965  0.00  0.00    +0.000 C 
ATOM      2  C   UNL     1       1.422   4.681  19.672  0.00  0.00    +0.000 C 
ATOM      3  C   UNL     1       2.239   3.415  19.959  0.00  0.00    +0.000 C 
ATOM      4  C   UNL     1       2.153   2.986  21.416  0.00  0.00    +0.000 C 
ATOM      5  C   UNL     1       3.655   3.850  19.611  0.00  0.00    +0.000 C 
ATOM      6  O   UNL     1       4.601   3.094  19.458  0.00  0.00    +0.000 OA
ATOM      7  N   UNL     1       3.682   5.240  19.564  0.00  0.00    +0.000 N 
ENDROOT
BRANCH   1  14
ATOM      8  C   UNL     1       1.480   8.178  20.083  0.00  0.00    +0.000 A 
ATOM      9  C   UNL     1       1.238   9.427  19.496  0.00  0.00    +0.000 A 
ATOM     10  C   UNL     1       1.582   9.663  18.165  0.00  0.00    +0.000 A 
ATOM     11  C   UNL     1       2.147   8.644  17.407  0.00  0.00    +0.000 A 
ATOM     12  C   UNL     1       2.385   7.404  17.990  0.00  0.00    +0.000 A 
ATOM     13  F   UNL     1       2.958   6.457  17.233  0.00  0.00    +0.000 F 
ATOM     14  C   UNL     1       2.069   7.142  19.330  0.00  0.00    +0.000 A 
BRANCH   8  15
ATOM     15  O   UNL     1       1.104   7.876  21.367  0.00  0.00    +0.000 OA
BRANCH  15  17
ATOM     16  C   UNL     1       0.304   9.400  23.024  0.00  0.00    +0.000 C 
ATOM     17  C   UNL     1      -0.078   8.522  21.845  0.00  0.00    +0.000 C 
ENDBRANCH  15  17
ENDBRANCH   8  15
ENDBRANCH   1  14
BRANCH   7  18
ATOM     18  C   UNL     1       4.921   5.985  19.403  0.00  0.00    +0.000 C 
BRANCH  18  19
ATOM     19  C   UNL     1       5.955   5.398  18.466  0.00  0.00    +0.000 A 
ATOM     20  C   UNL     1       7.204   5.044  18.994  0.00  0.00    +0.000 A 
ATOM     21  C   UNL     1       8.175   4.531  18.149  0.00  0.00    +0.000 A 
ATOM     22  N   UNL     1       7.988   4.331  16.829  0.00  0.00    +0.000 NA
ATOM     23  C   UNL     1       6.783   4.680  16.310  0.00  0.00    +0.000 A 
ATOM     24  C   UNL     1       5.759   5.210  17.095  0.00  0.00    +0.000 A 
BRANCH  23  25
ATOM     25  C   UNL     1       6.586   4.476  14.860  0.00  0.00    +0.000 A 
ATOM     26  N   UNL     1       5.562   3.843  14.311  0.00  0.00    +0.000 NA
ATOM     27  C   UNL     1       5.679   3.824  12.930  0.00  0.00    +0.000 A 
ATOM     28  C   UNL     1       4.612   3.187  12.119  0.00  0.00    +0.000 C 
ATOM     29  C   UNL     1       6.817   4.429  12.439  0.00  0.00    +0.000 A 
ATOM     30  S   UNL     1       7.750   5.063  13.722  0.00  0.00    +0.000 S 
ENDBRANCH  23  25
ENDBRANCH  18  19
ENDBRANCH   7  18
TORSDOF 6
ENDMDL
MODEL 6
REMARK VINA RESULT:      -7.0      1.535      2.455
REMARK  Name = 
REMARK  9 active torsions:
REMARK  status: ('A' for Active; 'I' for Inactive)
REMARK    1  A    between atoms: C_1  and  C_2
REMARK    2  A    between atoms: C_2  and  O_3
REMARK    3  A    between atoms: O_3  and  C_4
REMARK    4  A    between atoms: C_10  and  C_11
REMARK    5  A    between atoms: C_13  and  C_14
REMARK    6  A    between atoms: N_17  and  C_18
REMARK    7  A    between atoms: C_18  and  C_19
REMARK    8  A    between atoms: C_23  and  C_24
REMARK    9  A    between atoms: C_26  and  C_27
REMARK                            x       y       z     vdW  Elec       q    Type
REMARK                         _______ _______ _______ _____ _____    ______ ____
ROOT
ATOM      1  C   UNL     1      -0.992  12.745  19.136  0.00  0.00    +0.000 C 
ATOM      2  C   UNL     1      -0.698  14.203  19.494  0.00  0.00    +0.000 C 
ATOM      3  C   UNL     1       0.772  14.176  19.929  0.00  0.00    +0.000 C 
ATOM      4  C   UNL     1       1.728  14.369  18.762  0.00  0.00    +0.000 C 
ATOM      5  C   UNL     1       0.917  12.780  20.516  0.00  0.00    +0.000 C 
ATOM      6  O   UNL     1       1.853  12.404  21.203  0.00  0.00    +0.000 OA
ATOM      7  N   UNL     1      -0.159  12.013  20.080  0.00  0.00    +0.000 N 
ENDROOT
BRANCH   1  14
ATOM      8  C   UNL     1      -2.981  11.530  18.127  0.00  0.00    +0.000 A 
ATOM      9  C   UNL     1      -4.322  11.127  18.179  0.00  0.00    +0.000 A 
ATOM     10  C   UNL     1      -5.146  11.540  19.226  0.00  0.00    +0.000 A 
ATOM     11  C   UNL     1      -4.640  12.376  20.214  0.00  0.00    +0.000 A 
ATOM     12  C   UNL     1      -3.309  12.776  20.162  0.00  0.00    +0.000 A 
ATOM     13  F   UNL     1      -2.852  13.559  21.149  0.00  0.00    +0.000 F 
ATOM     14  C   UNL     1      -2.451  12.363  19.133  0.00  0.00    +0.000 A 
BRANCH   8  15
ATOM     15  O   UNL     1      -2.147  11.204  17.087  0.00  0.00    +0.000 OA
BRANCH  15  17
ATOM     16  C   UNL     1      -2.847   9.913  15.203  0.00  0.00    +0.000 C 
ATOM     17  C   UNL     1      -2.706  11.312  15.777  0.00  0.00    +0.000 C 
ENDBRANCH  15  17
ENDBRANCH   8  15
ENDBRANCH   1  14
BRANCH   7  18
ATOM     18  C   UNL     1      -0.247  10.585  20.339  0.00  0.00    +0.000 C 
BRANCH  18  19
ATOM     19  C   UNL     1       0.718   9.693  19.585  0.00  0.00    +0.000 A 
ATOM     20  C   UNL     1       1.223  10.147  18.359  0.00  0.00    +0.000 A 
ATOM     21  C   UNL     1       2.085   9.335  17.641  0.00  0.00    +0.000 A 
ATOM     22  N   UNL     1       2.489   8.119  18.058  0.00  0.00    +0.000 NA
ATOM     23  C   UNL     1       1.997   7.670  19.241  0.00  0.00    +0.000 A 
ATOM     24  C   UNL     1       1.119   8.425  20.017  0.00  0.00    +0.000 A 
BRANCH  23  25
ATOM     25  C   UNL     1       2.429   6.329  19.688  0.00  0.00    +0.000 A 
ATOM     26  N   UNL     1       1.765   5.556  20.531  0.00  0.00    +0.000 NA
ATOM     27  C   UNL     1       2.442   4.365  20.743  0.00  0.00    +0.000 A 
ATOM     28  C   UNL     1       1.847   3.340  21.637  0.00  0.00    +0.000 C 
ATOM     29  C   UNL     1       3.641   4.256  20.070  0.00  0.00    +0.000 A 
ATOM     30  S   UNL     1       3.920   5.652  19.127  0.00  0.00    +0.000 S 
ENDBRANCH  23  25
ENDBRANCH  18  19
ENDBRANCH   7  18
TORSDOF 6
ENDMDL
MODEL 7
REMARK VINA RESULT:      -7.0      4.120      7.644
REMARK  Name = 
REMARK  9 active torsions:
REMARK  status: ('A' for Active; 'I' for Inactive)
REMARK    1  A    between atoms: C_1  and  C_2
REMARK    2  A    between atoms: C_2  and  O_3
REMARK    3  A    between atoms: O_3  and  C_4
REMARK    4  A    between atoms: C_10  and  C_11
REMARK    5  A    between atoms: C_13  and  C_14
REMARK    6  A    between atoms: N_17  and  C_18
REMARK    7  A    between atoms: C_18  and  C_19
REMARK    8  A    between atoms: C_23  and  C_24
REMARK    9  A    between atoms: C_26  and  C_27
REMARK                            x       y       z     vdW  Elec       q    Type
REMARK                         _______ _______ _______ _____ _____    ______ ____
ROOT
ATOM      1  C   UNL     1      -0.169  11.331  20.653  0.00  0.00    +0.000 C 
ATOM      2  C   UNL     1       0.808  10.164  20.492  0.00  0.00    +0.000 C 
ATOM      3  C   UNL     1       0.471   9.248  21.676  0.00  0.00    +0.000 C 
ATOM      4  C   UNL     1      -0.628   8.250  21.345  0.00  0.00    +0.000 C 
ATOM      5  C   UNL     1      -0.002  10.236  22.732  0.00  0.00    +0.000 C 
ATOM      6  O   UNL     1      -0.144   9.978  23.917  0.00  0.00    +0.000 OA
ATOM      7  N   UNL     1      -0.297  11.439  22.099  0.00  0.00    +0.000 N 
ENDROOT
BRANCH   1  14
ATOM      8  C   UNL     1      -0.661  13.233  19.045  0.00  0.00    +0.000 A 
ATOM      9  C   UNL     1      -0.309  14.451  18.448  0.00  0.00    +0.000 A 
ATOM     10  C   UNL     1       0.915  15.056  18.738  0.00  0.00    +0.000 A 
ATOM     11  C   UNL     1       1.803  14.434  19.608  0.00  0.00    +0.000 A 
ATOM     12  C   UNL     1       1.453  13.224  20.199  0.00  0.00    +0.000 A 
ATOM     13  F   UNL     1       2.325  12.672  21.054  0.00  0.00    +0.000 F 
ATOM     14  C   UNL     1       0.224  12.602  19.943  0.00  0.00    +0.000 A 
BRANCH   8  15
ATOM     15  O   UNL     1      -1.822  12.568  18.745  0.00  0.00    +0.000 OA
BRANCH  15  17
ATOM     16  C   UNL     1      -2.480  10.428  17.910  0.00  0.00    +0.000 C 
ATOM     17  C   UNL     1      -1.790  11.740  17.580  0.00  0.00    +0.000 C 
ENDBRANCH  15  17
ENDBRANCH   8  15
ENDBRANCH   1  14
BRANCH   7  18
ATOM     18  C   UNL     1      -0.917  12.552  22.801  0.00  0.00    +0.000 C 
BRANCH  18  19
ATOM     19  C   UNL     1      -2.431  12.568  22.853  0.00  0.00    +0.000 A 
ATOM     20  C   UNL     1      -3.052  12.599  24.109  0.00  0.00    +0.000 A 
ATOM     21  C   UNL     1      -4.435  12.586  24.180  0.00  0.00    +0.000 A 
ATOM     22  N   UNL     1      -5.239  12.561  23.099  0.00  0.00    +0.000 NA
ATOM     23  C   UNL     1      -4.644  12.523  21.879  0.00  0.00    +0.000 A 
ATOM     24  C   UNL     1      -3.258  12.525  21.727  0.00  0.00    +0.000 A 
BRANCH  23  25
ATOM     25  C   UNL     1      -5.528  12.479  20.696  0.00  0.00    +0.000 A 
ATOM     26  N   UNL     1      -5.128  12.597  19.441  0.00  0.00    +0.000 NA
ATOM     27  C   UNL     1      -6.204  12.514  18.572  0.00  0.00    +0.000 A 
ATOM     28  C   UNL     1      -5.966  12.592  17.109  0.00  0.00    +0.000 C 
ATOM     29  C   UNL     1      -7.430  12.356  19.185  0.00  0.00    +0.000 A 
ATOM     30  S   UNL     1      -7.237  12.278  20.881  0.00  0.00    +0.000 S 
ENDBRANCH  23  25
ENDBRANCH  18  19
ENDBRANCH   7  18
TORSDOF 6
ENDMDL
MODEL 8
REMARK VINA RESULT:      -6.9      4.659      7.932
REMARK  Name = 
REMARK  9 active torsions:
REMARK  status: ('A' for Active; 'I' for Inactive)
REMARK    1  A    between atoms: C_1  and  C_2
REMARK    2  A    between atoms: C_2  and  O_3
REMARK    3  A    between atoms: O_3  and  C_4
REMARK    4  A    between atoms: C_10  and  C_11
REMARK    5  A    between atoms: C_13  and  C_14
REMARK    6  A    between atoms: N_17  and  C_18
REMARK    7  A    between atoms: C_18  and  C_19
REMARK    8  A    between atoms: C_23  and  C_24
REMARK    9  A    between atoms: C_26  and  C_27
REMARK                            x       y       z     vdW  Elec       q    Type
REMARK                         _______ _______ _______ _____ _____    ______ ____
ROOT
ATOM      1  C   UNL     1       2.266   4.720  19.244  0.00  0.00    +0.000 C 
ATOM      2  C   UNL     1       1.459   3.807  18.318  0.00  0.00    +0.000 C 
ATOM      3  C   UNL     1       1.897   2.397  18.734  0.00  0.00    +0.000 C 
ATOM      4  C   UNL     1       1.052   1.836  19.867  0.00  0.00    +0.000 C 
ATOM      5  C   UNL     1       3.331   2.619  19.194  0.00  0.00    +0.000 C 
ATOM      6  O   UNL     1       4.149   1.733  19.383  0.00  0.00    +0.000 OA
ATOM      7  N   UNL     1       3.510   3.981  19.412  0.00  0.00    +0.000 N 
ENDROOT
BRANCH   1  14
ATOM      8  C   UNL     1       2.022   7.224  19.583  0.00  0.00    +0.000 A 
ATOM      9  C   UNL     1       2.238   8.542  19.159  0.00  0.00    +0.000 A 
ATOM     10  C   UNL     1       2.853   8.801  17.934  0.00  0.00    +0.000 A 
ATOM     11  C   UNL     1       3.234   7.743  17.116  0.00  0.00    +0.000 A 
ATOM     12  C   UNL     1       3.019   6.435  17.538  0.00  0.00    +0.000 A 
ATOM     13  F   UNL     1       3.427   5.444  16.733  0.00  0.00    +0.000 F 
ATOM     14  C   UNL     1       2.421   6.144  18.771  0.00  0.00    +0.000 A 
BRANCH   8  15
ATOM     15  O   UNL     1       1.365   6.918  20.748  0.00  0.00    +0.000 OA
BRANCH  15  17
ATOM     16  C   UNL     1      -0.403   8.260  21.630  0.00  0.00    +0.000 C 
ATOM     17  C   UNL     1       1.096   8.013  21.625  0.00  0.00    +0.000 C 
ENDBRANCH  15  17
ENDBRANCH   8  15
ENDBRANCH   1  14
BRANCH   7  18
ATOM     18  C   UNL     1       4.726   4.517  20.002  0.00  0.00    +0.000 C 
BRANCH  18  19
ATOM     19  C   UNL     1       5.808   4.970  19.044  0.00  0.00    +0.000 A 
ATOM     20  C   UNL     1       6.864   5.740  19.550  0.00  0.00    +0.000 A 
ATOM     21  C   UNL     1       7.849   6.188  18.686  0.00  0.00    +0.000 A 
ATOM     22  N   UNL     1       7.868   5.915  17.367  0.00  0.00    +0.000 NA
ATOM     23  C   UNL     1       6.843   5.176  16.868  0.00  0.00    +0.000 A 
ATOM     24  C   UNL     1       5.811   4.696  17.673  0.00  0.00    +0.000 A 
BRANCH  23  25
ATOM     25  C   UNL     1       6.857   4.892  15.418  0.00  0.00    +0.000 A 
ATOM     26  N   UNL     1       7.612   5.512  14.527  0.00  0.00    +0.000 NA
ATOM     27  C   UNL     1       7.385   5.009  13.255  0.00  0.00    +0.000 A 
ATOM     28  C   UNL     1       8.159   5.550  12.110  0.00  0.00    +0.000 C 
ATOM     29  C   UNL     1       6.429   4.017  13.190  0.00  0.00    +0.000 A 
ATOM     30  S   UNL     1       5.819   3.679  14.749  0.00  0.00    +0.000 S 
ENDBRANCH  23  25
ENDBRANCH  18  19
ENDBRANCH   7  18
TORSDOF 6
ENDMDL
MODEL 9
REMARK VINA RESULT:      -6.9      8.450     10.973
REMARK  Name = 
REMARK  9 active torsions:
REMARK  status: ('A' for Active; 'I' for Inactive)
REMARK    1  A    between atoms: C_1  and  C_2
REMARK    2  A    between atoms: C_2  and  O_3
REMARK    3  A    between atoms: O_3  and  C_4
REMARK    4  A    between atoms: C_10  and  C_11
REMARK    5  A    between atoms: C_13  and  C_14
REMARK    6  A    between atoms: N_17  and  C_18
REMARK    7  A    between atoms: C_18  and  C_19
REMARK    8  A    between atoms: C_23  and  C_24
REMARK    9  A    between atoms: C_26  and  C_27
REMARK                            x       y       z     vdW  Elec       q    Type
REMARK                         _______ _______ _______ _____ _____    ______ ____
ROOT
ATOM      1  C   UNL     1       9.246  13.591  18.689  0.00  0.00    +0.000 C 
ATOM      2  C   UNL     1       9.245  12.703  17.442  0.00  0.00    +0.000 C 
ATOM      3  C   UNL     1       9.946  11.423  17.914  0.00  0.00    +0.000 C 
ATOM      4  C   UNL     1       8.977  10.417  18.516  0.00  0.00    +0.000 C 
ATOM      5  C   UNL     1      10.905  11.944  18.975  0.00  0.00    +0.000 C 
ATOM      6  O   UNL     1      11.835  11.310  19.447  0.00  0.00    +0.000 OA
ATOM      7  N   UNL     1      10.495  13.222  19.340  0.00  0.00    +0.000 N 
ENDROOT
BRANCH   1  14
ATOM      8  C   UNL     1       7.966  15.767  18.963  0.00  0.00    +0.000 A 
ATOM      9  C   UNL     1       7.852  17.150  18.772  0.00  0.00    +0.000 A 
ATOM     10  C   UNL     1       8.825  17.850  18.057  0.00  0.00    +0.000 A 
ATOM     11  C   UNL     1       9.904  17.167  17.510  0.00  0.00    +0.000 A 
ATOM     12  C   UNL     1      10.016  15.793  17.700  0.00  0.00    +0.000 A 
ATOM     13  F   UNL     1      11.087  15.177  17.181  0.00  0.00    +0.000 F 
ATOM     14  C   UNL     1       9.066  15.066  18.429  0.00  0.00    +0.000 A 
BRANCH   8  15
ATOM     15  O   UNL     1       7.006  15.024  19.603  0.00  0.00    +0.000 OA
BRANCH  15  17
ATOM     16  C   UNL     1       5.365  14.608  17.917  0.00  0.00    +0.000 C 
ATOM     17  C   UNL     1       5.652  15.300  19.238  0.00  0.00    +0.000 C 
ENDBRANCH  15  17
ENDBRANCH   8  15
ENDBRANCH   1  14
BRANCH   7  18
ATOM     18  C   UNL     1      11.109  13.947  20.441  0.00  0.00    +0.000 C 
BRANCH  18  19
ATOM     19  C   UNL     1      10.199  14.359  21.580  0.00  0.00    +0.000 A 
ATOM     20  C   UNL     1      10.158  15.713  21.940  0.00  0.00    +0.000 A 
ATOM     21  C   UNL     1       9.354  16.107  22.997  0.00  0.00    +0.000 A 
ATOM     22  N   UNL     1       8.582  15.260  23.706  0.00  0.00    +0.000 NA
ATOM     23  C   UNL     1       8.624  13.946  23.367  0.00  0.00    +0.000 A 
ATOM     24  C   UNL     1       9.414  13.471  22.321  0.00  0.00    +0.000 A 
BRANCH  23  25
ATOM     25  C   UNL     1       7.789  13.017  24.157  0.00  0.00    +0.000 A 
ATOM     26  N   UNL     1       7.886  12.827  25.462  0.00  0.00    +0.000 NA
ATOM     27  C   UNL     1       6.960  11.889  25.892  0.00  0.00    +0.000 A 
ATOM     28  C   UNL     1       6.881  11.554  27.337  0.00  0.00    +0.000 C 
ATOM     29  C   UNL     1       6.177  11.351  24.893  0.00  0.00    +0.000 A 
ATOM     30  S   UNL     1       6.579  12.048  23.386  0.00  0.00    +0.000 S 
ENDBRANCH  23  25
ENDBRANCH  18  19
ENDBRANCH   7  18
TORSDOF 6
ENDMDL
