MODEL 1
REMARK VINA RESULT:      -7.3      0.000      0.000
REMARK  Name = 
REMARK  7 active torsions:
REMARK  status: ('A' for Active; 'I' for Inactive)
REMARK    1  A    between atoms: C_1  and  C_2
REMARK    2  A    between atoms: C_2  and  N_3
REMARK    3  A    between atoms: C_2  and  C_20
REMARK    4  A    between atoms: N_3  and  C_4
REMARK    5  A    between atoms: C_4  and  C_5
REMARK    6  A    between atoms: C_5  and  C_6
REMARK    7  A    between atoms: C_9  and  C_10
REMARK                            x       y       z     vdW  Elec       q    Type
REMARK                         _______ _______ _______ _____ _____    ______ ____
ROOT
ATOM      1  C   UNL     1       3.516   6.333  18.178  0.00  0.00    +0.000 A 
ATOM      2  C   UNL     1       3.061   7.573  17.711  0.00  0.00    +0.000 A 
ATOM      3  C   UNL     1       2.214   8.402  18.490  0.00  0.00    +0.000 A 
ATOM      4  C   UNL     1       1.772   8.039  19.775  0.00  0.00    +0.000 A 
ATOM      5  C   UNL     1       2.159   6.752  20.195  0.00  0.00    +0.000 A 
ATOM      6  C   UNL     1       3.004   5.917  19.417  0.00  0.00    +0.000 A 
ENDROOT
BRANCH   4   7
ATOM      7  C   UNL     1       0.998   8.987  20.652  0.00  0.00    +0.000 A 
ATOM      8  C   UNL     1       0.538   8.633  21.938  0.00  0.00    +0.000 A 
ATOM      9  C   UNL     1      -0.273   9.490  22.707  0.00  0.00    +0.000 A 
ATOM     10  C   UNL     1      -0.641  10.743  22.218  0.00  0.00    +0.000 A 
ATOM     11 CL   UNL     1      -1.669  11.729  23.196  0.00  0.00    +0.000 Cl
ATOM     12  C   UNL     1      -0.182  11.140  20.963  0.00  0.00    +0.000 A 
ATOM     13 CL   UNL     1      -0.592  12.675  20.280  0.00  0.00    +0.000 Cl
ATOM     14  C   UNL     1       0.626  10.271  20.196  0.00  0.00    +0.000 A 
ENDBRANCH   4   7
BRANCH   1  15
ATOM     15  C   UNL     1       4.506   5.482  17.354  0.00  0.00    +0.000 C 
BRANCH  15  16
ATOM     16  C   UNL     1       3.931   4.108  16.850  0.00  0.00    +0.000 C 
BRANCH  16  17
ATOM     17  N   UNL     1       4.489   2.837  17.425  0.00  0.00    +0.000 NA
ATOM     18  H   UNL     1       4.597   2.196  16.620  0.00  0.00    +0.000 HD
BRANCH  17  20
ATOM     19  C   UNL     1       2.027   2.519  18.149  0.00  0.00    +0.000 C 
ATOM     20  C   UNL     1       3.494   2.136  18.331  0.00  0.00    +0.000 C 
BRANCH  20  21
ATOM     21  C   UNL     1       3.827   2.298  19.838  0.00  0.00    +0.000 C 
ATOM     22  N   UNL     1       5.100   2.007  20.227  0.00  0.00    +0.000 N 
ATOM     23  O   UNL     1       3.018   2.749  20.651  0.00  0.00    +0.000 OA
ATOM     24  H   UNL     1       5.740   1.570  19.572  0.00  0.00    +0.000 HD
ATOM     25  H   UNL     1       5.340   2.088  21.217  0.00  0.00    +0.000 HD
ENDBRANCH  20  21
ENDBRANCH  17  20
ENDBRANCH  16  17
ENDBRANCH  15  16
ENDBRANCH   1  15
TORSDOF 6
ENDMDL
MODEL 2
REMARK VINA RESULT:      -7.3      2.262      3.121
REMARK  Name = 
REMARK  7 active torsions:
REMARK  status: ('A' for Active; 'I' for Inactive)
REMARK    1  A    between atoms: C_1  and  C_2
REMARK    2  A    between atoms: C_2  and  N_3
REMARK    3  A    between atoms: C_2  and  C_20
REMARK    4  A    between atoms: N_3  and  C_4
REMARK    5  A    between atoms: C_4  and  C_5
REMARK    6  A    between atoms: C_5  and  C_6
REMARK    7  A    between atoms: C_9  and  C_10
REMARK                            x       y       z     vdW  Elec       q    Type
REMARK                         _______ _______ _______ _____ _____    ______ ____
ROOT
ATOM      1  C   UNL     1       2.784   5.367  18.569  0.00  0.00    +0.000 A 
ATOM      2  C   UNL     1       2.285   5.222  19.870  0.00  0.00    +0.000 A 
ATOM      3  C   UNL     1       1.780   6.325  20.605  0.00  0.00    +0.000 A 
ATOM      4  C   UNL     1       1.748   7.631  20.086  0.00  0.00    +0.000 A 
ATOM      5  C   UNL     1       2.338   7.781  18.816  0.00  0.00    +0.000 A 
ATOM      6  C   UNL     1       2.848   6.681  18.077  0.00  0.00    +0.000 A 
ENDROOT
BRANCH   4   7
ATOM      7  C   UNL     1       1.075   8.765  20.813  0.00  0.00    +0.000 A 
ATOM      8  C   UNL     1       0.743   8.701  22.183  0.00  0.00    +0.000 A 
ATOM      9  C   UNL     1       0.022   9.725  22.829  0.00  0.00    +0.000 A 
ATOM     10  C   UNL     1      -0.381  10.859  22.124  0.00  0.00    +0.000 A 
ATOM     11 CL   UNL     1      -1.295  12.059  22.965  0.00  0.00    +0.000 Cl
ATOM     12  C   UNL     1      -0.046  10.971  20.775  0.00  0.00    +0.000 A 
ATOM     13 CL   UNL     1      -0.506  12.341  19.826  0.00  0.00    +0.000 Cl
ATOM     14  C   UNL     1       0.673   9.936  20.135  0.00  0.00    +0.000 A 
ENDBRANCH   4   7
BRANCH   1  15
ATOM     15  C   UNL     1       3.251   4.144  17.750  0.00  0.00    +0.000 C 
BRANCH  15  16
ATOM     16  C   UNL     1       4.447   4.426  16.770  0.00  0.00    +0.000 C 
BRANCH  16  17
ATOM     17  N   UNL     1       5.752   3.717  16.998  0.00  0.00    +0.000 NA
ATOM     18  H   UNL     1       5.582   3.077  17.792  0.00  0.00    +0.000 HD
BRANCH  17  20
ATOM     19  C   UNL     1       6.530   5.407  18.793  0.00  0.00    +0.000 C 
ATOM     20  C   UNL     1       6.833   4.658  17.498  0.00  0.00    +0.000 C 
BRANCH  20  21
ATOM     21  C   UNL     1       7.253   5.715  16.443  0.00  0.00    +0.000 C 
ATOM     22  N   UNL     1       7.528   6.969  16.897  0.00  0.00    +0.000 N 
ATOM     23  O   UNL     1       7.419   5.435  15.254  0.00  0.00    +0.000 OA
ATOM     24  H   UNL     1       7.322   7.214  17.859  0.00  0.00    +0.000 HD
ATOM     25  H   UNL     1       7.788   7.689  16.219  0.00  0.00    +0.000 HD
ENDBRANCH  20  21
ENDBRANCH  17  20
ENDBRANCH  16  17
ENDBRANCH  15  16
ENDBRANCH   1  15
TORSDOF 6
ENDMDL
MODEL 3
REMARK VINA RESULT:      -7.3      2.190      2.909
REMARK  Name = 
REMARK  7 active torsions:
REMARK  status: ('A' for Active; 'I' for Inactive)
REMARK    1  A    between atoms: C_1  and  C_2
REMARK    2  A    between atoms: C_2  and  N_3
REMARK    3  A    between atoms: C_2  and  C_20
REMARK    4  A    between atoms: N_3  and  C_4
REMARK    5  A    between atoms: C_4  and  C_5
REMARK    6  A    between atoms: C_5  and  C_6
REMARK    7  A    between atoms: C_9  and  C_10
REMARK                            x       y       z     vdW  Elec       q    Type
REMARK                         _______ _______ _______ _____ _____    ______ ____
ROOT
ATOM      1  C   UNL     1       2.843   5.109  18.459  0.00  0.00    +0.000 A 
ATOM      2  C   UNL     1       2.292   4.972  19.740  0.00  0.00    +0.000 A 
ATOM      3  C   UNL     1       1.814   6.088  20.473  0.00  0.00    +0.000 A 
ATOM      4  C   UNL     1       1.860   7.401  19.971  0.00  0.00    +0.000 A 
ATOM      5  C   UNL     1       2.501   7.538  18.724  0.00  0.00    +0.000 A 
ATOM      6  C   UNL     1       2.985   6.424  17.988  0.00  0.00    +0.000 A 
ENDROOT
BRANCH   4   7
ATOM      7  C   UNL     1       1.216   8.556  20.690  0.00  0.00    +0.000 A 
ATOM      8  C   UNL     1       1.069   8.594  22.093  0.00  0.00    +0.000 A 
ATOM      9  C   UNL     1       0.374   9.630  22.747  0.00  0.00    +0.000 A 
ATOM     10  C   UNL     1      -0.189  10.675  22.016  0.00  0.00    +0.000 A 
ATOM     11 CL   UNL     1      -1.061  11.894  22.875  0.00  0.00    +0.000 Cl
ATOM     12  C   UNL     1      -0.040  10.687  20.629  0.00  0.00    +0.000 A 
ATOM     13 CL   UNL     1      -0.707  11.944  19.646  0.00  0.00    +0.000 Cl
ATOM     14  C   UNL     1       0.654   9.641  19.982  0.00  0.00    +0.000 A 
ENDBRANCH   4   7
BRANCH   1  15
ATOM     15  C   UNL     1       3.280   3.876  17.640  0.00  0.00    +0.000 C 
BRANCH  15  16
ATOM     16  C   UNL     1       4.773   3.436  17.860  0.00  0.00    +0.000 C 
BRANCH  16  17
ATOM     17  N   UNL     1       5.597   4.161  18.887  0.00  0.00    +0.000 NA
ATOM     18  H   UNL     1       4.929   4.755  19.406  0.00  0.00    +0.000 HD
BRANCH  17  20
ATOM     19  C   UNL     1       7.365   4.632  17.061  0.00  0.00    +0.000 C 
ATOM     20  C   UNL     1       6.561   5.146  18.252  0.00  0.00    +0.000 C 
BRANCH  20  21
ATOM     21  C   UNL     1       7.573   5.743  19.266  0.00  0.00    +0.000 C 
ATOM     22  N   UNL     1       8.256   6.856  18.879  0.00  0.00    +0.000 N 
ATOM     23  O   UNL     1       7.706   5.299  20.408  0.00  0.00    +0.000 OA
ATOM     24  H   UNL     1       8.197   7.175  17.918  0.00  0.00    +0.000 HD
ATOM     25  H   UNL     1       8.942   7.257  19.521  0.00  0.00    +0.000 HD
ENDBRANCH  20  21
ENDBRANCH  17  20
ENDBRANCH  16  17
ENDBRANCH  15  16
ENDBRANCH   1  15
TORSDOF 6
ENDMDL
MODEL 4
REMARK VINA RESULT:      -7.2      0.444      1.106
REMARK  Name = 
REMARK  7 active torsions:
REMARK  status: ('A' for Active; 'I' for Inactive)
REMARK    1  A    between atoms: C_1  and  C_2
REMARK    2  A    between atoms: C_2  and  N_3
REMARK    3  A    between atoms: C_2  and  C_20
REMARK    4  A    between atoms: N_3  and  C_4
REMARK    5  A    between atoms: C_4  and  C_5
REMARK    6  A    between atoms: C_5  and  C_6
REMARK    7  A    between atoms: C_9  and  C_10
REMARK                            x       y       z     vdW  Elec       q    Type
REMARK                         _______ _______ _______ _____ _____    ______ ____
ROOT
ATOM      1  C   UNL     1       3.298   6.329  18.038  0.00  0.00    +0.000 A 
ATOM      2  C   UNL     1       2.968   5.994  19.358  0.00  0.00    +0.000 A 
ATOM      3  C   UNL     1       2.267   6.890  20.205  0.00  0.00    +0.000 A 
ATOM      4  C   UNL     1       1.858   8.168  19.784  0.00  0.00    +0.000 A 
ATOM      5  C   UNL     1       2.277   8.529  18.489  0.00  0.00    +0.000 A 
ATOM      6  C   UNL     1       2.982   7.637  17.638  0.00  0.00    +0.000 A 
ENDROOT
BRANCH   4   7
ATOM      7  C   UNL     1       0.987   9.051  20.638  0.00  0.00    +0.000 A 
ATOM      8  C   UNL     1       0.815   8.843  22.022  0.00  0.00    +0.000 A 
ATOM      9  C   UNL     1      -0.082   9.610  22.791  0.00  0.00    +0.000 A 
ATOM     10  C   UNL     1      -0.832  10.625  22.198  0.00  0.00    +0.000 A 
ATOM     11 CL   UNL     1      -1.942  11.503  23.189  0.00  0.00    +0.000 Cl
ATOM     12  C   UNL     1      -0.668  10.879  20.837  0.00  0.00    +0.000 A 
ATOM     13 CL   UNL     1      -1.559  12.118  20.022  0.00  0.00    +0.000 Cl
ATOM     14  C   UNL     1       0.230  10.101  20.073  0.00  0.00    +0.000 A 
ENDBRANCH   4   7
BRANCH   1  15
ATOM     15  C   UNL     1       3.986   5.312  17.103  0.00  0.00    +0.000 C 
BRANCH  15  16
ATOM     16  C   UNL     1       3.334   3.882  17.093  0.00  0.00    +0.000 C 
BRANCH  16  17
ATOM     17  N   UNL     1       4.126   2.721  17.626  0.00  0.00    +0.000 NA
ATOM     18  H   UNL     1       4.217   2.063  16.834  0.00  0.00    +0.000 HD
BRANCH  17  20
ATOM     19  C   UNL     1       1.844   2.144  18.696  0.00  0.00    +0.000 C 
ATOM     20  C   UNL     1       3.357   1.941  18.677  0.00  0.00    +0.000 C 
BRANCH  20  21
ATOM     21  C   UNL     1       3.874   2.192  20.118  0.00  0.00    +0.000 C 
ATOM     22  N   UNL     1       5.148   1.801  20.397  0.00  0.00    +0.000 N 
ATOM     23  O   UNL     1       3.210   2.795  20.964  0.00  0.00    +0.000 OA
ATOM     24  H   UNL     1       5.664   1.245  19.724  0.00  0.00    +0.000 HD
ATOM     25  H   UNL     1       5.506   1.938  21.344  0.00  0.00    +0.000 HD
ENDBRANCH  20  21
ENDBRANCH  17  20
ENDBRANCH  16  17
ENDBRANCH  15  16
ENDBRANCH   1  15
TORSDOF 6
ENDMDL
MODEL 5
REMARK VINA RESULT:      -7.2      2.169      2.982
REMARK  Name = 
REMARK  7 active torsions:
REMARK  status: ('A' for Active; 'I' for Inactive)
REMARK    1  A    between atoms: C_1  and  C_2
REMARK    2  A    between atoms: C_2  and  N_3
REMARK    3  A    between atoms: C_2  and  C_20
REMARK    4  A    between atoms: N_3  and  C_4
REMARK    5  A    between atoms: C_4  and  C_5
REMARK    6  A    between atoms: C_5  and  C_6
REMARK    7  A    between atoms: C_9  and  C_10
REMARK                            x       y       z     vdW  Elec       q    Type
REMARK                         _______ _______ _______ _____ _____    ______ ____
ROOT
ATOM      1  C   UNL     1       2.588   4.866  19.032  0.00  0.00    +0.000 A 
ATOM      2  C   UNL     1       1.998   4.928  20.302  0.00  0.00    +0.000 A 
ATOM      3  C   UNL     1       1.577   6.155  20.874  0.00  0.00    +0.000 A 
ATOM      4  C   UNL     1       1.724   7.389  20.213  0.00  0.00    +0.000 A 
ATOM      5  C   UNL     1       2.402   7.326  18.981  0.00  0.00    +0.000 A 
ATOM      6  C   UNL     1       2.829   6.100  18.406  0.00  0.00    +0.000 A 
ENDROOT
BRANCH   4   7
ATOM      7  C   UNL     1       1.141   8.664  20.762  0.00  0.00    +0.000 A 
ATOM      8  C   UNL     1       0.735   8.800  22.106  0.00  0.00    +0.000 A 
ATOM      9  C   UNL     1       0.096   9.962  22.584  0.00  0.00    +0.000 A 
ATOM     10  C   UNL     1      -0.147  11.036  21.729  0.00  0.00    +0.000 A 
ATOM     11 CL   UNL     1      -0.968  12.416  22.368  0.00  0.00    +0.000 Cl
ATOM     12  C   UNL     1       0.265  10.950  20.400  0.00  0.00    +0.000 A 
ATOM     13 CL   UNL     1       0.002  12.235  19.273  0.00  0.00    +0.000 Cl
ATOM     14  C   UNL     1       0.900   9.779  19.929  0.00  0.00    +0.000 A 
ENDBRANCH   4   7
BRANCH   1  15
ATOM     15  C   UNL     1       2.962   3.515  18.388  0.00  0.00    +0.000 C 
BRANCH  15  16
ATOM     16  C   UNL     1       3.693   3.627  17.001  0.00  0.00    +0.000 C 
BRANCH  16  17
ATOM     17  N   UNL     1       5.184   3.448  16.953  0.00  0.00    +0.000 NA
ATOM     18  H   UNL     1       5.521   3.694  17.899  0.00  0.00    +0.000 HD
BRANCH  17  20
ATOM     19  C   UNL     1       6.214   3.976  14.640  0.00  0.00    +0.000 C 
ATOM     20  C   UNL     1       5.851   4.463  16.041  0.00  0.00    +0.000 C 
BRANCH  20  21
ATOM     21  C   UNL     1       7.132   5.083  16.659  0.00  0.00    +0.000 C 
ATOM     22  N   UNL     1       7.806   4.332  17.573  0.00  0.00    +0.000 N 
ATOM     23  O   UNL     1       7.586   6.168  16.291  0.00  0.00    +0.000 OA
ATOM     24  H   UNL     1       7.394   3.475  17.924  0.00  0.00    +0.000 HD
ATOM     25  H   UNL     1       8.642   4.726  18.009  0.00  0.00    +0.000 HD
ENDBRANCH  20  21
ENDBRANCH  17  20
ENDBRANCH  16  17
ENDBRANCH  15  16
ENDBRANCH   1  15
TORSDOF 6
ENDMDL
MODEL 6
REMARK VINA RESULT:      -7.2      2.214      3.151
REMARK  Name = 
REMARK  7 active torsions:
REMARK  status: ('A' for Active; 'I' for Inactive)
REMARK    1  A    between atoms: C_1  and  C_2
REMARK    2  A    between atoms: C_2  and  N_3
REMARK    3  A    between atoms: C_2  and  C_20
REMARK    4  A    between atoms: N_3  and  C_4
REMARK    5  A    between atoms: C_4  and  C_5
REMARK    6  A    between atoms: C_5  and  C_6
REMARK    7  A    between atoms: C_9  and  C_10
REMARK                            x       y       z     vdW  Elec       q    Type
REMARK                         _______ _______ _______ _____ _____    ______ ____
ROOT
ATOM      1  C   UNL     1       2.906   6.702  18.345  0.00  0.00    +0.000 A 
ATOM      2  C   UNL     1       2.651   6.450  19.699  0.00  0.00    +0.000 A 
ATOM      3  C   UNL     1       1.940   7.370  20.511  0.00  0.00    +0.000 A 
ATOM      4  C   UNL     1       1.446   8.591  20.018  0.00  0.00    +0.000 A 
ATOM      5  C   UNL     1       1.789   8.876  18.682  0.00  0.00    +0.000 A 
ATOM      6  C   UNL     1       2.505   7.960  17.867  0.00  0.00    +0.000 A 
ENDROOT
BRANCH   4   7
ATOM      7  C   UNL     1       0.566   9.490  20.845  0.00  0.00    +0.000 A 
ATOM      8  C   UNL     1       0.326   9.269  22.218  0.00  0.00    +0.000 A 
ATOM      9  C   UNL     1      -0.580  10.055  22.958  0.00  0.00    +0.000 A 
ATOM     10  C   UNL     1      -1.270  11.102  22.347  0.00  0.00    +0.000 A 
ATOM     11 CL   UNL     1      -2.394  12.002  23.301  0.00  0.00    +0.000 Cl
ATOM     12  C   UNL     1      -1.037  11.369  20.998  0.00  0.00    +0.000 A 
ATOM     13 CL   UNL     1      -1.850  12.647  20.164  0.00  0.00    +0.000 Cl
ATOM     14  C   UNL     1      -0.131  10.572  20.264  0.00  0.00    +0.000 A 
ENDBRANCH   4   7
BRANCH   1  15
ATOM     15  C   UNL     1       3.607   5.654  17.454  0.00  0.00    +0.000 C 
BRANCH  15  16
ATOM     16  C   UNL     1       4.511   4.629  18.231  0.00  0.00    +0.000 C 
BRANCH  16  17
ATOM     17  N   UNL     1       5.690   4.022  17.523  0.00  0.00    +0.000 NA
ATOM     18  H   UNL     1       5.874   3.130  18.012  0.00  0.00    +0.000 HD
BRANCH  17  20
ATOM     19  C   UNL     1       7.080   5.569  19.059  0.00  0.00    +0.000 C 
ATOM     20  C   UNL     1       6.957   4.832  17.727  0.00  0.00    +0.000 C 
BRANCH  20  21
ATOM     21  C   UNL     1       7.201   5.871  16.602  0.00  0.00    +0.000 C 
ATOM     22  N   UNL     1       7.402   5.389  15.344  0.00  0.00    +0.000 N 
ATOM     23  O   UNL     1       7.135   7.087  16.797  0.00  0.00    +0.000 OA
ATOM     24  H   UNL     1       7.526   4.393  15.200  0.00  0.00    +0.000 HD
ATOM     25  H   UNL     1       7.584   6.052  14.589  0.00  0.00    +0.000 HD
ENDBRANCH  20  21
ENDBRANCH  17  20
ENDBRANCH  16  17
ENDBRANCH  15  16
ENDBRANCH   1  15
TORSDOF 6
ENDMDL
MODEL 7
REMARK VINA RESULT:      -7.2      2.453      3.291
REMARK  Name = 
REMARK  7 active torsions:
REMARK  status: ('A' for Active; 'I' for Inactive)
REMARK    1  A    between atoms: C_1  and  C_2
REMARK    2  A    between atoms: C_2  and  N_3
REMARK    3  A    between atoms: C_2  and  C_20
REMARK    4  A    between atoms: N_3  and  C_4
REMARK    5  A    between atoms: C_4  and  C_5
REMARK    6  A    between atoms: C_5  and  C_6
REMARK    7  A    between atoms: C_9  and  C_10
REMARK                            x       y       z     vdW  Elec       q    Type
REMARK                         _______ _______ _______ _____ _____    ______ ____
ROOT
ATOM      1  C   UNL     1       3.085   4.992  18.995  0.00  0.00    +0.000 A 
ATOM      2  C   UNL     1       3.025   6.202  18.291  0.00  0.00    +0.000 A 
ATOM      3  C   UNL     1       2.368   7.343  18.816  0.00  0.00    +0.000 A 
ATOM      4  C   UNL     1       1.732   7.340  20.071  0.00  0.00    +0.000 A 
ATOM      5  C   UNL     1       1.717   6.094  20.727  0.00  0.00    +0.000 A 
ATOM      6  C   UNL     1       2.371   4.947  20.203  0.00  0.00    +0.000 A 
ENDROOT
BRANCH   4   7
ATOM      7  C   UNL     1       1.167   8.594  20.685  0.00  0.00    +0.000 A 
ATOM      8  C   UNL     1       0.781   8.672  22.039  0.00  0.00    +0.000 A 
ATOM      9  C   UNL     1       0.159   9.816  22.577  0.00  0.00    +0.000 A 
ATOM     10  C   UNL     1      -0.086  10.931  21.775  0.00  0.00    +0.000 A 
ATOM     11 CL   UNL     1      -0.887  12.286  22.487  0.00  0.00    +0.000 Cl
ATOM     12  C   UNL     1       0.308  10.901  20.438  0.00  0.00    +0.000 A 
ATOM     13 CL   UNL     1       0.041  12.238  19.374  0.00  0.00    +0.000 Cl
ATOM     14  C   UNL     1       0.926   9.747  19.907  0.00  0.00    +0.000 A 
ENDBRANCH   4   7
BRANCH   1  15
ATOM     15  C   UNL     1       3.877   3.786  18.447  0.00  0.00    +0.000 C 
BRANCH  15  16
ATOM     16  C   UNL     1       4.323   3.918  16.946  0.00  0.00    +0.000 C 
BRANCH  16  17
ATOM     17  N   UNL     1       5.783   3.796  16.611  0.00  0.00    +0.000 NA
ATOM     18  H   UNL     1       6.274   3.794  17.521  0.00  0.00    +0.000 HD
BRANCH  17  20
ATOM     19  C   UNL     1       5.323   6.179  15.720  0.00  0.00    +0.000 C 
ATOM     20  C   UNL     1       6.311   5.029  15.901  0.00  0.00    +0.000 C 
BRANCH  20  21
ATOM     21  C   UNL     1       6.912   4.715  14.506  0.00  0.00    +0.000 C 
ATOM     22  N   UNL     1       6.384   3.660  13.826  0.00  0.00    +0.000 N 
ATOM     23  O   UNL     1       7.770   5.426  13.979  0.00  0.00    +0.000 OA
ATOM     24  H   UNL     1       5.731   3.037  14.289  0.00  0.00    +0.000 HD
ATOM     25  H   UNL     1       6.775   3.421  12.913  0.00  0.00    +0.000 HD
ENDBRANCH  20  21
ENDBRANCH  17  20
ENDBRANCH  16  17
ENDBRANCH  15  16
ENDBRANCH   1  15
TORSDOF 6
ENDMDL
MODEL 8
REMARK VINA RESULT:      -7.2      5.749      8.304
REMARK  Name = 
REMARK  7 active torsions:
REMARK  status: ('A' for Active; 'I' for Inactive)
REMARK    1  A    between atoms: C_1  and  C_2
REMARK    2  A    between atoms: C_2  and  N_3
REMARK    3  A    between atoms: C_2  and  C_20
REMARK    4  A    between atoms: N_3  and  C_4
REMARK    5  A    between atoms: C_4  and  C_5
REMARK    6  A    between atoms: C_5  and  C_6
REMARK    7  A    between atoms: C_9  and  C_10
REMARK                            x       y       z     vdW  Elec       q    Type
REMARK                         _______ _______ _______ _____ _____    ______ ____
ROOT
ATOM      1  C   UNL     1       1.247  10.787  18.913  0.00  0.00    +0.000 A 
ATOM      2  C   UNL     1       0.957   9.985  20.024  0.00  0.00    +0.000 A 
ATOM      3  C   UNL     1       1.329   8.617  20.078  0.00  0.00    +0.000 A 
ATOM      4  C   UNL     1       2.008   7.975  19.027  0.00  0.00    +0.000 A 
ATOM      5  C   UNL     1       2.210   8.765  17.879  0.00  0.00    +0.000 A 
ATOM      6  C   UNL     1       1.836  10.134  17.819  0.00  0.00    +0.000 A 
ENDROOT
BRANCH   4   7
ATOM      7  C   UNL     1       2.530   6.568  19.154  0.00  0.00    +0.000 A 
ATOM      8  C   UNL     1       3.336   5.963  18.167  0.00  0.00    +0.000 A 
ATOM      9  C   UNL     1       3.733   4.613  18.246  0.00  0.00    +0.000 A 
ATOM     10  C   UNL     1       3.344   3.825  19.328  0.00  0.00    +0.000 A 
ATOM     11 CL   UNL     1       3.832   2.167  19.346  0.00  0.00    +0.000 Cl
ATOM     12  C   UNL     1       2.570   4.396  20.338  0.00  0.00    +0.000 A 
ATOM     13 CL   UNL     1       2.043   3.490  21.713  0.00  0.00    +0.000 Cl
ATOM     14  C   UNL     1       2.173   5.748  20.247  0.00  0.00    +0.000 A 
ENDBRANCH   4   7
BRANCH   1  15
ATOM     15  C   UNL     1       0.911  12.294  18.905  0.00  0.00    +0.000 C 
BRANCH  15  16
ATOM     16  C   UNL     1      -0.626  12.626  18.898  0.00  0.00    +0.000 C 
BRANCH  16  17
ATOM     17  N   UNL     1      -1.417  12.364  17.648  0.00  0.00    +0.000 NA
ATOM     18  H   UNL     1      -2.056  13.171  17.554  0.00  0.00    +0.000 HD
BRANCH  17  20
ATOM     19  C   UNL     1      -2.122  10.020  16.815  0.00  0.00    +0.000 C 
ATOM     20  C   UNL     1      -2.340  11.168  17.797  0.00  0.00    +0.000 C 
BRANCH  20  21
ATOM     21  C   UNL     1      -3.842  11.551  17.731  0.00  0.00    +0.000 C 
ATOM     22  N   UNL     1      -4.346  11.877  16.508  0.00  0.00    +0.000 N 
ATOM     23  O   UNL     1      -4.586  11.486  18.711  0.00  0.00    +0.000 OA
ATOM     24  H   UNL     1      -3.720  11.998  15.720  0.00  0.00    +0.000 HD
ATOM     25  H   UNL     1      -5.328  12.151  16.441  0.00  0.00    +0.000 HD
ENDBRANCH  20  21
ENDBRANCH  17  20
ENDBRANCH  16  17
ENDBRANCH  15  16
ENDBRANCH   1  15
TORSDOF 6
ENDMDL
MODEL 9
REMARK VINA RESULT:      -7.1      2.125      2.928
REMARK  Name = 
REMARK  7 active torsions:
REMARK  status: ('A' for Active; 'I' for Inactive)
REMARK    1  A    between atoms: C_1  and  C_2
REMARK    2  A    between atoms: C_2  and  N_3
REMARK    3  A    between atoms: C_2  and  C_20
REMARK    4  A    between atoms: N_3  and  C_4
REMARK    5  A    between atoms: C_4  and  C_5
REMARK    6  A    between atoms: C_5  and  C_6
REMARK    7  A    between atoms: C_9  and  C_10
REMARK                            x       y       z     vdW  Elec       q    Type
REMARK                         _______ _______ _______ _____ _____    ______ ____
ROOT
ATOM      1  C   UNL     1       2.961   5.791  18.783  0.00  0.00    +0.000 A 
ATOM      2  C   UNL     1       2.794   7.063  18.222  0.00  0.00    +0.000 A 
ATOM      3  C   UNL     1       2.091   8.094  18.897  0.00  0.00    +0.000 A 
ATOM      4  C   UNL     1       1.515   7.911  20.167  0.00  0.00    +0.000 A 
ATOM      5  C   UNL     1       1.608   6.602  20.680  0.00  0.00    +0.000 A 
ATOM      6  C   UNL     1       2.307   5.566  20.005  0.00  0.00    +0.000 A 
ENDROOT
BRANCH   4   7
ATOM      7  C   UNL     1       0.902   9.049  20.939  0.00  0.00    +0.000 A 
ATOM      8  C   UNL     1       0.224   8.864  22.162  0.00  0.00    +0.000 A 
ATOM      9  C   UNL     1      -0.434   9.919  22.823  0.00  0.00    +0.000 A 
ATOM     10  C   UNL     1      -0.423  11.206  22.286  0.00  0.00    +0.000 A 
ATOM     11 CL   UNL     1      -1.282  12.447  23.127  0.00  0.00    +0.000 Cl
ATOM     12  C   UNL     1       0.261  11.434  21.093  0.00  0.00    +0.000 A 
ATOM     13 CL   UNL     1       0.323  12.998  20.356  0.00  0.00    +0.000 Cl
ATOM     14  C   UNL     1       0.913  10.368  20.434  0.00  0.00    +0.000 A 
ENDBRANCH   4   7
BRANCH   1  15
ATOM     15  C   UNL     1       3.801   4.707  18.074  0.00  0.00    +0.000 C 
BRANCH  15  16
ATOM     16  C   UNL     1       5.152   4.347  18.792  0.00  0.00    +0.000 C 
BRANCH  16  17
ATOM     17  N   UNL     1       6.023   5.462  19.297  0.00  0.00    +0.000 NA
ATOM     18  H   UNL     1       5.379   6.250  19.483  0.00  0.00    +0.000 HD
BRANCH  17  20
ATOM     19  C   UNL     1       6.370   7.003  17.251  0.00  0.00    +0.000 C 
ATOM     20  C   UNL     1       6.960   5.986  18.224  0.00  0.00    +0.000 C 
BRANCH  20  21
ATOM     21  C   UNL     1       7.602   4.857  17.377  0.00  0.00    +0.000 C 
ATOM     22  N   UNL     1       7.310   4.837  16.046  0.00  0.00    +0.000 N 
ATOM     23  O   UNL     1       8.411   4.054  17.846  0.00  0.00    +0.000 OA
ATOM     24  H   UNL     1       6.593   5.451  15.678  0.00  0.00    +0.000 HD
ATOM     25  H   UNL     1       7.706   4.092  15.469  0.00  0.00    +0.000 HD
ENDBRANCH  20  21
ENDBRANCH  17  20
ENDBRANCH  16  17
ENDBRANCH  15  16
ENDBRANCH   1  15
TORSDOF 6
ENDMDL
