MODEL 1
REMARK VINA RESULT:      -8.5      0.000      0.000
REMARK  Name = 
REMARK  6 active torsions:
REMARK  status: ('A' for Active; 'I' for Inactive)
REMARK    1  A    between atoms: C_1  and  O_2
REMARK    2  A    between atoms: O_2  and  C_3
REMARK    3  A    between atoms: C_9  and  C_10
REMARK    4  A    between atoms: C_18  and  O_19
REMARK    5  A    between atoms: C_20  and  O_21
REMARK    6  A    between atoms: O_21  and  C_22
REMARK                            x       y       z     vdW  Elec       q    Type
REMARK                         _______ _______ _______ _____ _____    ______ ____
ROOT
ATOM      1  C   UNL     1       1.510   8.543  20.652  0.00  0.00    +0.000 C 
ATOM      2  C   UNL     1       1.610   9.294  19.551  0.00  0.00    +0.000 C 
ATOM      3  C   UNL     1       2.046   8.686  18.285  0.00  0.00    +0.000 C 
ATOM      4  O   UNL     1       2.056   9.331  17.249  0.00  0.00    +0.000 OA
ATOM      5  C   UNL     1       2.656   7.347  18.396  0.00  0.00    +0.000 A 
ATOM      6  C   UNL     1       3.599   6.971  17.445  0.00  0.00    +0.000 A 
ATOM      7  C   UNL     1       4.296   5.751  17.548  0.00  0.00    +0.000 A 
ATOM      8  C   UNL     1       4.009   4.877  18.657  0.00  0.00    +0.000 A 
ATOM      9  C   UNL     1       4.688   3.657  18.882  0.00  0.00    +0.000 A 
ATOM     10  C   UNL     1       4.339   2.757  19.902  0.00  0.00    +0.000 A 
ATOM     11  C   UNL     1       3.339   3.089  20.797  0.00  0.00    +0.000 A 
ATOM     12  C   UNL     1       2.697   4.328  20.645  0.00  0.00    +0.000 A 
ATOM     13  C   UNL     1       2.999   5.241  19.601  0.00  0.00    +0.000 A 
ATOM     14  C   UNL     1       2.363   6.505  19.461  0.00  0.00    +0.000 A 
ATOM     15  C   UNL     1       1.434   7.063  20.472  0.00  0.00    +0.000 C 
ATOM     16  O   UNL     1       0.624   6.382  21.096  0.00  0.00    +0.000 OA
ENDROOT
BRANCH   7  17
ATOM     17  C   UNL     1       5.251   5.434  16.446  0.00  0.00    +0.000 A 
ATOM     18  C   UNL     1       4.854   4.667  15.330  0.00  0.00    +0.000 A 
ATOM     19  C   UNL     1       5.770   4.281  14.346  0.00  0.00    +0.000 A 
ATOM     20  C   UNL     1       7.095   4.696  14.427  0.00  0.00    +0.000 A 
ATOM     21  C   UNL     1       7.509   5.468  15.506  0.00  0.00    +0.000 A 
ATOM     22  C   UNL     1       6.606   5.797  16.518  0.00  0.00    +0.000 A 
ENDBRANCH   7  17
BRANCH   1  24
ATOM     23  C   UNL     1       0.274   9.620  22.409  0.00  0.00    +0.000 C 
ATOM     24  O   UNL     1       1.512   9.182  21.872  0.00  0.00    +0.000 OA
ENDBRANCH   1  24
BRANCH  10  25
ATOM     25  O   UNL     1       5.002   1.562  19.965  0.00  0.00    +0.000 OA
ATOM     26  H   UNL     1       4.384   0.876  20.268  0.00  0.00    +0.000 HD
ENDBRANCH  10  25
BRANCH  11  27
ATOM     27  O   UNL     1       2.859   2.359  21.851  0.00  0.00    +0.000 OA
ATOM     28  C   UNL     1       1.458   2.368  22.091  0.00  0.00    +0.000 C 
ENDBRANCH  11  27
TORSDOF 4
ENDMDL
MODEL 2
REMARK VINA RESULT:      -7.4      0.695      1.161
REMARK  Name = 
REMARK  6 active torsions:
REMARK  status: ('A' for Active; 'I' for Inactive)
REMARK    1  A    between atoms: C_1  and  O_2
REMARK    2  A    between atoms: O_2  and  C_3
REMARK    3  A    between atoms: C_9  and  C_10
REMARK    4  A    between atoms: C_18  and  O_19
REMARK    5  A    between atoms: C_20  and  O_21
REMARK    6  A    between atoms: O_21  and  C_22
REMARK                            x       y       z     vdW  Elec       q    Type
REMARK                         _______ _______ _______ _____ _____    ______ ____
ROOT
ATOM      1  C   UNL     1       1.272   9.241  20.620  0.00  0.00    +0.000 C 
ATOM      2  C   UNL     1       1.473   9.908  19.480  0.00  0.00    +0.000 C 
ATOM      3  C   UNL     1       1.941   9.191  18.283  0.00  0.00    +0.000 C 
ATOM      4  O   UNL     1       2.042   9.763  17.209  0.00  0.00    +0.000 OA
ATOM      5  C   UNL     1       2.465   7.832  18.516  0.00  0.00    +0.000 A 
ATOM      6  C   UNL     1       3.434   7.341  17.647  0.00  0.00    +0.000 A 
ATOM      7  C   UNL     1       4.053   6.096  17.870  0.00  0.00    +0.000 A 
ATOM      8  C   UNL     1       3.657   5.317  19.015  0.00  0.00    +0.000 A 
ATOM      9  C   UNL     1       4.252   4.081  19.358  0.00  0.00    +0.000 A 
ATOM     10  C   UNL     1       3.798   3.273  20.414  0.00  0.00    +0.000 A 
ATOM     11  C   UNL     1       2.773   3.719  21.227  0.00  0.00    +0.000 A 
ATOM     12  C   UNL     1       2.212   4.978  20.957  0.00  0.00    +0.000 A 
ATOM     13  C   UNL     1       2.622   5.799  19.874  0.00  0.00    +0.000 A 
ATOM     14  C   UNL     1       2.068   7.083  19.616  0.00  0.00    +0.000 A 
ATOM     15  C   UNL     1       1.120   7.759  20.534  0.00  0.00    +0.000 C 
ATOM     16  O   UNL     1       0.241   7.167  21.154  0.00  0.00    +0.000 OA
ENDROOT
BRANCH   7  17
ATOM     17  C   UNL     1       5.045   5.652  16.847  0.00  0.00    +0.000 A 
ATOM     18  C   UNL     1       6.347   6.193  16.805  0.00  0.00    +0.000 A 
ATOM     19  C   UNL     1       7.245   5.856  15.787  0.00  0.00    +0.000 A 
ATOM     20  C   UNL     1       6.881   4.931  14.815  0.00  0.00    +0.000 A 
ATOM     21  C   UNL     1       5.610   4.368  14.843  0.00  0.00    +0.000 A 
ATOM     22  C   UNL     1       4.695   4.755  15.824  0.00  0.00    +0.000 A 
ENDBRANCH   7  17
BRANCH   1  24
ATOM     23  C   UNL     1       0.009  10.503  22.228  0.00  0.00    +0.000 C 
ATOM     24  O   UNL     1       1.247   9.962  21.793  0.00  0.00    +0.000 OA
ENDBRANCH   1  24
BRANCH  10  25
ATOM     25  O   UNL     1       4.387   2.051  20.593  0.00  0.00    +0.000 OA
ATOM     26  H   UNL     1       4.034   1.433  19.931  0.00  0.00    +0.000 HD
ENDBRANCH  10  25
BRANCH  11  27
ATOM     27  O   UNL     1       2.196   3.091  22.297  0.00  0.00    +0.000 OA
ATOM     28  C   UNL     1       1.106   2.213  22.053  0.00  0.00    +0.000 C 
ENDBRANCH  11  27
TORSDOF 4
ENDMDL
MODEL 3
REMARK VINA RESULT:      -7.4      1.908      6.609
REMARK  Name = 
REMARK  6 active torsions:
REMARK  status: ('A' for Active; 'I' for Inactive)
REMARK    1  A    between atoms: C_1  and  O_2
REMARK    2  A    between atoms: O_2  and  C_3
REMARK    3  A    between atoms: C_9  and  C_10
REMARK    4  A    between atoms: C_18  and  O_19
REMARK    5  A    between atoms: C_20  and  O_21
REMARK    6  A    between atoms: O_21  and  C_22
REMARK                            x       y       z     vdW  Elec       q    Type
REMARK                         _______ _______ _______ _____ _____    ______ ____
ROOT
ATOM      1  C   UNL     1       4.475   1.812  20.822  0.00  0.00    +0.000 C 
ATOM      2  C   UNL     1       3.472   2.098  21.657  0.00  0.00    +0.000 C 
ATOM      3  C   UNL     1       2.485   3.126  21.293  0.00  0.00    +0.000 C 
ATOM      4  O   UNL     1       1.511   3.337  21.997  0.00  0.00    +0.000 OA
ATOM      5  C   UNL     1       2.860   4.001  20.166  0.00  0.00    +0.000 A 
ATOM      6  C   UNL     1       2.350   5.295  20.138  0.00  0.00    +0.000 A 
ATOM      7  C   UNL     1       2.747   6.217  19.149  0.00  0.00    +0.000 A 
ATOM      8  C   UNL     1       3.690   5.797  18.145  0.00  0.00    +0.000 A 
ATOM      9  C   UNL     1       4.193   6.657  17.142  0.00  0.00    +0.000 A 
ATOM     10  C   UNL     1       5.031   6.223  16.103  0.00  0.00    +0.000 A 
ATOM     11  C   UNL     1       5.470   4.912  16.077  0.00  0.00    +0.000 A 
ATOM     12  C   UNL     1       5.048   4.051  17.104  0.00  0.00    +0.000 A 
ATOM     13  C   UNL     1       4.169   4.450  18.144  0.00  0.00    +0.000 A 
ATOM     14  C   UNL     1       3.760   3.583  19.195  0.00  0.00    +0.000 A 
ATOM     15  C   UNL     1       4.325   2.228  19.397  0.00  0.00    +0.000 C 
ATOM     16  O   UNL     1       4.616   1.472  18.474  0.00  0.00    +0.000 OA
ENDROOT
BRANCH   7  17
ATOM     17  C   UNL     1       2.099   7.560  19.193  0.00  0.00    +0.000 A 
ATOM     18  C   UNL     1       1.574   8.083  20.393  0.00  0.00    +0.000 A 
ATOM     19  C   UNL     1       0.876   9.295  20.418  0.00  0.00    +0.000 A 
ATOM     20  C   UNL     1       0.731  10.039  19.252  0.00  0.00    +0.000 A 
ATOM     21  C   UNL     1       1.255   9.557  18.059  0.00  0.00    +0.000 A 
ATOM     22  C   UNL     1       1.895   8.317  18.026  0.00  0.00    +0.000 A 
ENDBRANCH   7  17
BRANCH   1  24
ATOM     23  C   UNL     1       5.660  -0.235  21.251  0.00  0.00    +0.000 C 
ATOM     24  O   UNL     1       5.585   1.180  21.338  0.00  0.00    +0.000 OA
ENDBRANCH   1  24
BRANCH  10  25
ATOM     25  O   UNL     1       5.378   7.122  15.131  0.00  0.00    +0.000 OA
ATOM     26  H   UNL     1       4.626   7.237  14.527  0.00  0.00    +0.000 HD
ENDBRANCH  10  25
BRANCH  11  27
ATOM     27  O   UNL     1       6.285   4.301  15.163  0.00  0.00    +0.000 OA
ATOM     28  C   UNL     1       5.729   3.931  13.909  0.00  0.00    +0.000 C 
ENDBRANCH  11  27
TORSDOF 4
ENDMDL
MODEL 4
REMARK VINA RESULT:      -7.2      5.110      8.621
REMARK  Name = 
REMARK  6 active torsions:
REMARK  status: ('A' for Active; 'I' for Inactive)
REMARK    1  A    between atoms: C_1  and  O_2
REMARK    2  A    between atoms: O_2  and  C_3
REMARK    3  A    between atoms: C_9  and  C_10
REMARK    4  A    between atoms: C_18  and  O_19
REMARK    5  A    between atoms: C_20  and  O_21
REMARK    6  A    between atoms: O_21  and  C_22
REMARK                            x       y       z     vdW  Elec       q    Type
REMARK                         _______ _______ _______ _____ _____    ______ ____
ROOT
ATOM      1  C   UNL     1      -3.657  13.071  22.572  0.00  0.00    +0.000 C 
ATOM      2  C   UNL     1      -2.522  13.039  23.276  0.00  0.00    +0.000 C 
ATOM      3  C   UNL     1      -1.259  12.674  22.616  0.00  0.00    +0.000 C 
ATOM      4  O   UNL     1      -0.199  12.727  23.218  0.00  0.00    +0.000 OA
ATOM      5  C   UNL     1      -1.390  12.054  21.284  0.00  0.00    +0.000 A 
ATOM      6  C   UNL     1      -0.403  11.165  20.870  0.00  0.00    +0.000 A 
ATOM      7  C   UNL     1      -0.517  10.459  19.657  0.00  0.00    +0.000 A 
ATOM      8  C   UNL     1      -1.676  10.678  18.830  0.00  0.00    +0.000 A 
ATOM      9  C   UNL     1      -1.912   9.982  17.622  0.00  0.00    +0.000 A 
ATOM     10  C   UNL     1      -2.987  10.268  16.765  0.00  0.00    +0.000 A 
ATOM     11  C   UNL     1      -3.925  11.216  17.132  0.00  0.00    +0.000 A 
ATOM     12  C   UNL     1      -3.758  11.870  18.363  0.00  0.00    +0.000 A 
ATOM     13  C   UNL     1      -2.660  11.633  19.231  0.00  0.00    +0.000 A 
ATOM     14  C   UNL     1      -2.505  12.281  20.488  0.00  0.00    +0.000 A 
ATOM     15  C   UNL     1      -3.544  13.152  21.086  0.00  0.00    +0.000 C 
ATOM     16  O   UNL     1      -4.242  13.922  20.431  0.00  0.00    +0.000 OA
ENDROOT
BRANCH   7  17
ATOM     17  C   UNL     1       0.624   9.568  19.295  0.00  0.00    +0.000 A 
ATOM     18  C   UNL     1       1.252   9.655  18.034  0.00  0.00    +0.000 A 
ATOM     19  C   UNL     1       2.253   8.756  17.653  0.00  0.00    +0.000 A 
ATOM     20  C   UNL     1       2.687   7.780  18.543  0.00  0.00    +0.000 A 
ATOM     21  C   UNL     1       2.100   7.683  19.799  0.00  0.00    +0.000 A 
ATOM     22  C   UNL     1       1.057   8.541  20.151  0.00  0.00    +0.000 A 
ENDBRANCH   7  17
BRANCH   1  24
ATOM     23  C   UNL     1      -4.837  12.464  24.576  0.00  0.00    +0.000 C 
ATOM     24  O   UNL     1      -4.847  13.001  23.262  0.00  0.00    +0.000 OA
ENDBRANCH   1  24
BRANCH  10  25
ATOM     25  O   UNL     1      -3.062   9.598  15.574  0.00  0.00    +0.000 OA
ATOM     26  H   UNL     1      -3.728  10.028  15.013  0.00  0.00    +0.000 HD
ENDBRANCH  10  25
BRANCH  11  27
ATOM     27  O   UNL     1      -5.034  11.631  16.447  0.00  0.00    +0.000 OA
ATOM     28  C   UNL     1      -5.946  12.497  17.107  0.00  0.00    +0.000 C 
ENDBRANCH  11  27
TORSDOF 4
ENDMDL
MODEL 5
REMARK VINA RESULT:      -6.9      2.202      6.011
REMARK  Name = 
REMARK  6 active torsions:
REMARK  status: ('A' for Active; 'I' for Inactive)
REMARK    1  A    between atoms: C_1  and  O_2
REMARK    2  A    between atoms: O_2  and  C_3
REMARK    3  A    between atoms: C_9  and  C_10
REMARK    4  A    between atoms: C_18  and  O_19
REMARK    5  A    between atoms: C_20  and  O_21
REMARK    6  A    between atoms: O_21  and  C_22
REMARK                            x       y       z     vdW  Elec       q    Type
REMARK                         _______ _______ _______ _____ _____    ______ ____
ROOT
ATOM      1  C   UNL     1       7.037   5.223  16.264  0.00  0.00    +0.000 C 
ATOM      2  C   UNL     1       7.280   6.536  16.273  0.00  0.00    +0.000 C 
ATOM      3  C   UNL     1       6.496   7.422  17.147  0.00  0.00    +0.000 C 
ATOM      4  O   UNL     1       6.762   8.609  17.239  0.00  0.00    +0.000 OA
ATOM      5  C   UNL     1       5.271   6.833  17.720  0.00  0.00    +0.000 A 
ATOM      6  C   UNL     1       4.208   7.680  18.018  0.00  0.00    +0.000 A 
ATOM      7  C   UNL     1       2.973   7.174  18.469  0.00  0.00    +0.000 A 
ATOM      8  C   UNL     1       2.822   5.752  18.635  0.00  0.00    +0.000 A 
ATOM      9  C   UNL     1       1.611   5.139  19.030  0.00  0.00    +0.000 A 
ATOM     10  C   UNL     1       1.491   3.764  19.290  0.00  0.00    +0.000 A 
ATOM     11  C   UNL     1       2.574   2.929  19.079  0.00  0.00    +0.000 A 
ATOM     12  C   UNL     1       3.769   3.499  18.613  0.00  0.00    +0.000 A 
ATOM     13  C   UNL     1       3.933   4.889  18.381  0.00  0.00    +0.000 A 
ATOM     14  C   UNL     1       5.139   5.460  17.888  0.00  0.00    +0.000 A 
ATOM     15  C   UNL     1       6.291   4.652  17.424  0.00  0.00    +0.000 C 
ATOM     16  O   UNL     1       6.648   3.609  17.966  0.00  0.00    +0.000 OA
ENDROOT
BRANCH   7  17
ATOM     17  C   UNL     1       1.923   8.181  18.801  0.00  0.00    +0.000 A 
ATOM     18  C   UNL     1       1.350   8.999  17.805  0.00  0.00    +0.000 A 
ATOM     19  C   UNL     1       0.441  10.012  18.125  0.00  0.00    +0.000 A 
ATOM     20  C   UNL     1       0.043  10.199  19.445  0.00  0.00    +0.000 A 
ATOM     21  C   UNL     1       0.578   9.395  20.445  0.00  0.00    +0.000 A 
ATOM     22  C   UNL     1       1.532   8.427  20.128  0.00  0.00    +0.000 A 
ENDBRANCH   7  17
BRANCH   1  24
ATOM     23  C   UNL     1       6.603   4.375  14.058  0.00  0.00    +0.000 C 
ATOM     24  O   UNL     1       7.467   4.494  15.178  0.00  0.00    +0.000 OA
ENDBRANCH   1  24
BRANCH  10  25
ATOM     25  O   UNL     1       0.295   3.296  19.762  0.00  0.00    +0.000 OA
ATOM     26  H   UNL     1      -0.123   3.989  20.299  0.00  0.00    +0.000 HD
ENDBRANCH  10  25
BRANCH  11  27
ATOM     27  O   UNL     1       2.658   1.576  19.268  0.00  0.00    +0.000 OA
ATOM     28  C   UNL     1       3.807   0.900  18.775  0.00  0.00    +0.000 C 
ENDBRANCH  11  27
TORSDOF 4
ENDMDL
MODEL 6
REMARK VINA RESULT:      -6.9      7.287     11.370
REMARK  Name = 
REMARK  6 active torsions:
REMARK  status: ('A' for Active; 'I' for Inactive)
REMARK    1  A    between atoms: C_1  and  O_2
REMARK    2  A    between atoms: O_2  and  C_3
REMARK    3  A    between atoms: C_9  and  C_10
REMARK    4  A    between atoms: C_18  and  O_19
REMARK    5  A    between atoms: C_20  and  O_21
REMARK    6  A    between atoms: O_21  and  C_22
REMARK                            x       y       z     vdW  Elec       q    Type
REMARK                         _______ _______ _______ _____ _____    ______ ____
ROOT
ATOM      1  C   UNL     1       0.875  11.585  19.317  0.00  0.00    +0.000 C 
ATOM      2  C   UNL     1       0.997  11.810  20.628  0.00  0.00    +0.000 C 
ATOM      3  C   UNL     1      -0.199  11.828  21.484  0.00  0.00    +0.000 C 
ATOM      4  O   UNL     1      -0.102  11.940  22.695  0.00  0.00    +0.000 OA
ATOM      5  C   UNL     1      -1.490  11.913  20.776  0.00  0.00    +0.000 A 
ATOM      6  C   UNL     1      -2.559  12.523  21.425  0.00  0.00    +0.000 A 
ATOM      7  C   UNL     1      -3.790  12.731  20.771  0.00  0.00    +0.000 A 
ATOM      8  C   UNL     1      -3.938  12.288  19.408  0.00  0.00    +0.000 A 
ATOM      9  C   UNL     1      -5.110  12.497  18.646  0.00  0.00    +0.000 A 
ATOM     10  C   UNL     1      -5.292  11.976  17.354  0.00  0.00    +0.000 A 
ATOM     11  C   UNL     1      -4.261  11.291  16.739  0.00  0.00    +0.000 A 
ATOM     12  C   UNL     1      -3.056  11.133  17.443  0.00  0.00    +0.000 A 
ATOM     13  C   UNL     1      -2.856  11.612  18.764  0.00  0.00    +0.000 A 
ATOM     14  C   UNL     1      -1.628  11.471  19.466  0.00  0.00    +0.000 A 
ATOM     15  C   UNL     1      -0.389  10.949  18.842  0.00  0.00    +0.000 C 
ATOM     16  O   UNL     1      -0.378  10.034  18.023  0.00  0.00    +0.000 OA
ENDROOT
BRANCH   7  17
ATOM     17  C   UNL     1      -4.877  13.353  21.581  0.00  0.00    +0.000 A 
ATOM     18  C   UNL     1      -4.844  14.721  21.927  0.00  0.00    +0.000 A 
ATOM     19  C   UNL     1      -5.807  15.284  22.770  0.00  0.00    +0.000 A 
ATOM     20  C   UNL     1      -6.856  14.506  23.248  0.00  0.00    +0.000 A 
ATOM     21  C   UNL     1      -6.923  13.160  22.908  0.00  0.00    +0.000 A 
ATOM     22  C   UNL     1      -5.926  12.587  22.118  0.00  0.00    +0.000 A 
ENDBRANCH   7  17
BRANCH   1  24
ATOM     23  C   UNL     1       2.185  13.364  18.371  0.00  0.00    +0.000 C 
ATOM     24  O   UNL     1       1.908  11.977  18.495  0.00  0.00    +0.000 OA
ENDBRANCH   1  24
BRANCH  10  25
ATOM     25  O   UNL     1      -6.506  12.157  16.749  0.00  0.00    +0.000 OA
ATOM     26  H   UNL     1      -6.709  13.106  16.730  0.00  0.00    +0.000 HD
ENDBRANCH  10  25
BRANCH  11  27
ATOM     27  O   UNL     1      -4.238  10.716  15.497  0.00  0.00    +0.000 OA
ATOM     28  C   UNL     1      -2.993  10.251  14.995  0.00  0.00    +0.000 C 
ENDBRANCH  11  27
TORSDOF 4
ENDMDL
MODEL 7
REMARK VINA RESULT:      -6.8      6.682     10.018
REMARK  Name = 
REMARK  6 active torsions:
REMARK  status: ('A' for Active; 'I' for Inactive)
REMARK    1  A    between atoms: C_1  and  O_2
REMARK    2  A    between atoms: O_2  and  C_3
REMARK    3  A    between atoms: C_9  and  C_10
REMARK    4  A    between atoms: C_18  and  O_19
REMARK    5  A    between atoms: C_20  and  O_21
REMARK    6  A    between atoms: O_21  and  C_22
REMARK                            x       y       z     vdW  Elec       q    Type
REMARK                         _______ _______ _______ _____ _____    ______ ____
ROOT
ATOM      1  C   UNL     1      -4.957  12.834  23.313  0.00  0.00    +0.000 C 
ATOM      2  C   UNL     1      -3.769  12.986  23.904  0.00  0.00    +0.000 C 
ATOM      3  C   UNL     1      -2.552  13.111  23.087  0.00  0.00    +0.000 C 
ATOM      4  O   UNL     1      -1.471  13.342  23.603  0.00  0.00    +0.000 OA
ATOM      5  C   UNL     1      -2.695  12.734  21.668  0.00  0.00    +0.000 A 
ATOM      6  C   UNL     1      -1.577  12.243  21.000  0.00  0.00    +0.000 A 
ATOM      7  C   UNL     1      -1.665  11.768  19.677  0.00  0.00    +0.000 A 
ATOM      8  C   UNL     1      -2.940  11.808  19.006  0.00  0.00    +0.000 A 
ATOM      9  C   UNL     1      -3.147  11.308  17.700  0.00  0.00    +0.000 A 
ATOM     10  C   UNL     1      -4.362  11.439  17.008  0.00  0.00    +0.000 A 
ATOM     11  C   UNL     1      -5.453  12.008  17.640  0.00  0.00    +0.000 A 
ATOM     12  C   UNL     1      -5.299  12.446  18.965  0.00  0.00    +0.000 A 
ATOM     13  C   UNL     1      -4.073  12.364  19.676  0.00  0.00    +0.000 A 
ATOM     14  C   UNL     1      -3.925  12.788  21.025  0.00  0.00    +0.000 A 
ATOM     15  C   UNL     1      -5.064  13.214  21.873  0.00  0.00    +0.000 C 
ATOM     16  O   UNL     1      -6.013  13.868  21.451  0.00  0.00    +0.000 OA
ENDROOT
BRANCH   7  17
ATOM     17  C   UNL     1      -0.392  11.309  19.048  0.00  0.00    +0.000 A 
ATOM     18  C   UNL     1      -0.204   9.962  18.672  0.00  0.00    +0.000 A 
ATOM     19  C   UNL     1       1.022   9.507  18.177  0.00  0.00    +0.000 A 
ATOM     20  C   UNL     1       2.074  10.397  17.997  0.00  0.00    +0.000 A 
ATOM     21  C   UNL     1       1.911  11.734  18.342  0.00  0.00    +0.000 A 
ATOM     22  C   UNL     1       0.706  12.172  18.895  0.00  0.00    +0.000 A 
ENDBRANCH   7  17
BRANCH   1  24
ATOM     23  C   UNL     1      -7.152  13.104  24.253  0.00  0.00    +0.000 C 
ATOM     24  O   UNL     1      -5.989  12.313  24.061  0.00  0.00    +0.000 OA
ENDBRANCH   1  24
BRANCH  10  25
ATOM     25  O   UNL     1      -4.419  11.005  15.712  0.00  0.00    +0.000 OA
ATOM     26  H   UNL     1      -4.355  10.036  15.703  0.00  0.00    +0.000 HD
ENDBRANCH  10  25
BRANCH  11  27
ATOM     27  O   UNL     1      -6.712  12.221  17.145  0.00  0.00    +0.000 OA
ATOM     28  C   UNL     1      -7.589  13.062  17.881  0.00  0.00    +0.000 C 
ENDBRANCH  11  27
TORSDOF 4
ENDMDL
MODEL 8
REMARK VINA RESULT:      -6.5      2.294      6.638
REMARK  Name = 
REMARK  6 active torsions:
REMARK  status: ('A' for Active; 'I' for Inactive)
REMARK    1  A    between atoms: C_1  and  O_2
REMARK    2  A    between atoms: O_2  and  C_3
REMARK    3  A    between atoms: C_9  and  C_10
REMARK    4  A    between atoms: C_18  and  O_19
REMARK    5  A    between atoms: C_20  and  O_21
REMARK    6  A    between atoms: O_21  and  C_22
REMARK                            x       y       z     vdW  Elec       q    Type
REMARK                         _______ _______ _______ _____ _____    ______ ____
ROOT
ATOM      1  C   UNL     1       3.342   1.619  18.772  0.00  0.00    +0.000 C 
ATOM      2  C   UNL     1       2.080   1.775  19.181  0.00  0.00    +0.000 C 
ATOM      3  C   UNL     1       1.382   3.047  18.940  0.00  0.00    +0.000 C 
ATOM      4  O   UNL     1       0.202   3.179  19.223  0.00  0.00    +0.000 OA
ATOM      5  C   UNL     1       2.238   4.180  18.543  0.00  0.00    +0.000 A 
ATOM      6  C   UNL     1       1.826   5.467  18.875  0.00  0.00    +0.000 A 
ATOM      7  C   UNL     1       2.642   6.586  18.620  0.00  0.00    +0.000 A 
ATOM      8  C   UNL     1       3.922   6.385  17.990  0.00  0.00    +0.000 A 
ATOM      9  C   UNL     1       4.838   7.432  17.739  0.00  0.00    +0.000 A 
ATOM     10  C   UNL     1       6.039   7.253  17.034  0.00  0.00    +0.000 A 
ATOM     11  C   UNL     1       6.412   5.986  16.623  0.00  0.00    +0.000 A 
ATOM     12  C   UNL     1       5.557   4.914  16.926  0.00  0.00    +0.000 A 
ATOM     13  C   UNL     1       4.318   5.068  17.600  0.00  0.00    +0.000 A 
ATOM     14  C   UNL     1       3.465   3.978  17.925  0.00  0.00    +0.000 A 
ATOM     15  C   UNL     1       3.849   2.560  17.730  0.00  0.00    +0.000 C 
ATOM     16  O   UNL     1       4.501   2.161  16.768  0.00  0.00    +0.000 OA
ENDROOT
BRANCH   7  17
ATOM     17  C   UNL     1       2.075   7.920  18.977  0.00  0.00    +0.000 A 
ATOM     18  C   UNL     1       1.637   8.203  20.288  0.00  0.00    +0.000 A 
ATOM     19  C   UNL     1       1.012   9.414  20.603  0.00  0.00    +0.000 A 
ATOM     20  C   UNL     1       0.856  10.392  19.627  0.00  0.00    +0.000 A 
ATOM     21  C   UNL     1       1.295  10.146  18.331  0.00  0.00    +0.000 A 
ATOM     22  C   UNL     1       1.861   8.913  18.006  0.00  0.00    +0.000 A 
ENDBRANCH   7  17
BRANCH   1  24
ATOM     23  C   UNL     1       5.027   0.980  20.361  0.00  0.00    +0.000 C 
ATOM     24  O   UNL     1       4.092   0.622  19.355  0.00  0.00    +0.000 OA
ENDBRANCH   1  24
BRANCH  10  25
ATOM     25  O   UNL     1       6.802   8.357  16.763  0.00  0.00    +0.000 OA
ATOM     26  H   UNL     1       6.216   9.122  16.646  0.00  0.00    +0.000 HD
ENDBRANCH  10  25
BRANCH  11  27
ATOM     27  O   UNL     1       7.532   5.605  15.936  0.00  0.00    +0.000 OA
ATOM     28  C   UNL     1       7.363   4.881  14.725  0.00  0.00    +0.000 C 
ENDBRANCH  11  27
TORSDOF 4
ENDMDL
MODEL 9
REMARK VINA RESULT:      -6.4      8.071     12.053
REMARK  Name = 
REMARK  6 active torsions:
REMARK  status: ('A' for Active; 'I' for Inactive)
REMARK    1  A    between atoms: C_1  and  O_2
REMARK    2  A    between atoms: O_2  and  C_3
REMARK    3  A    between atoms: C_9  and  C_10
REMARK    4  A    between atoms: C_18  and  O_19
REMARK    5  A    between atoms: C_20  and  O_21
REMARK    6  A    between atoms: O_21  and  C_22
REMARK                            x       y       z     vdW  Elec       q    Type
REMARK                         _______ _______ _______ _____ _____    ______ ____
ROOT
ATOM      1  C   UNL     1       0.291  13.134  20.071  0.00  0.00    +0.000 C 
ATOM      2  C   UNL     1       0.363  13.423  21.373  0.00  0.00    +0.000 C 
ATOM      3  C   UNL     1      -0.796  13.175  22.245  0.00  0.00    +0.000 C 
ATOM      4  O   UNL     1      -0.721  13.345  23.451  0.00  0.00    +0.000 OA
ATOM      5  C   UNL     1      -2.073  12.921  21.553  0.00  0.00    +0.000 A 
ATOM      6  C   UNL     1      -3.255  13.271  22.198  0.00  0.00    +0.000 A 
ATOM      7  C   UNL     1      -4.503  13.153  21.556  0.00  0.00    +0.000 A 
ATOM      8  C   UNL     1      -4.547  12.645  20.209  0.00  0.00    +0.000 A 
ATOM      9  C   UNL     1      -5.739  12.537  19.457  0.00  0.00    +0.000 A 
ATOM     10  C   UNL     1      -5.797  11.948  18.184  0.00  0.00    +0.000 A 
ATOM     11  C   UNL     1      -4.634  11.516  17.574  0.00  0.00    +0.000 A 
ATOM     12  C   UNL     1      -3.423  11.679  18.265  0.00  0.00    +0.000 A 
ATOM     13  C   UNL     1      -3.337  12.233  19.569  0.00  0.00    +0.000 A 
ATOM     14  C   UNL     1      -2.107  12.418  20.258  0.00  0.00    +0.000 A 
ATOM     15  C   UNL     1      -0.782  12.195  19.632  0.00  0.00    +0.000 C 
ATOM     16  O   UNL     1      -0.554  11.284  18.840  0.00  0.00    +0.000 OA
ENDROOT
BRANCH   7  17
ATOM     17  C   UNL     1      -5.705  13.516  22.363  0.00  0.00    +0.000 A 
ATOM     18  C   UNL     1      -6.047  14.864  22.604  0.00  0.00    +0.000 A 
ATOM     19  C   UNL     1      -7.111  15.208  23.443  0.00  0.00    +0.000 A 
ATOM     20  C   UNL     1      -7.892  14.213  24.021  0.00  0.00    +0.000 A 
ATOM     21  C   UNL     1      -7.589  12.877  23.786  0.00  0.00    +0.000 A 
ATOM     22  C   UNL     1      -6.487  12.537  22.999  0.00  0.00    +0.000 A 
ENDBRANCH   7  17
BRANCH   1  24
ATOM     23  C   UNL     1       2.472  13.149  19.061  0.00  0.00    +0.000 C 
ATOM     24  O   UNL     1       1.192  13.741  19.225  0.00  0.00    +0.000 OA
ENDBRANCH   1  24
BRANCH  10  25
ATOM     25  O   UNL     1      -7.022  11.808  17.590  0.00  0.00    +0.000 OA
ATOM     26  H   UNL     1      -7.487  11.062  18.002  0.00  0.00    +0.000 HD
ENDBRANCH  10  25
BRANCH  11  27
ATOM     27  O   UNL     1      -4.479  10.925  16.349  0.00  0.00    +0.000 OA
ATOM     28  C   UNL     1      -3.200  10.979  15.734  0.00  0.00    +0.000 C 
ENDBRANCH  11  27
TORSDOF 4
ENDMDL
