MODEL 1
REMARK VINA RESULT:      -9.2      0.000      0.000
REMARK  Name = 
REMARK  5 active torsions:
REMARK  status: ('A' for Active; 'I' for Inactive)
REMARK    1  A    between atoms: C_1  and  C_2
REMARK    2  A    between atoms: C_2  and  C_3
REMARK    3  A    between atoms: C_9  and  N_10
REMARK    4  A    between atoms: N_14  and  C_15
REMARK    5  A    between atoms: C_18  and  C_19
REMARK                            x       y       z     vdW  Elec       q    Type
REMARK                         _______ _______ _______ _____ _____    ______ ____
ROOT
ATOM      1  C   UNL     1       7.099   5.033  14.867  0.00  0.00    +0.000 C 
ATOM      2  C   UNL     1       6.204   5.132  16.120  0.00  0.00    +0.000 C 
ATOM      3  C   UNL     1       7.127   5.429  17.323  0.00  0.00    +0.000 C 
ATOM      4  C   UNL     1       5.528   3.764  16.308  0.00  0.00    +0.000 C 
ATOM      5  C   UNL     1       4.499   3.777  17.404  0.00  0.00    +0.000 C 
ATOM      6  O   UNL     1       4.116   2.739  17.936  0.00  0.00    +0.000 OA
ATOM      7  C   UNL     1       3.896   5.072  17.803  0.00  0.00    +0.000 A 
ATOM      8  C   UNL     1       3.121   5.114  18.945  0.00  0.00    +0.000 A 
ATOM      9  C   UNL     1       2.523   6.326  19.296  0.00  0.00    +0.000 A 
ATOM     10  C   UNL     1       2.655   7.503  18.546  0.00  0.00    +0.000 A 
ATOM     11  N   UNL     1       1.938   8.652  18.929  0.00  0.00    +0.000 N 
ATOM     12  N   UNL     1       3.453   7.454  17.434  0.00  0.00    +0.000 NA
ATOM     13  C   UNL     1       4.096   6.256  17.105  0.00  0.00    +0.000 A 
ATOM     14  C   UNL     1       5.107   6.234  15.952  0.00  0.00    +0.000 C 
ATOM     15  H   UNL     1       1.923   8.855  19.920  0.00  0.00    +0.000 HD
ENDROOT
BRANCH  11  16
ATOM     16  C   UNL     1       1.510   9.765  18.066  0.00  0.00    +0.000 C 
ATOM     17  C   UNL     1      -0.029   9.699  17.822  0.00  0.00    +0.000 C 
ATOM     18  C   UNL     1      -0.896  10.321  18.883  0.00  0.00    +0.000 C 
ATOM     19  C   UNL     1      -0.455  11.242  19.758  0.00  0.00    +0.000 C 
ATOM     20  C   UNL     1       0.952  11.779  19.689  0.00  0.00    +0.000 C 
ATOM     21  C   UNL     1       1.887  11.149  18.624  0.00  0.00    +0.000 C 
BRANCH  19  22
ATOM     22  C   UNL     1      -1.303  11.534  20.941  0.00  0.00    +0.000 A 
ATOM     23  C   UNL     1      -2.393  12.400  20.739  0.00  0.00    +0.000 A 
ATOM     24  C   UNL     1      -3.126  12.899  21.817  0.00  0.00    +0.000 A 
ATOM     25  C   UNL     1      -2.786  12.528  23.109  0.00  0.00    +0.000 A 
ATOM     26  F   UNL     1      -3.459  13.048  24.143  0.00  0.00    +0.000 F 
ATOM     27  C   UNL     1      -1.739  11.639  23.341  0.00  0.00    +0.000 A 
ATOM     28  C   UNL     1      -0.993  11.146  22.252  0.00  0.00    +0.000 A 
ENDBRANCH  19  22
ENDBRANCH  11  16
BRANCH   9  29
ATOM     29  N   UNL     1       1.706   6.302  20.480  0.00  0.00    +0.000 N 
ATOM     30  O   UNL     1       1.569   7.373  21.086  0.00  0.00    +0.000 OA
ATOM     31  O   UNL     1       1.143   5.236  20.747  0.00  0.00    +0.000 OA
ENDBRANCH   9  29
TORSDOF 3
ENDMDL
MODEL 2
REMARK VINA RESULT:      -9.0      0.910      1.195
REMARK  Name = 
REMARK  5 active torsions:
REMARK  status: ('A' for Active; 'I' for Inactive)
REMARK    1  A    between atoms: C_1  and  C_2
REMARK    2  A    between atoms: C_2  and  C_3
REMARK    3  A    between atoms: C_9  and  N_10
REMARK    4  A    between atoms: N_14  and  C_15
REMARK    5  A    between atoms: C_18  and  C_19
REMARK                            x       y       z     vdW  Elec       q    Type
REMARK                         _______ _______ _______ _____ _____    ______ ____
ROOT
ATOM      1  C   UNL     1       7.107   5.114  14.937  0.00  0.00    +0.000 C 
ATOM      2  C   UNL     1       6.210   5.223  16.188  0.00  0.00    +0.000 C 
ATOM      3  C   UNL     1       7.123   5.592  17.378  0.00  0.00    +0.000 C 
ATOM      4  C   UNL     1       5.581   3.840  16.422  0.00  0.00    +0.000 C 
ATOM      5  C   UNL     1       4.553   3.855  17.519  0.00  0.00    +0.000 C 
ATOM      6  O   UNL     1       4.205   2.823  18.085  0.00  0.00    +0.000 OA
ATOM      7  C   UNL     1       3.906   5.142  17.874  0.00  0.00    +0.000 A 
ATOM      8  C   UNL     1       3.130   5.195  19.015  0.00  0.00    +0.000 A 
ATOM      9  C   UNL     1       2.492   6.397  19.327  0.00  0.00    +0.000 A 
ATOM     10  C   UNL     1       2.583   7.552  18.537  0.00  0.00    +0.000 A 
ATOM     11  N   UNL     1       1.827   8.688  18.883  0.00  0.00    +0.000 N 
ATOM     12  N   UNL     1       3.382   7.493  17.427  0.00  0.00    +0.000 NA
ATOM     13  C   UNL     1       4.065   6.308  17.137  0.00  0.00    +0.000 A 
ATOM     14  C   UNL     1       5.076   6.282  15.984  0.00  0.00    +0.000 C 
ATOM     15  H   UNL     1       1.805   8.923  19.866  0.00  0.00    +0.000 HD
ENDROOT
BRANCH  11  16
ATOM     16  C   UNL     1       1.361   9.756  17.984  0.00  0.00    +0.000 C 
ATOM     17  C   UNL     1      -0.176   9.963  18.142  0.00  0.00    +0.000 C 
ATOM     18  C   UNL     1      -0.613  10.860  19.269  0.00  0.00    +0.000 C 
ATOM     19  C   UNL     1       0.189  11.772  19.847  0.00  0.00    +0.000 C 
ATOM     20  C   UNL     1       1.590  12.014  19.345  0.00  0.00    +0.000 C 
ATOM     21  C   UNL     1       2.088  11.095  18.200  0.00  0.00    +0.000 C 
BRANCH  19  22
ATOM     22  C   UNL     1      -0.248  12.358  21.139  0.00  0.00    +0.000 A 
ATOM     23  C   UNL     1      -1.170  11.608  21.892  0.00  0.00    +0.000 A 
ATOM     24  C   UNL     1      -1.798  12.156  23.012  0.00  0.00    +0.000 A 
ATOM     25  C   UNL     1      -1.502  13.453  23.400  0.00  0.00    +0.000 A 
ATOM     26  F   UNL     1      -2.143  13.992  24.445  0.00  0.00    +0.000 F 
ATOM     27  C   UNL     1      -0.562  14.207  22.701  0.00  0.00    +0.000 A 
ATOM     28  C   UNL     1       0.061  13.657  21.563  0.00  0.00    +0.000 A 
ENDBRANCH  19  22
ENDBRANCH  11  16
BRANCH   9  29
ATOM     29  N   UNL     1       1.676   6.385  20.512  0.00  0.00    +0.000 N 
ATOM     30  O   UNL     1       1.161   5.304  20.825  0.00  0.00    +0.000 OA
ATOM     31  O   UNL     1       1.625   7.433  21.164  0.00  0.00    +0.000 OA
ENDBRANCH   9  29
TORSDOF 3
ENDMDL
MODEL 3
REMARK VINA RESULT:      -8.9      1.992      2.879
REMARK  Name = 
REMARK  5 active torsions:
REMARK  status: ('A' for Active; 'I' for Inactive)
REMARK    1  A    between atoms: C_1  and  C_2
REMARK    2  A    between atoms: C_2  and  C_3
REMARK    3  A    between atoms: C_9  and  N_10
REMARK    4  A    between atoms: N_14  and  C_15
REMARK    5  A    between atoms: C_18  and  C_19
REMARK                            x       y       z     vdW  Elec       q    Type
REMARK                         _______ _______ _______ _____ _____    ______ ____
ROOT
ATOM      1  C   UNL     1       4.629   3.842  17.276  0.00  0.00    +0.000 C 
ATOM      2  C   UNL     1       4.031   4.706  18.407  0.00  0.00    +0.000 C 
ATOM      3  C   UNL     1       5.211   5.260  19.236  0.00  0.00    +0.000 C 
ATOM      4  C   UNL     1       3.167   3.782  19.281  0.00  0.00    +0.000 C 
ATOM      5  C   UNL     1       2.394   4.537  20.326  0.00  0.00    +0.000 C 
ATOM      6  O   UNL     1       1.940   3.975  21.318  0.00  0.00    +0.000 OA
ATOM      7  C   UNL     1       2.127   5.980  20.113  0.00  0.00    +0.000 A 
ATOM      8  C   UNL     1       1.612   6.716  21.161  0.00  0.00    +0.000 A 
ATOM      9  C   UNL     1       1.325   8.066  20.947  0.00  0.00    +0.000 A 
ATOM     10  C   UNL     1       1.519   8.714  19.719  0.00  0.00    +0.000 A 
ATOM     11  N   UNL     1       1.113  10.054  19.572  0.00  0.00    +0.000 N 
ATOM     12  N   UNL     1       2.060   7.980  18.698  0.00  0.00    +0.000 NA
ATOM     13  C   UNL     1       2.398   6.641  18.921  0.00  0.00    +0.000 A 
ATOM     14  C   UNL     1       3.141   5.858  17.833  0.00  0.00    +0.000 C 
ATOM     15  H   UNL     1       1.329  10.670  20.344  0.00  0.00    +0.000 HD
ENDROOT
BRANCH  11  16
ATOM     16  C   UNL     1       0.733  10.739  18.325  0.00  0.00    +0.000 C 
ATOM     17  C   UNL     1      -0.631  10.194  17.803  0.00  0.00    +0.000 C 
ATOM     18  C   UNL     1      -1.866  10.812  18.401  0.00  0.00    +0.000 C 
ATOM     19  C   UNL     1      -1.879  12.016  19.001  0.00  0.00    +0.000 C 
ATOM     20  C   UNL     1      -0.644  12.878  19.055  0.00  0.00    +0.000 C 
ATOM     21  C   UNL     1       0.657  12.269  18.471  0.00  0.00    +0.000 C 
BRANCH  19  22
ATOM     22  C   UNL     1      -3.065  12.366  19.822  0.00  0.00    +0.000 A 
ATOM     23  C   UNL     1      -2.830  12.671  21.175  0.00  0.00    +0.000 A 
ATOM     24  C   UNL     1      -3.886  12.811  22.076  0.00  0.00    +0.000 A 
ATOM     25  C   UNL     1      -5.191  12.660  21.633  0.00  0.00    +0.000 A 
ATOM     26  F   UNL     1      -6.200  12.746  22.509  0.00  0.00    +0.000 F 
ATOM     27  C   UNL     1      -5.461  12.400  20.291  0.00  0.00    +0.000 A 
ATOM     28  C   UNL     1      -4.392  12.246  19.385  0.00  0.00    +0.000 A 
ENDBRANCH  19  22
ENDBRANCH  11  16
BRANCH   9  29
ATOM     29  N   UNL     1       0.766   8.774  22.066  0.00  0.00    +0.000 N 
ATOM     30  O   UNL     1      -0.445   8.627  22.272  0.00  0.00    +0.000 OA
ATOM     31  O   UNL     1       1.556   9.404  22.778  0.00  0.00    +0.000 OA
ENDBRANCH   9  29
TORSDOF 3
ENDMDL
MODEL 4
REMARK VINA RESULT:      -8.8      2.070      2.929
REMARK  Name = 
REMARK  5 active torsions:
REMARK  status: ('A' for Active; 'I' for Inactive)
REMARK    1  A    between atoms: C_1  and  C_2
REMARK    2  A    between atoms: C_2  and  C_3
REMARK    3  A    between atoms: C_9  and  N_10
REMARK    4  A    between atoms: N_14  and  C_15
REMARK    5  A    between atoms: C_18  and  C_19
REMARK                            x       y       z     vdW  Elec       q    Type
REMARK                         _______ _______ _______ _____ _____    ______ ____
ROOT
ATOM      1  C   UNL     1       4.607   4.189  17.168  0.00  0.00    +0.000 C 
ATOM      2  C   UNL     1       3.997   4.999  18.333  0.00  0.00    +0.000 C 
ATOM      3  C   UNL     1       5.170   5.541  19.180  0.00  0.00    +0.000 C 
ATOM      4  C   UNL     1       3.152   4.028  19.172  0.00  0.00    +0.000 C 
ATOM      5  C   UNL     1       2.370   4.729  20.247  0.00  0.00    +0.000 C 
ATOM      6  O   UNL     1       1.928   4.122  21.218  0.00  0.00    +0.000 OA
ATOM      7  C   UNL     1       2.078   6.175  20.090  0.00  0.00    +0.000 A 
ATOM      8  C   UNL     1       1.553   6.861  21.168  0.00  0.00    +0.000 A 
ATOM      9  C   UNL     1       1.244   8.213  21.006  0.00  0.00    +0.000 A 
ATOM     10  C   UNL     1       1.422   8.911  19.803  0.00  0.00    +0.000 A 
ATOM     11  N   UNL     1       0.993  10.248  19.709  0.00  0.00    +0.000 N 
ATOM     12  N   UNL     1       1.973   8.226  18.753  0.00  0.00    +0.000 NA
ATOM     13  C   UNL     1       2.334   6.885  18.925  0.00  0.00    +0.000 A 
ATOM     14  C   UNL     1       3.087   6.157  17.805  0.00  0.00    +0.000 C 
ATOM     15  H   UNL     1       1.202  10.838  20.504  0.00  0.00    +0.000 HD
ENDROOT
BRANCH  11  16
ATOM     16  C   UNL     1       0.598  10.975  18.490  0.00  0.00    +0.000 C 
ATOM     17  C   UNL     1      -0.723  10.382  17.912  0.00  0.00    +0.000 C 
ATOM     18  C   UNL     1      -2.001  10.899  18.514  0.00  0.00    +0.000 C 
ATOM     19  C   UNL     1      -2.093  12.068  19.174  0.00  0.00    +0.000 C 
ATOM     20  C   UNL     1      -0.911  12.994  19.297  0.00  0.00    +0.000 C 
ATOM     21  C   UNL     1       0.433  12.489  18.711  0.00  0.00    +0.000 C 
BRANCH  19  22
ATOM     22  C   UNL     1      -3.312  12.309  19.986  0.00  0.00    +0.000 A 
ATOM     23  C   UNL     1      -4.546  12.227  19.314  0.00  0.00    +0.000 A 
ATOM     24  C   UNL     1      -5.730  12.635  19.930  0.00  0.00    +0.000 A 
ATOM     25  C   UNL     1      -5.697  13.117  21.229  0.00  0.00    +0.000 A 
ATOM     26  F   UNL     1      -6.827  13.554  21.799  0.00  0.00    +0.000 F 
ATOM     27  C   UNL     1      -4.498  13.172  21.937  0.00  0.00    +0.000 A 
ATOM     28  C   UNL     1      -3.302  12.771  21.309  0.00  0.00    +0.000 A 
ENDBRANCH  19  22
ENDBRANCH  11  16
BRANCH   9  29
ATOM     29  N   UNL     1       0.676   8.869  22.153  0.00  0.00    +0.000 N 
ATOM     30  O   UNL     1       1.444   9.549  22.845  0.00  0.00    +0.000 OA
ATOM     31  O   UNL     1      -0.546   8.767  22.306  0.00  0.00    +0.000 OA
ENDBRANCH   9  29
TORSDOF 3
ENDMDL
MODEL 5
REMARK VINA RESULT:      -8.2      1.632      2.261
REMARK  Name = 
REMARK  5 active torsions:
REMARK  status: ('A' for Active; 'I' for Inactive)
REMARK    1  A    between atoms: C_1  and  C_2
REMARK    2  A    between atoms: C_2  and  C_3
REMARK    3  A    between atoms: C_9  and  N_10
REMARK    4  A    between atoms: N_14  and  C_15
REMARK    5  A    between atoms: C_18  and  C_19
REMARK                            x       y       z     vdW  Elec       q    Type
REMARK                         _______ _______ _______ _____ _____    ______ ____
ROOT
ATOM      1  C   UNL     1       5.486   5.611  15.809  0.00  0.00    +0.000 C 
ATOM      2  C   UNL     1       4.766   6.048  17.103  0.00  0.00    +0.000 C 
ATOM      3  C   UNL     1       5.845   6.576  18.074  0.00  0.00    +0.000 C 
ATOM      4  C   UNL     1       4.095   4.800  17.697  0.00  0.00    +0.000 C 
ATOM      5  C   UNL     1       3.220   5.124  18.876  0.00  0.00    +0.000 C 
ATOM      6  O   UNL     1       2.890   4.262  19.685  0.00  0.00    +0.000 OA
ATOM      7  C   UNL     1       2.699   6.505  19.020  0.00  0.00    +0.000 A 
ATOM      8  C   UNL     1       2.082   6.856  20.205  0.00  0.00    +0.000 A 
ATOM      9  C   UNL     1       1.559   8.145  20.324  0.00  0.00    +0.000 A 
ATOM     10  C   UNL     1       1.613   9.101  19.301  0.00  0.00    +0.000 A 
ATOM     11  N   UNL     1       0.974  10.343  19.480  0.00  0.00    +0.000 N 
ATOM     12  N   UNL     1       2.256   8.750  18.144  0.00  0.00    +0.000 NA
ATOM     13  C   UNL     1       2.828   7.478  18.038  0.00  0.00    +0.000 A 
ATOM     14  C   UNL     1       3.677   7.133  16.809  0.00  0.00    +0.000 C 
ATOM     15  H   UNL     1       1.093  10.776  20.386  0.00  0.00    +0.000 HD
ENDROOT
BRANCH  11  16
ATOM     16  C   UNL     1       0.457  11.240  18.433  0.00  0.00    +0.000 C 
ATOM     17  C   UNL     1      -0.957  10.772  17.971  0.00  0.00    +0.000 C 
ATOM     18  C   UNL     1      -2.116  11.243  18.806  0.00  0.00    +0.000 C 
ATOM     19  C   UNL     1      -2.062  12.314  19.618  0.00  0.00    +0.000 C 
ATOM     20  C   UNL     1      -0.829  13.177  19.696  0.00  0.00    +0.000 C 
ATOM     21  C   UNL     1       0.399  12.714  18.868  0.00  0.00    +0.000 C 
BRANCH  19  22
ATOM     22  C   UNL     1      -3.148  12.482  20.616  0.00  0.00    +0.000 A 
ATOM     23  C   UNL     1      -4.445  12.688  20.110  0.00  0.00    +0.000 A 
ATOM     24  C   UNL     1      -5.495  13.060  20.950  0.00  0.00    +0.000 A 
ATOM     25  C   UNL     1      -5.265  13.215  22.309  0.00  0.00    +0.000 A 
ATOM     26  F   UNL     1      -6.264  13.620  23.104  0.00  0.00    +0.000 F 
ATOM     27  C   UNL     1      -4.003  12.977  22.848  0.00  0.00    +0.000 A 
ATOM     28  C   UNL     1      -2.941  12.615  21.995  0.00  0.00    +0.000 A 
ENDBRANCH  19  22
ENDBRANCH  11  16
BRANCH   9  29
ATOM     29  N   UNL     1       0.904   8.443  21.569  0.00  0.00    +0.000 N 
ATOM     30  O   UNL     1       1.583   9.007  22.437  0.00  0.00    +0.000 OA
ATOM     31  O   UNL     1      -0.303   8.188  21.640  0.00  0.00    +0.000 OA
ENDBRANCH   9  29
TORSDOF 3
ENDMDL
MODEL 6
REMARK VINA RESULT:      -8.2      0.718      1.204
REMARK  Name = 
REMARK  5 active torsions:
REMARK  status: ('A' for Active; 'I' for Inactive)
REMARK    1  A    between atoms: C_1  and  C_2
REMARK    2  A    between atoms: C_2  and  C_3
REMARK    3  A    between atoms: C_9  and  N_10
REMARK    4  A    between atoms: N_14  and  C_15
REMARK    5  A    between atoms: C_18  and  C_19
REMARK                            x       y       z     vdW  Elec       q    Type
REMARK                         _______ _______ _______ _____ _____    ______ ____
ROOT
ATOM      1  C   UNL     1       7.541   5.585  15.806  0.00  0.00    +0.000 C 
ATOM      2  C   UNL     1       6.498   5.674  16.940  0.00  0.00    +0.000 C 
ATOM      3  C   UNL     1       7.240   6.143  18.212  0.00  0.00    +0.000 C 
ATOM      4  C   UNL     1       5.936   4.260  17.157  0.00  0.00    +0.000 C 
ATOM      5  C   UNL     1       4.788   4.240  18.127  0.00  0.00    +0.000 C 
ATOM      6  O   UNL     1       4.443   3.206  18.691  0.00  0.00    +0.000 OA
ATOM      7  C   UNL     1       4.023   5.491  18.354  0.00  0.00    +0.000 A 
ATOM      8  C   UNL     1       3.116   5.528  19.395  0.00  0.00    +0.000 A 
ATOM      9  C   UNL     1       2.371   6.693  19.583  0.00  0.00    +0.000 A 
ATOM     10  C   UNL     1       2.480   7.825  18.763  0.00  0.00    +0.000 A 
ATOM     11  N   UNL     1       1.618   8.918  18.973  0.00  0.00    +0.000 N 
ATOM     12  N   UNL     1       3.405   7.785  17.754  0.00  0.00    +0.000 NA
ATOM     13  C   UNL     1       4.192   6.640  17.593  0.00  0.00    +0.000 A 
ATOM     14  C   UNL     1       5.330   6.645  16.565  0.00  0.00    +0.000 C 
ATOM     15  H   UNL     1       1.466   9.184  19.937  0.00  0.00    +0.000 HD
ENDROOT
BRANCH  11  16
ATOM     16  C   UNL     1       1.193   9.922  17.984  0.00  0.00    +0.000 C 
ATOM     17  C   UNL     1      -0.359   9.912  17.837  0.00  0.00    +0.000 C 
ATOM     18  C   UNL     1      -1.126  10.727  18.844  0.00  0.00    +0.000 C 
ATOM     19  C   UNL     1      -0.586  11.734  19.552  0.00  0.00    +0.000 C 
ATOM     20  C   UNL     1       0.839  12.173  19.329  0.00  0.00    +0.000 C 
ATOM     21  C   UNL     1       1.672  11.346  18.317  0.00  0.00    +0.000 C 
BRANCH  19  22
ATOM     22  C   UNL     1      -1.343  12.239  20.725  0.00  0.00    +0.000 A 
ATOM     23  C   UNL     1      -0.604  12.478  21.899  0.00  0.00    +0.000 A 
ATOM     24  C   UNL     1      -1.244  12.753  23.108  0.00  0.00    +0.000 A 
ATOM     25  C   UNL     1      -2.628  12.806  23.156  0.00  0.00    +0.000 A 
ATOM     26  F   UNL     1      -3.240  13.021  24.328  0.00  0.00    +0.000 F 
ATOM     27  C   UNL     1      -3.388  12.616  22.004  0.00  0.00    +0.000 A 
ATOM     28  C   UNL     1      -2.740  12.325  20.786  0.00  0.00    +0.000 A 
ENDBRANCH  19  22
ENDBRANCH  11  16
BRANCH   9  29
ATOM     29  N   UNL     1       1.424   6.665  20.666  0.00  0.00    +0.000 N 
ATOM     30  O   UNL     1       0.776   5.621  20.814  0.00  0.00    +0.000 OA
ATOM     31  O   UNL     1       1.397   7.652  21.408  0.00  0.00    +0.000 OA
ENDBRANCH   9  29
TORSDOF 3
ENDMDL
MODEL 7
REMARK VINA RESULT:      -8.0      4.545     10.042
REMARK  Name = 
REMARK  5 active torsions:
REMARK  status: ('A' for Active; 'I' for Inactive)
REMARK    1  A    between atoms: C_1  and  C_2
REMARK    2  A    between atoms: C_2  and  C_3
REMARK    3  A    between atoms: C_9  and  N_10
REMARK    4  A    between atoms: N_14  and  C_15
REMARK    5  A    between atoms: C_18  and  C_19
REMARK                            x       y       z     vdW  Elec       q    Type
REMARK                         _______ _______ _______ _____ _____    ______ ____
ROOT
ATOM      1  C   UNL     1      -7.399  14.438  22.580  0.00  0.00    +0.000 C 
ATOM      2  C   UNL     1      -6.798  13.747  21.338  0.00  0.00    +0.000 C 
ATOM      3  C   UNL     1      -7.144  14.622  20.112  0.00  0.00    +0.000 C 
ATOM      4  C   UNL     1      -7.474  12.373  21.206  0.00  0.00    +0.000 C 
ATOM      5  C   UNL     1      -6.855  11.530  20.125  0.00  0.00    +0.000 C 
ATOM      6  O   UNL     1      -7.454  10.577  19.634  0.00  0.00    +0.000 OA
ATOM      7  C   UNL     1      -5.468  11.827  19.694  0.00  0.00    +0.000 A 
ATOM      8  C   UNL     1      -4.981  11.200  18.563  0.00  0.00    +0.000 A 
ATOM      9  C   UNL     1      -3.662  11.452  18.181  0.00  0.00    +0.000 A 
ATOM     10  C   UNL     1      -2.797  12.296  18.891  0.00  0.00    +0.000 A 
ATOM     11  N   UNL     1      -1.455  12.414  18.482  0.00  0.00    +0.000 N 
ATOM     12  N   UNL     1      -3.303  12.935  19.991  0.00  0.00    +0.000 NA
ATOM     13  C   UNL     1      -4.639  12.727  20.349  0.00  0.00    +0.000 A 
ATOM     14  C   UNL     1      -5.252  13.553  21.487  0.00  0.00    +0.000 C 
ATOM     15  H   UNL     1      -1.301  12.493  17.485  0.00  0.00    +0.000 HD
ENDROOT
BRANCH  11  16
ATOM     16  C   UNL     1      -0.297  12.779  19.314  0.00  0.00    +0.000 C 
ATOM     17  C   UNL     1      -0.256  11.898  20.599  0.00  0.00    +0.000 C 
ATOM     18  C   UNL     1       0.397  10.550  20.459  0.00  0.00    +0.000 C 
ATOM     19  C   UNL     1       1.267  10.243  19.480  0.00  0.00    +0.000 C 
ATOM     20  C   UNL     1       1.712  11.275  18.476  0.00  0.00    +0.000 C 
ATOM     21  C   UNL     1       1.046  12.672  18.570  0.00  0.00    +0.000 C 
BRANCH  19  22
ATOM     22  C   UNL     1       1.588   8.810  19.264  0.00  0.00    +0.000 A 
ATOM     23  C   UNL     1       1.541   7.974  20.395  0.00  0.00    +0.000 A 
ATOM     24  C   UNL     1       2.020   6.664  20.342  0.00  0.00    +0.000 A 
ATOM     25  C   UNL     1       2.540   6.170  19.155  0.00  0.00    +0.000 A 
ATOM     26  F   UNL     1       3.044   4.930  19.122  0.00  0.00    +0.000 F 
ATOM     27  C   UNL     1       2.562   6.958  18.006  0.00  0.00    +0.000 A 
ATOM     28  C   UNL     1       2.089   8.284  18.065  0.00  0.00    +0.000 A 
ENDBRANCH  19  22
ENDBRANCH  11  16
BRANCH   9  29
ATOM     29  N   UNL     1      -3.203  10.751  17.012  0.00  0.00    +0.000 N 
ATOM     30  O   UNL     1      -3.417  11.290  15.918  0.00  0.00    +0.000 OA
ATOM     31  O   UNL     1      -2.561   9.713  17.201  0.00  0.00    +0.000 OA
ENDBRANCH   9  29
TORSDOF 3
ENDMDL
MODEL 8
REMARK VINA RESULT:      -7.9      1.719      2.519
REMARK  Name = 
REMARK  5 active torsions:
REMARK  status: ('A' for Active; 'I' for Inactive)
REMARK    1  A    between atoms: C_1  and  C_2
REMARK    2  A    between atoms: C_2  and  C_3
REMARK    3  A    between atoms: C_9  and  N_10
REMARK    4  A    between atoms: N_14  and  C_15
REMARK    5  A    between atoms: C_18  and  C_19
REMARK                            x       y       z     vdW  Elec       q    Type
REMARK                         _______ _______ _______ _____ _____    ______ ____
ROOT
ATOM      1  C   UNL     1       5.207   5.801  15.934  0.00  0.00    +0.000 C 
ATOM      2  C   UNL     1       4.532   6.276  17.237  0.00  0.00    +0.000 C 
ATOM      3  C   UNL     1       5.636   6.879  18.135  0.00  0.00    +0.000 C 
ATOM      4  C   UNL     1       3.926   5.038  17.916  0.00  0.00    +0.000 C 
ATOM      5  C   UNL     1       3.094   5.391  19.118  0.00  0.00    +0.000 C 
ATOM      6  O   UNL     1       2.827   4.558  19.979  0.00  0.00    +0.000 OA
ATOM      7  C   UNL     1       2.539   6.762  19.225  0.00  0.00    +0.000 A 
ATOM      8  C   UNL     1       1.963   7.148  20.419  0.00  0.00    +0.000 A 
ATOM      9  C   UNL     1       1.407   8.426  20.505  0.00  0.00    +0.000 A 
ATOM     10  C   UNL     1       1.387   9.336  19.439  0.00  0.00    +0.000 A 
ATOM     11  N   UNL     1       0.720  10.566  19.591  0.00  0.00    +0.000 N 
ATOM     12  N   UNL     1       1.989   8.951  18.271  0.00  0.00    +0.000 NA
ATOM     13  C   UNL     1       2.594   7.692  18.195  0.00  0.00    +0.000 A 
ATOM     14  C   UNL     1       3.399   7.315  16.946  0.00  0.00    +0.000 C 
ATOM     15  H   UNL     1       0.865  11.043  20.472  0.00  0.00    +0.000 HD
ENDROOT
BRANCH  11  16
ATOM     16  C   UNL     1       0.130  11.399  18.530  0.00  0.00    +0.000 C 
ATOM     17  C   UNL     1      -1.393  11.097  18.391  0.00  0.00    +0.000 C 
ATOM     18  C   UNL     1      -2.305  11.833  19.335  0.00  0.00    +0.000 C 
ATOM     19  C   UNL     1      -1.963  12.972  19.963  0.00  0.00    +0.000 C 
ATOM     20  C   UNL     1      -0.639  13.644  19.702  0.00  0.00    +0.000 C 
ATOM     21  C   UNL     1       0.341  12.907  18.752  0.00  0.00    +0.000 C 
BRANCH  19  22
ATOM     22  C   UNL     1      -2.810  13.418  21.097  0.00  0.00    +0.000 A 
ATOM     23  C   UNL     1      -3.089  14.795  21.175  0.00  0.00    +0.000 A 
ATOM     24  C   UNL     1      -3.697  15.343  22.305  0.00  0.00    +0.000 A 
ATOM     25  C   UNL     1      -4.048  14.520  23.364  0.00  0.00    +0.000 A 
ATOM     26  F   UNL     1      -4.586  15.057  24.466  0.00  0.00    +0.000 F 
ATOM     27  C   UNL     1      -3.825  13.147  23.301  0.00  0.00    +0.000 A 
ATOM     28  C   UNL     1      -3.198  12.597  22.164  0.00  0.00    +0.000 A 
ENDBRANCH  19  22
ENDBRANCH  11  16
BRANCH   9  29
ATOM     29  N   UNL     1       0.799   8.762  21.764  0.00  0.00    +0.000 N 
ATOM     30  O   UNL     1       1.510   9.353  22.588  0.00  0.00    +0.000 OA
ATOM     31  O   UNL     1      -0.404   8.509  21.888  0.00  0.00    +0.000 OA
ENDBRANCH   9  29
TORSDOF 3
ENDMDL
MODEL 9
REMARK VINA RESULT:      -7.9      2.658      4.135
REMARK  Name = 
REMARK  5 active torsions:
REMARK  status: ('A' for Active; 'I' for Inactive)
REMARK    1  A    between atoms: C_1  and  C_2
REMARK    2  A    between atoms: C_2  and  C_3
REMARK    3  A    between atoms: C_9  and  N_10
REMARK    4  A    between atoms: N_14  and  C_15
REMARK    5  A    between atoms: C_18  and  C_19
REMARK                            x       y       z     vdW  Elec       q    Type
REMARK                         _______ _______ _______ _____ _____    ______ ____
ROOT
ATOM      1  C   UNL     1       2.615   2.482  21.372  0.00  0.00    +0.000 C 
ATOM      2  C   UNL     1       2.250   3.674  20.461  0.00  0.00    +0.000 C 
ATOM      3  C   UNL     1       0.813   3.436  19.945  0.00  0.00    +0.000 C 
ATOM      4  C   UNL     1       3.236   3.667  19.282  0.00  0.00    +0.000 C 
ATOM      5  C   UNL     1       3.090   4.880  18.405  0.00  0.00    +0.000 C 
ATOM      6  O   UNL     1       3.518   4.893  17.254  0.00  0.00    +0.000 OA
ATOM      7  C   UNL     1       2.469   6.101  18.972  0.00  0.00    +0.000 A 
ATOM      8  C   UNL     1       2.141   7.132  18.114  0.00  0.00    +0.000 A 
ATOM      9  C   UNL     1       1.592   8.296  18.656  0.00  0.00    +0.000 A 
ATOM     10  C   UNL     1       1.368   8.483  20.027  0.00  0.00    +0.000 A 
ATOM     11  N   UNL     1       0.898   9.727  20.489  0.00  0.00    +0.000 N 
ATOM     12  N   UNL     1       1.669   7.440  20.862  0.00  0.00    +0.000 NA
ATOM     13  C   UNL     1       2.171   6.252  20.320  0.00  0.00    +0.000 A 
ATOM     14  C   UNL     1       2.367   5.032  21.228  0.00  0.00    +0.000 C 
ATOM     15  H   UNL     1       0.163  10.154  19.941  0.00  0.00    +0.000 HD
ENDROOT
BRANCH  11  16
ATOM     16  C   UNL     1       1.088  10.312  21.826  0.00  0.00    +0.000 C 
ATOM     17  C   UNL     1       1.052  11.869  21.745  0.00  0.00    +0.000 C 
ATOM     18  C   UNL     1      -0.312  12.503  21.772  0.00  0.00    +0.000 C 
ATOM     19  C   UNL     1      -1.408  11.891  22.256  0.00  0.00    +0.000 C 
ATOM     20  C   UNL     1      -1.329  10.524  22.884  0.00  0.00    +0.000 C 
ATOM     21  C   UNL     1       0.055   9.824  22.857  0.00  0.00    +0.000 C 
BRANCH  19  22
ATOM     22  C   UNL     1      -2.730  12.485  21.935  0.00  0.00    +0.000 A 
ATOM     23  C   UNL     1      -3.635  12.627  23.003  0.00  0.00    +0.000 A 
ATOM     24  C   UNL     1      -4.966  12.979  22.776  0.00  0.00    +0.000 A 
ATOM     25  C   UNL     1      -5.406  13.207  21.481  0.00  0.00    +0.000 A 
ATOM     26  F   UNL     1      -6.695  13.495  21.263  0.00  0.00    +0.000 F 
ATOM     27  C   UNL     1      -4.525  13.116  20.405  0.00  0.00    +0.000 A 
ATOM     28  C   UNL     1      -3.184  12.748  20.635  0.00  0.00    +0.000 A 
ENDBRANCH  19  22
ENDBRANCH  11  16
BRANCH   9  29
ATOM     29  N   UNL     1       1.294   9.345  17.718  0.00  0.00    +0.000 N 
ATOM     30  O   UNL     1       0.102   9.527  17.443  0.00  0.00    +0.000 OA
ATOM     31  O   UNL     1       2.246  10.031  17.328  0.00  0.00    +0.000 OA
ENDBRANCH   9  29
TORSDOF 3
ENDMDL
