MODEL 1
REMARK VINA RESULT:      -7.6      0.000      0.000
REMARK  Name = 
REMARK  4 active torsions:
REMARK  status: ('A' for Active; 'I' for Inactive)
REMARK    1  A    between atoms: C_2  and  C_3
REMARK    2  A    between atoms: N_11  and  C_12
REMARK    3  A    between atoms: C_12  and  C_13
REMARK    4  A    between atoms: C_17  and  C_18
REMARK                            x       y       z     vdW  Elec       q    Type
REMARK                         _______ _______ _______ _____ _____    ______ ____
ROOT
ATOM      1  O   UNL     1       7.740   5.058  13.093  0.00  0.00    +0.000 OA
ATOM      2  C   UNL     1       6.711   4.481  13.450  0.00  0.00    +0.000 C 
ATOM      3  N   UNL     1       6.235   4.621  14.757  0.00  0.00    +0.000 N 
ATOM      4  C   UNL     1       5.102   3.889  15.336  0.00  0.00    +0.000 C 
ATOM      5  C   UNL     1       5.382   3.421  16.784  0.00  0.00    +0.000 C 
ATOM      6  N   UNL     1       5.927   4.458  17.689  0.00  0.00    +0.000 NA
ATOM      7  C   UNL     1       7.120   5.048  17.037  0.00  0.00    +0.000 C 
ATOM      8  C   UNL     1       6.860   5.615  15.632  0.00  0.00    +0.000 C 
ENDROOT
BRANCH   2   9
ATOM      9  C   UNL     1       6.001   3.612  12.527  0.00  0.00    +0.000 A 
ATOM     10  C   UNL     1       4.734   3.743  11.984  0.00  0.00    +0.000 A 
ATOM     11  C   UNL     1       4.522   2.614  11.158  0.00  0.00    +0.000 A 
ATOM     12  C   UNL     1       5.649   1.838  11.278  0.00  0.00    +0.000 A 
ATOM     13  O   UNL     1       6.544   2.420  12.116  0.00  0.00    +0.000 OA
ENDBRANCH   2   9
BRANCH   6  14
ATOM     14  C   UNL     1       4.883   5.445  18.010  0.00  0.00    +0.000 C 
BRANCH  14  15
ATOM     15  C   UNL     1       3.580   4.850  18.501  0.00  0.00    +0.000 A 
ATOM     16  C   UNL     1       2.461   4.818  17.655  0.00  0.00    +0.000 A 
ATOM     17  C   UNL     1       1.266   4.244  18.083  0.00  0.00    +0.000 A 
ATOM     18  C   UNL     1       1.175   3.688  19.358  0.00  0.00    +0.000 A 
ATOM     19  C   UNL     1       2.281   3.702  20.221  0.00  0.00    +0.000 A 
ATOM     20  C   UNL     1       3.479   4.293  19.783  0.00  0.00    +0.000 A 
BRANCH  19  21
ATOM     21  C   UNL     1       2.206   3.082  21.594  0.00  0.00    +0.000 C 
ATOM     22  F   UNL     1       1.022   2.457  21.846  0.00  0.00    +0.000 F 
ATOM     23  F   UNL     1       3.170   2.140  21.792  0.00  0.00    +0.000 F 
ATOM     24  F   UNL     1       2.364   3.995  22.593  0.00  0.00    +0.000 F 
ENDBRANCH  19  21
ENDBRANCH  14  15
ENDBRANCH   6  14
TORSDOF 4
ENDMDL
MODEL 2
REMARK VINA RESULT:      -7.3      1.070      1.311
REMARK  Name = 
REMARK  4 active torsions:
REMARK  status: ('A' for Active; 'I' for Inactive)
REMARK    1  A    between atoms: C_2  and  C_3
REMARK    2  A    between atoms: N_11  and  C_12
REMARK    3  A    between atoms: C_12  and  C_13
REMARK    4  A    between atoms: C_17  and  C_18
REMARK                            x       y       z     vdW  Elec       q    Type
REMARK                         _______ _______ _______ _____ _____    ______ ____
ROOT
ATOM      1  O   UNL     1       8.189   5.616  14.036  0.00  0.00    +0.000 OA
ATOM      2  C   UNL     1       7.155   5.023  14.348  0.00  0.00    +0.000 C 
ATOM      3  N   UNL     1       6.661   5.096  15.655  0.00  0.00    +0.000 N 
ATOM      4  C   UNL     1       5.520   4.336  16.180  0.00  0.00    +0.000 C 
ATOM      5  C   UNL     1       5.780   3.795  17.605  0.00  0.00    +0.000 C 
ATOM      6  N   UNL     1       6.312   4.784  18.569  0.00  0.00    +0.000 NA
ATOM      7  C   UNL     1       7.513   5.406  17.965  0.00  0.00    +0.000 C 
ATOM      8  C   UNL     1       7.273   6.044  16.587  0.00  0.00    +0.000 C 
ENDROOT
BRANCH   2   9
ATOM      9  C   UNL     1       6.458   4.202  13.373  0.00  0.00    +0.000 A 
ATOM     10  C   UNL     1       6.953   3.513  12.278  0.00  0.00    +0.000 A 
ATOM     11  C   UNL     1       5.849   2.886  11.654  0.00  0.00    +0.000 A 
ATOM     12  C   UNL     1       4.741   3.262  12.372  0.00  0.00    +0.000 A 
ATOM     13  O   UNL     1       5.092   4.072  13.404  0.00  0.00    +0.000 OA
ENDBRANCH   2   9
BRANCH   6  14
ATOM     14  C   UNL     1       5.263   5.755  18.926  0.00  0.00    +0.000 C 
BRANCH  14  15
ATOM     15  C   UNL     1       3.862   5.182  18.976  0.00  0.00    +0.000 A 
ATOM     16  C   UNL     1       2.901   5.595  18.042  0.00  0.00    +0.000 A 
ATOM     17  C   UNL     1       1.618   5.052  18.057  0.00  0.00    +0.000 A 
ATOM     18  C   UNL     1       1.281   4.083  19.001  0.00  0.00    +0.000 A 
ATOM     19  C   UNL     1       2.226   3.649  19.943  0.00  0.00    +0.000 A 
ATOM     20  C   UNL     1       3.514   4.211  19.925  0.00  0.00    +0.000 A 
BRANCH  19  21
ATOM     21  C   UNL     1       1.885   2.583  20.955  0.00  0.00    +0.000 C 
ATOM     22  F   UNL     1       1.651   1.360  20.400  0.00  0.00    +0.000 F 
ATOM     23  F   UNL     1       2.881   2.392  21.864  0.00  0.00    +0.000 F 
ATOM     24  F   UNL     1       0.770   2.882  21.678  0.00  0.00    +0.000 F 
ENDBRANCH  19  21
ENDBRANCH  14  15
ENDBRANCH   6  14
TORSDOF 4
ENDMDL
MODEL 3
REMARK VINA RESULT:      -7.3      1.131      1.434
REMARK  Name = 
REMARK  4 active torsions:
REMARK  status: ('A' for Active; 'I' for Inactive)
REMARK    1  A    between atoms: C_2  and  C_3
REMARK    2  A    between atoms: N_11  and  C_12
REMARK    3  A    between atoms: C_12  and  C_13
REMARK    4  A    between atoms: C_17  and  C_18
REMARK                            x       y       z     vdW  Elec       q    Type
REMARK                         _______ _______ _______ _____ _____    ______ ____
ROOT
ATOM      1  O   UNL     1       7.830   4.751  13.274  0.00  0.00    +0.000 OA
ATOM      2  C   UNL     1       6.703   4.361  13.584  0.00  0.00    +0.000 C 
ATOM      3  N   UNL     1       6.175   4.645  14.847  0.00  0.00    +0.000 N 
ATOM      4  C   UNL     1       4.907   4.130  15.379  0.00  0.00    +0.000 C 
ATOM      5  C   UNL     1       5.020   3.705  16.862  0.00  0.00    +0.000 C 
ATOM      6  N   UNL     1       5.666   4.694  17.755  0.00  0.00    +0.000 NA
ATOM      7  C   UNL     1       6.974   5.056  17.162  0.00  0.00    +0.000 C 
ATOM      8  C   UNL     1       6.894   5.578  15.717  0.00  0.00    +0.000 C 
ENDROOT
BRANCH   2   9
ATOM      9  C   UNL     1       5.922   3.562  12.654  0.00  0.00    +0.000 A 
ATOM     10  C   UNL     1       6.254   2.389  11.998  0.00  0.00    +0.000 A 
ATOM     11  C   UNL     1       5.141   2.035  11.199  0.00  0.00    +0.000 A 
ATOM     12  C   UNL     1       4.213   3.032  11.378  0.00  0.00    +0.000 A 
ATOM     13  O   UNL     1       4.678   3.970  12.241  0.00  0.00    +0.000 OA
ENDBRANCH   2   9
BRANCH   6  14
ATOM     14  C   UNL     1       4.772   5.848  17.958  0.00  0.00    +0.000 C 
BRANCH  14  15
ATOM     15  C   UNL     1       3.666   5.620  18.966  0.00  0.00    +0.000 A 
ATOM     16  C   UNL     1       2.858   6.691  19.375  0.00  0.00    +0.000 A 
ATOM     17  C   UNL     1       1.816   6.490  20.278  0.00  0.00    +0.000 A 
ATOM     18  C   UNL     1       1.563   5.213  20.778  0.00  0.00    +0.000 A 
ATOM     19  C   UNL     1       2.353   4.124  20.380  0.00  0.00    +0.000 A 
ATOM     20  C   UNL     1       3.408   4.341  19.477  0.00  0.00    +0.000 A 
BRANCH  19  21
ATOM     21  C   UNL     1       2.076   2.732  20.893  0.00  0.00    +0.000 C 
ATOM     22  F   UNL     1       1.085   2.683  21.827  0.00  0.00    +0.000 F 
ATOM     23  F   UNL     1       1.691   1.880  19.901  0.00  0.00    +0.000 F 
ATOM     24  F   UNL     1       3.165   2.160  21.476  0.00  0.00    +0.000 F 
ENDBRANCH  19  21
ENDBRANCH  14  15
ENDBRANCH   6  14
TORSDOF 4
ENDMDL
MODEL 4
REMARK VINA RESULT:      -7.3      1.334      1.638
REMARK  Name = 
REMARK  4 active torsions:
REMARK  status: ('A' for Active; 'I' for Inactive)
REMARK    1  A    between atoms: C_2  and  C_3
REMARK    2  A    between atoms: N_11  and  C_12
REMARK    3  A    between atoms: C_12  and  C_13
REMARK    4  A    between atoms: C_17  and  C_18
REMARK                            x       y       z     vdW  Elec       q    Type
REMARK                         _______ _______ _______ _____ _____    ______ ____
ROOT
ATOM      1  O   UNL     1       8.163   5.236  13.903  0.00  0.00    +0.000 OA
ATOM      2  C   UNL     1       7.030   4.791  14.093  0.00  0.00    +0.000 C 
ATOM      3  N   UNL     1       6.368   5.028  15.303  0.00  0.00    +0.000 N 
ATOM      4  C   UNL     1       5.079   4.448  15.698  0.00  0.00    +0.000 C 
ATOM      5  C   UNL     1       5.064   3.999  17.178  0.00  0.00    +0.000 C 
ATOM      6  N   UNL     1       5.573   4.997  18.146  0.00  0.00    +0.000 NA
ATOM      7  C   UNL     1       6.916   5.427  17.691  0.00  0.00    +0.000 C 
ATOM      8  C   UNL     1       6.955   5.973  16.254  0.00  0.00    +0.000 C 
ENDROOT
BRANCH   2   9
ATOM      9  C   UNL     1       6.381   3.978  13.079  0.00  0.00    +0.000 A 
ATOM     10  C   UNL     1       5.048   3.917  12.712  0.00  0.00    +0.000 A 
ATOM     11  C   UNL     1       4.949   2.952  11.682  0.00  0.00    +0.000 A 
ATOM     12  C   UNL     1       6.215   2.449  11.509  0.00  0.00    +0.000 A 
ATOM     13  O   UNL     1       7.088   3.047  12.359  0.00  0.00    +0.000 OA
ENDBRANCH   2   9
BRANCH   6  14
ATOM     14  C   UNL     1       4.613   6.107  18.277  0.00  0.00    +0.000 C 
BRANCH  14  15
ATOM     15  C   UNL     1       3.412   5.803  19.147  0.00  0.00    +0.000 A 
ATOM     16  C   UNL     1       2.710   6.849  19.763  0.00  0.00    +0.000 A 
ATOM     17  C   UNL     1       1.583   6.586  20.540  0.00  0.00    +0.000 A 
ATOM     18  C   UNL     1       1.139   5.275  20.704  0.00  0.00    +0.000 A 
ATOM     19  C   UNL     1       1.821   4.211  20.093  0.00  0.00    +0.000 A 
ATOM     20  C   UNL     1       2.962   4.487  19.321  0.00  0.00    +0.000 A 
BRANCH  19  21
ATOM     21  C   UNL     1       1.338   2.789  20.241  0.00  0.00    +0.000 C 
ATOM     22  F   UNL     1       0.986   2.463  21.517  0.00  0.00    +0.000 F 
ATOM     23  F   UNL     1       0.240   2.531  19.478  0.00  0.00    +0.000 F 
ATOM     24  F   UNL     1       2.276   1.874  19.870  0.00  0.00    +0.000 F 
ENDBRANCH  19  21
ENDBRANCH  14  15
ENDBRANCH   6  14
TORSDOF 4
ENDMDL
MODEL 5
REMARK VINA RESULT:      -7.3      5.317      8.386
REMARK  Name = 
REMARK  4 active torsions:
REMARK  status: ('A' for Active; 'I' for Inactive)
REMARK    1  A    between atoms: C_2  and  C_3
REMARK    2  A    between atoms: N_11  and  C_12
REMARK    3  A    between atoms: C_12  and  C_13
REMARK    4  A    between atoms: C_17  and  C_18
REMARK                            x       y       z     vdW  Elec       q    Type
REMARK                         _______ _______ _______ _____ _____    ______ ____
ROOT
ATOM      1  O   UNL     1       1.605   9.288  19.018  0.00  0.00    +0.000 OA
ATOM      2  C   UNL     1       1.558   8.461  19.930  0.00  0.00    +0.000 C 
ATOM      3  N   UNL     1       2.127   7.194  19.769  0.00  0.00    +0.000 N 
ATOM      4  C   UNL     1       2.025   6.084  20.725  0.00  0.00    +0.000 C 
ATOM      5  C   UNL     1       1.778   4.727  20.026  0.00  0.00    +0.000 C 
ATOM      6  N   UNL     1       2.676   4.431  18.887  0.00  0.00    +0.000 NA
ATOM      7  C   UNL     1       2.612   5.576  17.949  0.00  0.00    +0.000 C 
ATOM      8  C   UNL     1       2.948   6.935  18.585  0.00  0.00    +0.000 C 
ENDROOT
BRANCH   2   9
ATOM      9  C   UNL     1       0.873   8.777  21.172  0.00  0.00    +0.000 A 
ATOM     10  C   UNL     1      -0.473   8.699  21.486  0.00  0.00    +0.000 A 
ATOM     11  C   UNL     1      -0.609   9.135  22.825  0.00  0.00    +0.000 A 
ATOM     12  C   UNL     1       0.650   9.497  23.237  0.00  0.00    +0.000 A 
ATOM     13  O   UNL     1       1.553   9.302  22.242  0.00  0.00    +0.000 OA
ENDBRANCH   2   9
BRANCH   6  14
ATOM     14  C   UNL     1       4.035   4.145  19.377  0.00  0.00    +0.000 C 
BRANCH  14  15
ATOM     15  C   UNL     1       5.148   4.646  18.481  0.00  0.00    +0.000 A 
ATOM     16  C   UNL     1       6.230   5.348  19.032  0.00  0.00    +0.000 A 
ATOM     17  C   UNL     1       7.277   5.787  18.223  0.00  0.00    +0.000 A 
ATOM     18  C   UNL     1       7.259   5.523  16.855  0.00  0.00    +0.000 A 
ATOM     19  C   UNL     1       6.191   4.817  16.280  0.00  0.00    +0.000 A 
ATOM     20  C   UNL     1       5.136   4.389  17.103  0.00  0.00    +0.000 A 
BRANCH  19  21
ATOM     21  C   UNL     1       6.170   4.502  14.804  0.00  0.00    +0.000 C 
ATOM     22  F   UNL     1       7.164   5.115  14.102  0.00  0.00    +0.000 F 
ATOM     23  F   UNL     1       6.310   3.170  14.556  0.00  0.00    +0.000 F 
ATOM     24  F   UNL     1       5.006   4.874  14.204  0.00  0.00    +0.000 F 
ENDBRANCH  19  21
ENDBRANCH  14  15
ENDBRANCH   6  14
TORSDOF 4
ENDMDL
MODEL 6
REMARK VINA RESULT:      -7.2      5.317      8.359
REMARK  Name = 
REMARK  4 active torsions:
REMARK  status: ('A' for Active; 'I' for Inactive)
REMARK    1  A    between atoms: C_2  and  C_3
REMARK    2  A    between atoms: N_11  and  C_12
REMARK    3  A    between atoms: C_12  and  C_13
REMARK    4  A    between atoms: C_17  and  C_18
REMARK                            x       y       z     vdW  Elec       q    Type
REMARK                         _______ _______ _______ _____ _____    ______ ____
ROOT
ATOM      1  O   UNL     1       1.699   9.269  19.001  0.00  0.00    +0.000 OA
ATOM      2  C   UNL     1       1.608   8.445  19.913  0.00  0.00    +0.000 C 
ATOM      3  N   UNL     1       2.142   7.160  19.765  0.00  0.00    +0.000 N 
ATOM      4  C   UNL     1       1.986   6.056  20.720  0.00  0.00    +0.000 C 
ATOM      5  C   UNL     1       1.713   4.706  20.017  0.00  0.00    +0.000 C 
ATOM      6  N   UNL     1       2.625   4.381  18.897  0.00  0.00    +0.000 NA
ATOM      7  C   UNL     1       2.616   5.526  17.958  0.00  0.00    +0.000 C 
ATOM      8  C   UNL     1       2.980   6.876  18.599  0.00  0.00    +0.000 C 
ENDROOT
BRANCH   2   9
ATOM      9  C   UNL     1       0.907   8.783  21.140  0.00  0.00    +0.000 A 
ATOM     10  C   UNL     1       1.405   9.241  22.348  0.00  0.00    +0.000 A 
ATOM     11  C   UNL     1       0.299   9.400  23.215  0.00  0.00    +0.000 A 
ATOM     12  C   UNL     1      -0.803   8.989  22.506  0.00  0.00    +0.000 A 
ATOM     13  O   UNL     1      -0.448   8.596  21.256  0.00  0.00    +0.000 OA
ENDBRANCH   2   9
BRANCH   6  14
ATOM     14  C   UNL     1       3.965   4.055  19.416  0.00  0.00    +0.000 C 
BRANCH  14  15
ATOM     15  C   UNL     1       5.112   4.550  18.560  0.00  0.00    +0.000 A 
ATOM     16  C   UNL     1       6.181   5.239  19.151  0.00  0.00    +0.000 A 
ATOM     17  C   UNL     1       7.258   5.672  18.379  0.00  0.00    +0.000 A 
ATOM     18  C   UNL     1       7.284   5.415  17.010  0.00  0.00    +0.000 A 
ATOM     19  C   UNL     1       6.229   4.723  16.396  0.00  0.00    +0.000 A 
ATOM     20  C   UNL     1       5.143   4.300  17.181  0.00  0.00    +0.000 A 
BRANCH  19  21
ATOM     21  C   UNL     1       6.253   4.416  14.919  0.00  0.00    +0.000 C 
ATOM     22  F   UNL     1       6.286   3.082  14.640  0.00  0.00    +0.000 F 
ATOM     23  F   UNL     1       5.158   4.901  14.269  0.00  0.00    +0.000 F 
ATOM     24  F   UNL     1       7.333   4.954  14.287  0.00  0.00    +0.000 F 
ENDBRANCH  19  21
ENDBRANCH  14  15
ENDBRANCH   6  14
TORSDOF 4
ENDMDL
MODEL 7
REMARK VINA RESULT:      -7.0      5.350      8.323
REMARK  Name = 
REMARK  4 active torsions:
REMARK  status: ('A' for Active; 'I' for Inactive)
REMARK    1  A    between atoms: C_2  and  C_3
REMARK    2  A    between atoms: N_11  and  C_12
REMARK    3  A    between atoms: C_12  and  C_13
REMARK    4  A    between atoms: C_17  and  C_18
REMARK                            x       y       z     vdW  Elec       q    Type
REMARK                         _______ _______ _______ _____ _____    ______ ____
ROOT
ATOM      1  O   UNL     1       1.386   9.277  18.922  0.00  0.00    +0.000 OA
ATOM      2  C   UNL     1       1.427   8.480  19.860  0.00  0.00    +0.000 C 
ATOM      3  N   UNL     1       1.999   7.214  19.691  0.00  0.00    +0.000 N 
ATOM      4  C   UNL     1       1.992   6.135  20.687  0.00  0.00    +0.000 C 
ATOM      5  C   UNL     1       1.707   4.753  20.054  0.00  0.00    +0.000 C 
ATOM      6  N   UNL     1       2.511   4.430  18.853  0.00  0.00    +0.000 NA
ATOM      7  C   UNL     1       2.353   5.544  17.889  0.00  0.00    +0.000 C 
ATOM      8  C   UNL     1       2.722   6.927  18.452  0.00  0.00    +0.000 C 
ENDROOT
BRANCH   2   9
ATOM      9  C   UNL     1       0.844   8.827  21.145  0.00  0.00    +0.000 A 
ATOM     10  C   UNL     1       1.454   9.284  22.301  0.00  0.00    +0.000 A 
ATOM     11  C   UNL     1       0.434   9.455  23.265  0.00  0.00    +0.000 A 
ATOM     12  C   UNL     1      -0.732   9.052  22.660  0.00  0.00    +0.000 A 
ATOM     13  O   UNL     1      -0.496   8.654  21.384  0.00  0.00    +0.000 OA
ENDBRANCH   2   9
BRANCH   6  14
ATOM     14  C   UNL     1       3.910   4.176  19.236  0.00  0.00    +0.000 C 
BRANCH  14  15
ATOM     15  C   UNL     1       4.933   4.572  18.192  0.00  0.00    +0.000 A 
ATOM     16  C   UNL     1       5.029   3.850  16.994  0.00  0.00    +0.000 A 
ATOM     17  C   UNL     1       5.944   4.224  16.012  0.00  0.00    +0.000 A 
ATOM     18  C   UNL     1       6.769   5.329  16.211  0.00  0.00    +0.000 A 
ATOM     19  C   UNL     1       6.689   6.072  17.398  0.00  0.00    +0.000 A 
ATOM     20  C   UNL     1       5.770   5.680  18.387  0.00  0.00    +0.000 A 
BRANCH  19  21
ATOM     21  C   UNL     1       7.558   7.286  17.618  0.00  0.00    +0.000 C 
ATOM     22  F   UNL     1       8.399   7.167  18.684  0.00  0.00    +0.000 F 
ATOM     23  F   UNL     1       8.356   7.555  16.547  0.00  0.00    +0.000 F 
ATOM     24  F   UNL     1       6.834   8.418  17.840  0.00  0.00    +0.000 F 
ENDBRANCH  19  21
ENDBRANCH  14  15
ENDBRANCH   6  14
TORSDOF 4
ENDMDL
MODEL 8
REMARK VINA RESULT:      -6.9      5.383      8.399
REMARK  Name = 
REMARK  4 active torsions:
REMARK  status: ('A' for Active; 'I' for Inactive)
REMARK    1  A    between atoms: C_2  and  C_3
REMARK    2  A    between atoms: N_11  and  C_12
REMARK    3  A    between atoms: C_12  and  C_13
REMARK    4  A    between atoms: C_17  and  C_18
REMARK                            x       y       z     vdW  Elec       q    Type
REMARK                         _______ _______ _______ _____ _____    ______ ____
ROOT
ATOM      1  O   UNL     1       1.336   9.390  19.023  0.00  0.00    +0.000 OA
ATOM      2  C   UNL     1       1.373   8.578  19.948  0.00  0.00    +0.000 C 
ATOM      3  N   UNL     1       1.959   7.321  19.767  0.00  0.00    +0.000 N 
ATOM      4  C   UNL     1       1.950   6.226  20.745  0.00  0.00    +0.000 C 
ATOM      5  C   UNL     1       1.687   4.852  20.086  0.00  0.00    +0.000 C 
ATOM      6  N   UNL     1       2.510   4.557  18.890  0.00  0.00    +0.000 NA
ATOM      7  C   UNL     1       2.354   5.684  17.943  0.00  0.00    +0.000 C 
ATOM      8  C   UNL     1       2.701   7.061  18.533  0.00  0.00    +0.000 C 
ENDROOT
BRANCH   2   9
ATOM      9  C   UNL     1       0.769   8.899  21.230  0.00  0.00    +0.000 A 
ATOM     10  C   UNL     1      -0.558   9.133  21.551  0.00  0.00    +0.000 A 
ATOM     11  C   UNL     1      -0.602   9.415  22.936  0.00  0.00    +0.000 A 
ATOM     12  C   UNL     1       0.699   9.382  23.374  0.00  0.00    +0.000 A 
ATOM     13  O   UNL     1       1.540   9.089  22.349  0.00  0.00    +0.000 OA
ENDBRANCH   2   9
BRANCH   6  14
ATOM     14  C   UNL     1       3.906   4.310  19.289  0.00  0.00    +0.000 C 
BRANCH  14  15
ATOM     15  C   UNL     1       4.935   4.663  18.235  0.00  0.00    +0.000 A 
ATOM     16  C   UNL     1       5.030   3.899  17.063  0.00  0.00    +0.000 A 
ATOM     17  C   UNL     1       5.951   4.232  16.072  0.00  0.00    +0.000 A 
ATOM     18  C   UNL     1       6.783   5.338  16.236  0.00  0.00    +0.000 A 
ATOM     19  C   UNL     1       6.704   6.122  17.397  0.00  0.00    +0.000 A 
ATOM     20  C   UNL     1       5.779   5.771  18.395  0.00  0.00    +0.000 A 
BRANCH  19  21
ATOM     21  C   UNL     1       7.581   7.337  17.578  0.00  0.00    +0.000 C 
ATOM     22  F   UNL     1       8.411   7.572  16.522  0.00  0.00    +0.000 F 
ATOM     23  F   UNL     1       6.858   8.480  17.740  0.00  0.00    +0.000 F 
ATOM     24  F   UNL     1       8.387   7.245  18.671  0.00  0.00    +0.000 F 
ENDBRANCH  19  21
ENDBRANCH  14  15
ENDBRANCH   6  14
TORSDOF 4
ENDMDL
MODEL 9
REMARK VINA RESULT:      -6.8      1.332      1.741
REMARK  Name = 
REMARK  4 active torsions:
REMARK  status: ('A' for Active; 'I' for Inactive)
REMARK    1  A    between atoms: C_2  and  C_3
REMARK    2  A    between atoms: N_11  and  C_12
REMARK    3  A    between atoms: C_12  and  C_13
REMARK    4  A    between atoms: C_17  and  C_18
REMARK                            x       y       z     vdW  Elec       q    Type
REMARK                         _______ _______ _______ _____ _____    ______ ____
ROOT
ATOM      1  O   UNL     1       8.158   5.522  14.179  0.00  0.00    +0.000 OA
ATOM      2  C   UNL     1       7.102   4.971  14.492  0.00  0.00    +0.000 C 
ATOM      3  N   UNL     1       6.649   5.004  15.815  0.00  0.00    +0.000 N 
ATOM      4  C   UNL     1       5.482   4.281  16.336  0.00  0.00    +0.000 C 
ATOM      5  C   UNL     1       5.750   3.653  17.723  0.00  0.00    +0.000 C 
ATOM      6  N   UNL     1       6.364   4.560  18.720  0.00  0.00    +0.000 NA
ATOM      7  C   UNL     1       7.581   5.146  18.111  0.00  0.00    +0.000 C 
ATOM      8  C   UNL     1       7.339   5.867  16.775  0.00  0.00    +0.000 C 
ENDROOT
BRANCH   2   9
ATOM      9  C   UNL     1       6.333   4.242  13.499  0.00  0.00    +0.000 A 
ATOM     10  C   UNL     1       4.961   4.136  13.342  0.00  0.00    +0.000 A 
ATOM     11  C   UNL     1       4.737   3.295  12.227  0.00  0.00    +0.000 A 
ATOM     12  C   UNL     1       5.979   2.899  11.794  0.00  0.00    +0.000 A 
ATOM     13  O   UNL     1       6.952   3.449  12.565  0.00  0.00    +0.000 OA
ENDBRANCH   2   9
BRANCH   6  14
ATOM     14  C   UNL     1       5.381   5.567  19.156  0.00  0.00    +0.000 C 
BRANCH  14  15
ATOM     15  C   UNL     1       3.941   5.226  18.836  0.00  0.00    +0.000 A 
ATOM     16  C   UNL     1       3.173   6.094  18.046  0.00  0.00    +0.000 A 
ATOM     17  C   UNL     1       1.857   5.776  17.717  0.00  0.00    +0.000 A 
ATOM     18  C   UNL     1       1.294   4.583  18.168  0.00  0.00    +0.000 A 
ATOM     19  C   UNL     1       2.043   3.695  18.955  0.00  0.00    +0.000 A 
ATOM     20  C   UNL     1       3.366   4.030  19.289  0.00  0.00    +0.000 A 
BRANCH  19  21
ATOM     21  C   UNL     1       1.456   2.389  19.429  0.00  0.00    +0.000 C 
ATOM     22  F   UNL     1       2.228   1.305  19.133  0.00  0.00    +0.000 F 
ATOM     23  F   UNL     1       1.279   2.358  20.779  0.00  0.00    +0.000 F 
ATOM     24  F   UNL     1       0.233   2.133  18.885  0.00  0.00    +0.000 F 
ENDBRANCH  19  21
ENDBRANCH  14  15
ENDBRANCH   6  14
TORSDOF 4
ENDMDL
