MODEL 1
REMARK VINA RESULT:      -8.0      0.000      0.000
REMARK  Name = 
REMARK  10 active torsions:
REMARK  status: ('A' for Active; 'I' for Inactive)
REMARK    1  A    between atoms: C_1  and  O_2
REMARK    2  A    between atoms: O_2  and  C_3
REMARK    3  A    between atoms: C_8  and  N_9
REMARK    4  A    between atoms: C_10  and  C_12
REMARK    5  A    between atoms: C_12  and  C_13
REMARK    6  A    between atoms: C_12  and  O_14
REMARK    7  A    between atoms: O_14  and  C_15
REMARK    8  A    between atoms: C_15  and  C_17
REMARK    9  A    between atoms: C_17  and  C_18
REMARK   10  A    between atoms: C_18  and  C_19
REMARK                            x       y       z     vdW  Elec       q    Type
REMARK                         _______ _______ _______ _____ _____    ______ ____
ROOT
ATOM      1  C   UNL     1       6.748   5.762  16.942  0.00  0.00    +0.000 C 
ATOM      2  C   UNL     1       6.210   5.531  15.526  0.00  0.00    +0.000 C 
ENDROOT
BRANCH   1   4
ATOM      3  N   UNL     1       4.455   5.480  17.801  0.00  0.00    +0.000 N 
ATOM      4  C   UNL     1       5.797   5.161  17.990  0.00  0.00    +0.000 C 
ATOM      5  O   UNL     1       6.240   4.481  18.915  0.00  0.00    +0.000 OA
ATOM      6  H   UNL     1       4.163   5.838  16.898  0.00  0.00    +0.000 HD
BRANCH   3  12
ATOM      7  C   UNL     1       2.846   3.872  18.731  0.00  0.00    +0.000 A 
ATOM      8  C   UNL     1       1.856   3.565  19.681  0.00  0.00    +0.000 A 
ATOM      9  C   UNL     1       1.365   4.542  20.547  0.00  0.00    +0.000 A 
ATOM     10  C   UNL     1       1.850   5.837  20.465  0.00  0.00    +0.000 A 
ATOM     11  C   UNL     1       2.856   6.146  19.549  0.00  0.00    +0.000 A 
ATOM     12  C   UNL     1       3.395   5.170  18.702  0.00  0.00    +0.000 A 
BRANCH   7  14
ATOM     13  C   UNL     1       3.514   1.625  18.381  0.00  0.00    +0.000 C 
ATOM     14  O   UNL     1       3.345   2.941  17.845  0.00  0.00    +0.000 OA
ENDBRANCH   7  14
ENDBRANCH   3  12
ENDBRANCH   1   4
BRANCH   1  15
ATOM     15  O   UNL     1       6.855   7.178  17.146  0.00  0.00    +0.000 OA
BRANCH  15  16
ATOM     16  C   UNL     1       7.806   7.598  18.018  0.00  0.00    +0.000 C 
ATOM     17  O   UNL     1       8.381   6.891  18.831  0.00  0.00    +0.000 OA
BRANCH  16  18
ATOM     18  C   UNL     1       8.058   9.077  17.851  0.00  0.00    +0.000 C 
BRANCH  18  19
ATOM     19  C   UNL     1       9.083   9.607  18.858  0.00  0.00    +0.000 C 
BRANCH  19  20
ATOM     20  C   UNL     1       9.033  11.136  19.083  0.00  0.00    +0.000 C 
ATOM     21  C   UNL     1       9.820  11.600  20.322  0.00  0.00    +0.000 C 
ATOM     22  C   UNL     1      11.332  11.602  20.108  0.00  0.00    +0.000 C 
ATOM     23  C   UNL     1      11.718  12.442  18.898  0.00  0.00    +0.000 C 
ATOM     24  C   UNL     1      11.006  11.960  17.640  0.00  0.00    +0.000 C 
ATOM     25  C   UNL     1       9.490  11.905  17.827  0.00  0.00    +0.000 C 
ENDBRANCH  19  20
ENDBRANCH  18  19
ENDBRANCH  16  18
ENDBRANCH  15  16
ENDBRANCH   1  15
TORSDOF 8
ENDMDL
MODEL 2
REMARK VINA RESULT:      -7.9      1.066      1.953
REMARK  Name = 
REMARK  10 active torsions:
REMARK  status: ('A' for Active; 'I' for Inactive)
REMARK    1  A    between atoms: C_1  and  O_2
REMARK    2  A    between atoms: O_2  and  C_3
REMARK    3  A    between atoms: C_8  and  N_9
REMARK    4  A    between atoms: C_10  and  C_12
REMARK    5  A    between atoms: C_12  and  C_13
REMARK    6  A    between atoms: C_12  and  O_14
REMARK    7  A    between atoms: O_14  and  C_15
REMARK    8  A    between atoms: C_15  and  C_17
REMARK    9  A    between atoms: C_17  and  C_18
REMARK   10  A    between atoms: C_18  and  C_19
REMARK                            x       y       z     vdW  Elec       q    Type
REMARK                         _______ _______ _______ _____ _____    ______ ____
ROOT
ATOM      1  C   UNL     1       6.520   5.684  17.036  0.00  0.00    +0.000 C 
ATOM      2  C   UNL     1       5.942   5.549  15.623  0.00  0.00    +0.000 C 
ENDROOT
BRANCH   1   4
ATOM      3  N   UNL     1       4.259   5.120  17.842  0.00  0.00    +0.000 N 
ATOM      4  C   UNL     1       5.626   4.965  18.060  0.00  0.00    +0.000 C 
ATOM      5  O   UNL     1       6.128   4.339  18.993  0.00  0.00    +0.000 OA
ATOM      6  H   UNL     1       3.947   5.447  16.933  0.00  0.00    +0.000 HD
BRANCH   3  12
ATOM      7  C   UNL     1       2.588   5.595  19.579  0.00  0.00    +0.000 A 
ATOM      8  C   UNL     1       1.517   5.157  20.378  0.00  0.00    +0.000 A 
ATOM      9  C   UNL     1       1.123   3.819  20.378  0.00  0.00    +0.000 A 
ATOM     10  C   UNL     1       1.800   2.904  19.589  0.00  0.00    +0.000 A 
ATOM     11  C   UNL     1       2.843   3.333  18.767  0.00  0.00    +0.000 A 
ATOM     12  C   UNL     1       3.225   4.679  18.717  0.00  0.00    +0.000 A 
BRANCH   7  14
ATOM     13  C   UNL     1       2.212   7.801  18.797  0.00  0.00    +0.000 C 
ATOM     14  O   UNL     1       3.021   6.904  19.564  0.00  0.00    +0.000 OA
ENDBRANCH   7  14
ENDBRANCH   3  12
ENDBRANCH   1   4
BRANCH   1  15
ATOM     15  O   UNL     1       6.586   7.081  17.353  0.00  0.00    +0.000 OA
BRANCH  15  16
ATOM     16  C   UNL     1       7.680   7.500  18.038  0.00  0.00    +0.000 C 
ATOM     17  O   UNL     1       8.328   6.819  18.818  0.00  0.00    +0.000 OA
BRANCH  16  18
ATOM     18  C   UNL     1       7.988   8.941  17.710  0.00  0.00    +0.000 C 
BRANCH  18  19
ATOM     19  C   UNL     1       8.961   9.568  18.714  0.00  0.00    +0.000 C 
BRANCH  19  20
ATOM     20  C   UNL     1       9.143  11.096  18.565  0.00  0.00    +0.000 C 
ATOM     21  C   UNL     1       9.101  11.852  19.905  0.00  0.00    +0.000 C 
ATOM     22  C   UNL     1      10.382  11.699  20.722  0.00  0.00    +0.000 C 
ATOM     23  C   UNL     1      11.605  12.125  19.919  0.00  0.00    +0.000 C 
ATOM     24  C   UNL     1      11.710  11.342  18.616  0.00  0.00    +0.000 C 
ATOM     25  C   UNL     1      10.431  11.436  17.787  0.00  0.00    +0.000 C 
ENDBRANCH  19  20
ENDBRANCH  18  19
ENDBRANCH  16  18
ENDBRANCH  15  16
ENDBRANCH   1  15
TORSDOF 8
ENDMDL
MODEL 3
REMARK VINA RESULT:      -7.6      3.483      7.049
REMARK  Name = 
REMARK  10 active torsions:
REMARK  status: ('A' for Active; 'I' for Inactive)
REMARK    1  A    between atoms: C_1  and  O_2
REMARK    2  A    between atoms: O_2  and  C_3
REMARK    3  A    between atoms: C_8  and  N_9
REMARK    4  A    between atoms: C_10  and  C_12
REMARK    5  A    between atoms: C_12  and  C_13
REMARK    6  A    between atoms: C_12  and  O_14
REMARK    7  A    between atoms: O_14  and  C_15
REMARK    8  A    between atoms: C_15  and  C_17
REMARK    9  A    between atoms: C_17  and  C_18
REMARK   10  A    between atoms: C_18  and  C_19
REMARK                            x       y       z     vdW  Elec       q    Type
REMARK                         _______ _______ _______ _____ _____    ______ ____
ROOT
ATOM      1  C   UNL     1       6.661   6.009  17.698  0.00  0.00    +0.000 C 
ATOM      2  C   UNL     1       7.790   6.294  18.693  0.00  0.00    +0.000 C 
ENDROOT
BRANCH   1   4
ATOM      3  N   UNL     1       4.372   5.107  17.853  0.00  0.00    +0.000 N 
ATOM      4  C   UNL     1       5.694   4.953  18.260  0.00  0.00    +0.000 C 
ATOM      5  O   UNL     1       6.103   4.080  19.026  0.00  0.00    +0.000 OA
ATOM      6  H   UNL     1       4.177   5.697  17.051  0.00  0.00    +0.000 HD
BRANCH   3  12
ATOM      7  C   UNL     1       2.518   4.822  19.440  0.00  0.00    +0.000 A 
ATOM      8  C   UNL     1       1.380   4.106  19.853  0.00  0.00    +0.000 A 
ATOM      9  C   UNL     1       1.020   2.910  19.233  0.00  0.00    +0.000 A 
ATOM     10  C   UNL     1       1.797   2.412  18.200  0.00  0.00    +0.000 A 
ATOM     11  C   UNL     1       2.909   3.130  17.759  0.00  0.00    +0.000 A 
ATOM     12  C   UNL     1       3.263   4.355  18.338  0.00  0.00    +0.000 A 
BRANCH   7  14
ATOM     13  C   UNL     1       2.269   7.176  19.555  0.00  0.00    +0.000 C 
ATOM     14  O   UNL     1       2.920   5.996  20.039  0.00  0.00    +0.000 OA
ENDBRANCH   7  14
ENDBRANCH   3  12
ENDBRANCH   1   4
BRANCH   1  15
ATOM     15  O   UNL     1       7.255   5.519  16.487  0.00  0.00    +0.000 OA
BRANCH  15  16
ATOM     16  C   UNL     1       6.447   5.442  15.399  0.00  0.00    +0.000 C 
ATOM     17  O   UNL     1       5.554   6.230  15.126  0.00  0.00    +0.000 OA
BRANCH  16  18
ATOM     18  C   UNL     1       6.799   4.235  14.565  0.00  0.00    +0.000 C 
BRANCH  18  19
ATOM     19  C   UNL     1       5.592   3.692  13.793  0.00  0.00    +0.000 C 
BRANCH  19  20
ATOM     20  C   UNL     1       5.650   3.923  12.265  0.00  0.00    +0.000 C 
ATOM     21  C   UNL     1       7.082   3.959  11.704  0.00  0.00    +0.000 C 
ATOM     22  C   UNL     1       7.723   2.576  11.600  0.00  0.00    +0.000 C 
ATOM     23  C   UNL     1       6.862   1.629  10.774  0.00  0.00    +0.000 C 
ATOM     24  C   UNL     1       5.454   1.519  11.349  0.00  0.00    +0.000 C 
ATOM     25  C   UNL     1       4.794   2.887  11.507  0.00  0.00    +0.000 C 
ENDBRANCH  19  20
ENDBRANCH  18  19
ENDBRANCH  16  18
ENDBRANCH  15  16
ENDBRANCH   1  15
TORSDOF 8
ENDMDL
MODEL 4
REMARK VINA RESULT:      -7.6      1.365      2.358
REMARK  Name = 
REMARK  10 active torsions:
REMARK  status: ('A' for Active; 'I' for Inactive)
REMARK    1  A    between atoms: C_1  and  O_2
REMARK    2  A    between atoms: O_2  and  C_3
REMARK    3  A    between atoms: C_8  and  N_9
REMARK    4  A    between atoms: C_10  and  C_12
REMARK    5  A    between atoms: C_12  and  C_13
REMARK    6  A    between atoms: C_12  and  O_14
REMARK    7  A    between atoms: O_14  and  C_15
REMARK    8  A    between atoms: C_15  and  C_17
REMARK    9  A    between atoms: C_17  and  C_18
REMARK   10  A    between atoms: C_18  and  C_19
REMARK                            x       y       z     vdW  Elec       q    Type
REMARK                         _______ _______ _______ _____ _____    ______ ____
ROOT
ATOM      1  C   UNL     1       6.986   5.759  16.795  0.00  0.00    +0.000 C 
ATOM      2  C   UNL     1       7.437   5.163  15.457  0.00  0.00    +0.000 C 
ENDROOT
BRANCH   1   4
ATOM      3  N   UNL     1       5.163   4.538  17.919  0.00  0.00    +0.000 N 
ATOM      4  C   UNL     1       5.478   5.541  17.006  0.00  0.00    +0.000 C 
ATOM      5  O   UNL     1       4.659   6.208  16.375  0.00  0.00    +0.000 OA
ATOM      6  H   UNL     1       5.886   4.213  18.552  0.00  0.00    +0.000 HD
BRANCH   3  12
ATOM      7  C   UNL     1       2.954   4.805  18.961  0.00  0.00    +0.000 A 
ATOM      8  C   UNL     1       1.641   4.337  19.149  0.00  0.00    +0.000 A 
ATOM      9  C   UNL     1       1.240   3.103  18.638  0.00  0.00    +0.000 A 
ATOM     10  C   UNL     1       2.147   2.320  17.943  0.00  0.00    +0.000 A 
ATOM     11  C   UNL     1       3.443   2.789  17.722  0.00  0.00    +0.000 A 
ATOM     12  C   UNL     1       3.854   4.044  18.187  0.00  0.00    +0.000 A 
BRANCH   7  14
ATOM     13  C   UNL     1       2.378   6.995  19.663  0.00  0.00    +0.000 C 
ATOM     14  O   UNL     1       3.397   6.009  19.466  0.00  0.00    +0.000 OA
ENDBRANCH   7  14
ENDBRANCH   3  12
ENDBRANCH   1   4
BRANCH   1  15
ATOM     15  O   UNL     1       7.268   7.165  16.768  0.00  0.00    +0.000 OA
BRANCH  15  16
ATOM     16  C   UNL     1       7.846   7.693  17.876  0.00  0.00    +0.000 C 
ATOM     17  O   UNL     1       8.283   7.050  18.819  0.00  0.00    +0.000 OA
BRANCH  16  18
ATOM     18  C   UNL     1       7.874   9.200  17.791  0.00  0.00    +0.000 C 
BRANCH  18  19
ATOM     19  C   UNL     1       8.947   9.811  18.697  0.00  0.00    +0.000 C 
BRANCH  19  20
ATOM     20  C   UNL     1       9.716  10.999  18.072  0.00  0.00    +0.000 C 
ATOM     21  C   UNL     1       8.930  12.321  18.099  0.00  0.00    +0.000 C 
ATOM     22  C   UNL     1       8.891  12.970  19.481  0.00  0.00    +0.000 C 
ATOM     23  C   UNL     1      10.296  13.186  20.030  0.00  0.00    +0.000 C 
ATOM     24  C   UNL     1      11.076  11.878  20.080  0.00  0.00    +0.000 C 
ATOM     25  C   UNL     1      11.103  11.175  18.724  0.00  0.00    +0.000 C 
ENDBRANCH  19  20
ENDBRANCH  18  19
ENDBRANCH  16  18
ENDBRANCH  15  16
ENDBRANCH   1  15
TORSDOF 8
ENDMDL
MODEL 5
REMARK VINA RESULT:      -7.5      1.289      2.356
REMARK  Name = 
REMARK  10 active torsions:
REMARK  status: ('A' for Active; 'I' for Inactive)
REMARK    1  A    between atoms: C_1  and  O_2
REMARK    2  A    between atoms: O_2  and  C_3
REMARK    3  A    between atoms: C_8  and  N_9
REMARK    4  A    between atoms: C_10  and  C_12
REMARK    5  A    between atoms: C_12  and  C_13
REMARK    6  A    between atoms: C_12  and  O_14
REMARK    7  A    between atoms: O_14  and  C_15
REMARK    8  A    between atoms: C_15  and  C_17
REMARK    9  A    between atoms: C_17  and  C_18
REMARK   10  A    between atoms: C_18  and  C_19
REMARK                            x       y       z     vdW  Elec       q    Type
REMARK                         _______ _______ _______ _____ _____    ______ ____
ROOT
ATOM      1  C   UNL     1       7.140   5.233  17.256  0.00  0.00    +0.000 C 
ATOM      2  C   UNL     1       7.113   4.774  15.795  0.00  0.00    +0.000 C 
ENDROOT
BRANCH   1   4
ATOM      3  N   UNL     1       4.930   4.141  17.271  0.00  0.00    +0.000 N 
ATOM      4  C   UNL     1       5.995   4.585  18.051  0.00  0.00    +0.000 C 
ATOM      5  O   UNL     1       6.052   4.513  19.278  0.00  0.00    +0.000 OA
ATOM      6  H   UNL     1       5.074   4.029  16.273  0.00  0.00    +0.000 HD
BRANCH   3  12
ATOM      7  C   UNL     1       2.639   4.522  18.074  0.00  0.00    +0.000 A 
ATOM      8  C   UNL     1       1.401   3.999  18.487  0.00  0.00    +0.000 A 
ATOM      9  C   UNL     1       1.224   2.626  18.661  0.00  0.00    +0.000 A 
ATOM     10  C   UNL     1       2.283   1.764  18.434  0.00  0.00    +0.000 A 
ATOM     11  C   UNL     1       3.506   2.267  17.992  0.00  0.00    +0.000 A 
ATOM     12  C   UNL     1       3.693   3.637  17.767  0.00  0.00    +0.000 A 
BRANCH   7  14
ATOM     13  C   UNL     1       2.730   6.657  19.098  0.00  0.00    +0.000 C 
ATOM     14  O   UNL     1       2.862   5.872  17.908  0.00  0.00    +0.000 OA
ENDBRANCH   7  14
ENDBRANCH   3  12
ENDBRANCH   1   4
BRANCH   1  15
ATOM     15  O   UNL     1       6.989   6.659  17.273  0.00  0.00    +0.000 OA
BRANCH  15  16
ATOM     16  C   UNL     1       7.885   7.359  18.015  0.00  0.00    +0.000 C 
ATOM     17  O   UNL     1       8.391   6.975  19.058  0.00  0.00    +0.000 OA
BRANCH  16  18
ATOM     18  C   UNL     1       8.171   8.695  17.374  0.00  0.00    +0.000 C 
BRANCH  18  19
ATOM     19  C   UNL     1       8.204   9.834  18.398  0.00  0.00    +0.000 C 
BRANCH  19  20
ATOM     20  C   UNL     1       9.623  10.289  18.809  0.00  0.00    +0.000 C 
ATOM     21  C   UNL     1      10.234  11.329  17.853  0.00  0.00    +0.000 C 
ATOM     22  C   UNL     1       9.648  12.728  18.030  0.00  0.00    +0.000 C 
ATOM     23  C   UNL     1       9.778  13.203  19.472  0.00  0.00    +0.000 C 
ATOM     24  C   UNL     1       9.119  12.225  20.437  0.00  0.00    +0.000 C 
ATOM     25  C   UNL     1       9.650  10.804  20.263  0.00  0.00    +0.000 C 
ENDBRANCH  19  20
ENDBRANCH  18  19
ENDBRANCH  16  18
ENDBRANCH  15  16
ENDBRANCH   1  15
TORSDOF 8
ENDMDL
MODEL 6
REMARK VINA RESULT:      -7.5      3.273      7.923
REMARK  Name = 
REMARK  10 active torsions:
REMARK  status: ('A' for Active; 'I' for Inactive)
REMARK    1  A    between atoms: C_1  and  O_2
REMARK    2  A    between atoms: O_2  and  C_3
REMARK    3  A    between atoms: C_8  and  N_9
REMARK    4  A    between atoms: C_10  and  C_12
REMARK    5  A    between atoms: C_12  and  C_13
REMARK    6  A    between atoms: C_12  and  O_14
REMARK    7  A    between atoms: O_14  and  C_15
REMARK    8  A    between atoms: C_15  and  C_17
REMARK    9  A    between atoms: C_17  and  C_18
REMARK   10  A    between atoms: C_18  and  C_19
REMARK                            x       y       z     vdW  Elec       q    Type
REMARK                         _______ _______ _______ _____ _____    ______ ____
ROOT
ATOM      1  C   UNL     1       7.474   6.369  17.729  0.00  0.00    +0.000 C 
ATOM      2  C   UNL     1       7.503   7.791  17.161  0.00  0.00    +0.000 C 
ENDROOT
BRANCH   1   4
ATOM      3  N   UNL     1       6.753   5.749  15.455  0.00  0.00    +0.000 N 
ATOM      4  C   UNL     1       7.432   5.330  16.596  0.00  0.00    +0.000 C 
ATOM      5  O   UNL     1       7.949   4.224  16.746  0.00  0.00    +0.000 OA
ATOM      6  H   UNL     1       6.571   6.740  15.335  0.00  0.00    +0.000 HD
BRANCH   3  12
ATOM      7  C   UNL     1       7.334   4.886  13.229  0.00  0.00    +0.000 A 
ATOM      8  C   UNL     1       7.056   4.016  12.159  0.00  0.00    +0.000 A 
ATOM      9  C   UNL     1       5.888   3.255  12.139  0.00  0.00    +0.000 A 
ATOM     10  C   UNL     1       4.982   3.361  13.181  0.00  0.00    +0.000 A 
ATOM     11  C   UNL     1       5.262   4.196  14.263  0.00  0.00    +0.000 A 
ATOM     12  C   UNL     1       6.450   4.935  14.326  0.00  0.00    +0.000 A 
BRANCH   7  14
ATOM     13  C   UNL     1       8.725   6.437  12.097  0.00  0.00    +0.000 C 
ATOM     14  O   UNL     1       8.467   5.670  13.278  0.00  0.00    +0.000 OA
ENDBRANCH   7  14
ENDBRANCH   3  12
ENDBRANCH   1   4
BRANCH   1  15
ATOM     15  O   UNL     1       6.298   6.243  18.540  0.00  0.00    +0.000 OA
BRANCH  15  16
ATOM     16  C   UNL     1       6.312   5.274  19.490  0.00  0.00    +0.000 C 
ATOM     17  O   UNL     1       7.199   5.106  20.314  0.00  0.00    +0.000 OA
BRANCH  16  18
ATOM     18  C   UNL     1       5.074   4.416  19.388  0.00  0.00    +0.000 C 
BRANCH  18  19
ATOM     19  C   UNL     1       3.925   5.140  18.680  0.00  0.00    +0.000 C 
BRANCH  19  20
ATOM     20  C   UNL     1       3.238   4.318  17.564  0.00  0.00    +0.000 C 
ATOM     21  C   UNL     1       3.682   2.845  17.526  0.00  0.00    +0.000 C 
ATOM     22  C   UNL     1       3.062   2.002  18.639  0.00  0.00    +0.000 C 
ATOM     23  C   UNL     1       1.541   2.091  18.618  0.00  0.00    +0.000 C 
ATOM     24  C   UNL     1       1.071   3.537  18.725  0.00  0.00    +0.000 C 
ATOM     25  C   UNL     1       1.702   4.423  17.653  0.00  0.00    +0.000 C 
ENDBRANCH  19  20
ENDBRANCH  18  19
ENDBRANCH  16  18
ENDBRANCH  15  16
ENDBRANCH   1  15
TORSDOF 8
ENDMDL
MODEL 7
REMARK VINA RESULT:      -7.4      1.268      2.129
REMARK  Name = 
REMARK  10 active torsions:
REMARK  status: ('A' for Active; 'I' for Inactive)
REMARK    1  A    between atoms: C_1  and  O_2
REMARK    2  A    between atoms: O_2  and  C_3
REMARK    3  A    between atoms: C_8  and  N_9
REMARK    4  A    between atoms: C_10  and  C_12
REMARK    5  A    between atoms: C_12  and  C_13
REMARK    6  A    between atoms: C_12  and  O_14
REMARK    7  A    between atoms: O_14  and  C_15
REMARK    8  A    between atoms: C_15  and  C_17
REMARK    9  A    between atoms: C_17  and  C_18
REMARK   10  A    between atoms: C_18  and  C_19
REMARK                            x       y       z     vdW  Elec       q    Type
REMARK                         _______ _______ _______ _____ _____    ______ ____
ROOT
ATOM      1  C   UNL     1       7.047   5.201  16.445  0.00  0.00    +0.000 C 
ATOM      2  C   UNL     1       7.331   4.737  15.013  0.00  0.00    +0.000 C 
ENDROOT
BRANCH   1   4
ATOM      3  N   UNL     1       5.244   4.152  17.759  0.00  0.00    +0.000 N 
ATOM      4  C   UNL     1       5.548   5.082  16.768  0.00  0.00    +0.000 C 
ATOM      5  O   UNL     1       4.724   5.758  16.153  0.00  0.00    +0.000 OA
ATOM      6  H   UNL     1       5.991   3.823  18.362  0.00  0.00    +0.000 HD
BRANCH   3  12
ATOM      7  C   UNL     1       3.147   4.586  18.965  0.00  0.00    +0.000 A 
ATOM      8  C   UNL     1       1.827   4.209  19.267  0.00  0.00    +0.000 A 
ATOM      9  C   UNL     1       1.308   2.993  18.823  0.00  0.00    +0.000 A 
ATOM     10  C   UNL     1       2.105   2.138  18.080  0.00  0.00    +0.000 A 
ATOM     11  C   UNL     1       3.406   2.516  17.745  0.00  0.00    +0.000 A 
ATOM     12  C   UNL     1       3.932   3.751  18.143  0.00  0.00    +0.000 A 
BRANCH   7  14
ATOM     13  C   UNL     1       2.942   6.943  19.105  0.00  0.00    +0.000 C 
ATOM     14  O   UNL     1       3.705   5.769  19.401  0.00  0.00    +0.000 OA
ENDBRANCH   7  14
ENDBRANCH   3  12
ENDBRANCH   1   4
BRANCH   1  15
ATOM     15  O   UNL     1       7.455   6.572  16.553  0.00  0.00    +0.000 OA
BRANCH  15  16
ATOM     16  C   UNL     1       7.689   7.043  17.804  0.00  0.00    +0.000 C 
ATOM     17  O   UNL     1       7.970   6.357  18.775  0.00  0.00    +0.000 OA
BRANCH  16  18
ATOM     18  C   UNL     1       7.547   8.545  17.838  0.00  0.00    +0.000 C 
BRANCH  18  19
ATOM     19  C   UNL     1       8.828   9.237  18.316  0.00  0.00    +0.000 C 
BRANCH  19  20
ATOM     20  C   UNL     1       8.620  10.670  18.858  0.00  0.00    +0.000 C 
ATOM     21  C   UNL     1       9.396  10.953  20.156  0.00  0.00    +0.000 C 
ATOM     22  C   UNL     1      10.891  11.169  19.930  0.00  0.00    +0.000 C 
ATOM     23  C   UNL     1      11.142  12.280  18.919  0.00  0.00    +0.000 C 
ATOM     24  C   UNL     1      10.441  11.992  17.596  0.00  0.00    +0.000 C 
ATOM     25  C   UNL     1       8.948  11.729  17.785  0.00  0.00    +0.000 C 
ENDBRANCH  19  20
ENDBRANCH  18  19
ENDBRANCH  16  18
ENDBRANCH  15  16
ENDBRANCH   1  15
TORSDOF 8
ENDMDL
MODEL 8
REMARK VINA RESULT:      -7.4      1.201      2.307
REMARK  Name = 
REMARK  10 active torsions:
REMARK  status: ('A' for Active; 'I' for Inactive)
REMARK    1  A    between atoms: C_1  and  O_2
REMARK    2  A    between atoms: O_2  and  C_3
REMARK    3  A    between atoms: C_8  and  N_9
REMARK    4  A    between atoms: C_10  and  C_12
REMARK    5  A    between atoms: C_12  and  C_13
REMARK    6  A    between atoms: C_12  and  O_14
REMARK    7  A    between atoms: O_14  and  C_15
REMARK    8  A    between atoms: C_15  and  C_17
REMARK    9  A    between atoms: C_17  and  C_18
REMARK   10  A    between atoms: C_18  and  C_19
REMARK                            x       y       z     vdW  Elec       q    Type
REMARK                         _______ _______ _______ _____ _____    ______ ____
ROOT
ATOM      1  C   UNL     1       6.205   5.703  16.900  0.00  0.00    +0.000 C 
ATOM      2  C   UNL     1       5.533   5.873  15.534  0.00  0.00    +0.000 C 
ENDROOT
BRANCH   1   4
ATOM      3  N   UNL     1       3.972   4.902  17.568  0.00  0.00    +0.000 N 
ATOM      4  C   UNL     1       5.337   4.838  17.830  0.00  0.00    +0.000 C 
ATOM      5  O   UNL     1       5.856   4.182  18.733  0.00  0.00    +0.000 OA
ATOM      6  H   UNL     1       3.665   5.273  16.675  0.00  0.00    +0.000 HD
BRANCH   3  12
ATOM      7  C   UNL     1       2.465   4.983  19.508  0.00  0.00    +0.000 A 
ATOM      8  C   UNL     1       1.400   4.423  20.235  0.00  0.00    +0.000 A 
ATOM      9  C   UNL     1       0.862   3.186  19.881  0.00  0.00    +0.000 A 
ATOM     10  C   UNL     1       1.388   2.492  18.804  0.00  0.00    +0.000 A 
ATOM     11  C   UNL     1       2.422   3.053  18.055  0.00  0.00    +0.000 A 
ATOM     12  C   UNL     1       2.947   4.313  18.365  0.00  0.00    +0.000 A 
BRANCH   7  14
ATOM     13  C   UNL     1       2.207   7.337  19.615  0.00  0.00    +0.000 C 
ATOM     14  O   UNL     1       3.039   6.193  19.835  0.00  0.00    +0.000 OA
ENDBRANCH   7  14
ENDBRANCH   3  12
ENDBRANCH   1   4
BRANCH   1  15
ATOM     15  O   UNL     1       6.371   7.007  17.474  0.00  0.00    +0.000 OA
BRANCH  15  16
ATOM     16  C   UNL     1       7.588   7.289  18.006  0.00  0.00    +0.000 C 
ATOM     17  O   UNL     1       8.149   6.635  18.871  0.00  0.00    +0.000 OA
BRANCH  16  18
ATOM     18  C   UNL     1       8.159   8.540  17.382  0.00  0.00    +0.000 C 
BRANCH  18  19
ATOM     19  C   UNL     1       8.166   9.722  18.357  0.00  0.00    +0.000 C 
BRANCH  19  20
ATOM     20  C   UNL     1       9.575  10.197  18.782  0.00  0.00    +0.000 C 
ATOM     21  C   UNL     1      10.186  11.235  17.824  0.00  0.00    +0.000 C 
ATOM     22  C   UNL     1       9.581  12.629  17.981  0.00  0.00    +0.000 C 
ATOM     23  C   UNL     1       9.687  13.118  19.420  0.00  0.00    +0.000 C 
ATOM     24  C   UNL     1       9.027  12.142  20.386  0.00  0.00    +0.000 C 
ATOM     25  C   UNL     1       9.576  10.725  20.231  0.00  0.00    +0.000 C 
ENDBRANCH  19  20
ENDBRANCH  18  19
ENDBRANCH  16  18
ENDBRANCH  15  16
ENDBRANCH   1  15
TORSDOF 8
ENDMDL
MODEL 9
REMARK VINA RESULT:      -7.4      3.535      6.057
REMARK  Name = 
REMARK  10 active torsions:
REMARK  status: ('A' for Active; 'I' for Inactive)
REMARK    1  A    between atoms: C_1  and  O_2
REMARK    2  A    between atoms: O_2  and  C_3
REMARK    3  A    between atoms: C_8  and  N_9
REMARK    4  A    between atoms: C_10  and  C_12
REMARK    5  A    between atoms: C_12  and  C_13
REMARK    6  A    between atoms: C_12  and  O_14
REMARK    7  A    between atoms: O_14  and  C_15
REMARK    8  A    between atoms: C_15  and  C_17
REMARK    9  A    between atoms: C_17  and  C_18
REMARK   10  A    between atoms: C_18  and  C_19
REMARK                            x       y       z     vdW  Elec       q    Type
REMARK                         _______ _______ _______ _____ _____    ______ ____
ROOT
ATOM      1  C   UNL     1       2.352   3.977  20.121  0.00  0.00    +0.000 C 
ATOM      2  C   UNL     1       1.121   3.506  20.902  0.00  0.00    +0.000 C 
ENDROOT
BRANCH   1   4
ATOM      3  N   UNL     1       2.323   6.436  19.950  0.00  0.00    +0.000 N 
ATOM      4  C   UNL     1       2.028   5.238  19.304  0.00  0.00    +0.000 C 
ATOM      5  O   UNL     1       1.524   5.142  18.185  0.00  0.00    +0.000 OA
ATOM      6  H   UNL     1       2.942   6.414  20.754  0.00  0.00    +0.000 HD
BRANCH   3  12
ATOM      7  C   UNL     1       1.247   8.619  20.284  0.00  0.00    +0.000 A 
ATOM      8  C   UNL     1       0.998   9.926  19.829  0.00  0.00    +0.000 A 
ATOM      9  C   UNL     1       1.418  10.337  18.564  0.00  0.00    +0.000 A 
ATOM     10  C   UNL     1       2.081   9.446  17.738  0.00  0.00    +0.000 A 
ATOM     11  C   UNL     1       2.363   8.157  18.191  0.00  0.00    +0.000 A 
ATOM     12  C   UNL     1       1.991   7.737  19.474  0.00  0.00    +0.000 A 
BRANCH   7  14
ATOM     13  C   UNL     1       0.609   9.190  22.494  0.00  0.00    +0.000 C 
ATOM     14  O   UNL     1       0.833   8.167  21.519  0.00  0.00    +0.000 OA
ENDBRANCH   7  14
ENDBRANCH   3  12
ENDBRANCH   1   4
BRANCH   1  15
ATOM     15  O   UNL     1       2.742   2.918  19.235  0.00  0.00    +0.000 OA
BRANCH  15  16
ATOM     16  C   UNL     1       4.057   2.852  18.905  0.00  0.00    +0.000 C 
ATOM     17  O   UNL     1       4.953   2.480  19.647  0.00  0.00    +0.000 OA
BRANCH  16  18
ATOM     18  C   UNL     1       4.268   3.311  17.483  0.00  0.00    +0.000 C 
BRANCH  18  19
ATOM     19  C   UNL     1       5.484   4.233  17.346  0.00  0.00    +0.000 C 
BRANCH  19  20
ATOM     20  C   UNL     1       5.395   5.541  18.168  0.00  0.00    +0.000 C 
ATOM     21  C   UNL     1       6.299   5.544  19.413  0.00  0.00    +0.000 C 
ATOM     22  C   UNL     1       7.775   5.757  19.085  0.00  0.00    +0.000 C 
ATOM     23  C   UNL     1       7.984   7.035  18.283  0.00  0.00    +0.000 C 
ATOM     24  C   UNL     1       7.153   7.028  17.006  0.00  0.00    +0.000 C 
ATOM     25  C   UNL     1       5.673   6.777  17.289  0.00  0.00    +0.000 C 
ENDBRANCH  19  20
ENDBRANCH  18  19
ENDBRANCH  16  18
ENDBRANCH  15  16
ENDBRANCH   1  15
TORSDOF 8
ENDMDL
