MODEL 1
REMARK VINA RESULT:      -8.7      0.000      0.000
REMARK  Name = 
REMARK  5 active torsions:
REMARK  status: ('A' for Active; 'I' for Inactive)
REMARK    1  A    between atoms: C_2  and  C_3
REMARK    2  A    between atoms: C_6  and  N_7
REMARK    3  A    between atoms: N_10  and  C_11
REMARK    4  A    between atoms: C_15  and  C_16
REMARK    5  A    between atoms: C_20  and  N_21
REMARK                            x       y       z     vdW  Elec       q    Type
REMARK                         _______ _______ _______ _____ _____    ______ ____
ROOT
ATOM      1  C   UNL     1       2.310   5.539  19.936  0.00  0.00    +0.000 A 
ATOM      2  C   UNL     1       1.344   4.624  19.500  0.00  0.00    +0.000 A 
ATOM      3  C   UNL     1       1.588   3.822  18.385  0.00  0.00    +0.000 A 
ATOM      4  C   UNL     1       2.814   3.902  17.730  0.00  0.00    +0.000 A 
ATOM      5  C   UNL     1       3.832   4.766  18.180  0.00  0.00    +0.000 A 
ATOM      6  C   UNL     1       3.542   5.612  19.272  0.00  0.00    +0.000 A 
ENDROOT
BRANCH   1  10
ATOM      7  N   UNL     1       1.238   8.370  21.983  0.00  0.00    +0.000 N 
ATOM      8  C   UNL     1       1.452   7.633  20.820  0.00  0.00    +0.000 C 
ATOM      9  O   UNL     1       1.168   8.021  19.689  0.00  0.00    +0.000 OA
ATOM     10  N   UNL     1       2.041   6.392  21.045  0.00  0.00    +0.000 N 
ATOM     11  H   UNL     1       1.680   8.048  22.830  0.00  0.00    +0.000 HD
ATOM     12  H   UNL     1       1.768   5.931  21.902  0.00  0.00    +0.000 HD
BRANCH   7  16
ATOM     13  C   UNL     1      -0.631  12.196  22.073  0.00  0.00    +0.000 A 
ATOM     14  C   UNL     1      -1.039  11.202  22.953  0.00  0.00    +0.000 A 
ATOM     15  C   UNL     1      -0.422   9.943  22.926  0.00  0.00    +0.000 A 
ATOM     16  C   UNL     1       0.601   9.647  22.011  0.00  0.00    +0.000 A 
ATOM     17  C   UNL     1       1.009  10.653  21.129  0.00  0.00    +0.000 A 
ATOM     18  C   UNL     1       0.379  11.926  21.153  0.00  0.00    +0.000 A 
BRANCH  13  20
ATOM     19  N   UNL     1      -1.740  14.548  22.147  0.00  0.00    +0.000 NA
ATOM     20  C   UNL     1      -1.251  13.499  22.121  0.00  0.00    +0.000 C 
ENDBRANCH  13  20
ENDBRANCH   7  16
ENDBRANCH   1  10
BRANCH   5  21
ATOM     21  C   UNL     1       5.155   4.762  17.520  0.00  0.00    +0.000 A 
ATOM     22  C   UNL     1       6.333   4.751  18.268  0.00  0.00    +0.000 A 
ATOM     23  C   UNL     1       7.546   4.665  17.614  0.00  0.00    +0.000 A 
ATOM     24  C   UNL     1       7.548   4.604  16.230  0.00  0.00    +0.000 A 
ATOM     25  C   UNL     1       6.350   4.641  15.513  0.00  0.00    +0.000 A 
ATOM     26  N   UNL     1       5.166   4.736  16.161  0.00  0.00    +0.000 NA
BRANCH  25  27
ATOM     27  N   UNL     1       6.363   4.570  14.143  0.00  0.00    +0.000 N 
ATOM     28  C   UNL     1       5.348   3.878  13.371  0.00  0.00    +0.000 C 
ATOM     29  C   UNL     1       6.159   3.262  12.236  0.00  0.00    +0.000 C 
ATOM     30  C   UNL     1       7.245   4.297  11.970  0.00  0.00    +0.000 C 
ATOM     31  C   UNL     1       7.511   4.936  13.330  0.00  0.00    +0.000 C 
ENDBRANCH  25  27
ENDBRANCH   5  21
TORSDOF 5
ENDMDL
MODEL 2
REMARK VINA RESULT:      -8.3      3.894     11.440
REMARK  Name = 
REMARK  5 active torsions:
REMARK  status: ('A' for Active; 'I' for Inactive)
REMARK    1  A    between atoms: C_2  and  C_3
REMARK    2  A    between atoms: C_6  and  N_7
REMARK    3  A    between atoms: N_10  and  C_11
REMARK    4  A    between atoms: C_15  and  C_16
REMARK    5  A    between atoms: C_20  and  N_21
REMARK                            x       y       z     vdW  Elec       q    Type
REMARK                         _______ _______ _______ _____ _____    ______ ____
ROOT
ATOM      1  C   UNL     1       0.616  10.425  19.187  0.00  0.00    +0.000 A 
ATOM      2  C   UNL     1       1.280  11.648  19.351  0.00  0.00    +0.000 A 
ATOM      3  C   UNL     1       0.635  12.845  19.042  0.00  0.00    +0.000 A 
ATOM      4  C   UNL     1      -0.688  12.826  18.609  0.00  0.00    +0.000 A 
ATOM      5  C   UNL     1      -1.406  11.620  18.492  0.00  0.00    +0.000 A 
ATOM      6  C   UNL     1      -0.716  10.416  18.751  0.00  0.00    +0.000 A 
ENDROOT
BRANCH   1  10
ATOM      7  N   UNL     1       2.595   7.376  18.816  0.00  0.00    +0.000 N 
ATOM      8  C   UNL     1       1.975   8.561  18.426  0.00  0.00    +0.000 C 
ATOM      9  O   UNL     1       2.001   9.016  17.284  0.00  0.00    +0.000 OA
ATOM     10  N   UNL     1       1.292   9.200  19.455  0.00  0.00    +0.000 N 
ATOM     11  H   UNL     1       2.352   6.994  19.717  0.00  0.00    +0.000 HD
ATOM     12  H   UNL     1       1.712   9.119  20.371  0.00  0.00    +0.000 HD
BRANCH   7  16
ATOM     13  C   UNL     1       4.974   5.000  16.202  0.00  0.00    +0.000 A 
ATOM     14  C   UNL     1       3.964   4.411  16.951  0.00  0.00    +0.000 A 
ATOM     15  C   UNL     1       3.178   5.192  17.809  0.00  0.00    +0.000 A 
ATOM     16  C   UNL     1       3.396   6.573  17.949  0.00  0.00    +0.000 A 
ATOM     17  C   UNL     1       4.413   7.161  17.191  0.00  0.00    +0.000 A 
ATOM     18  C   UNL     1       5.213   6.366  16.327  0.00  0.00    +0.000 A 
BRANCH  13  20
ATOM     19  N   UNL     1       6.406   3.564  14.573  0.00  0.00    +0.000 NA
ATOM     20  C   UNL     1       5.765   4.196  15.300  0.00  0.00    +0.000 C 
ENDBRANCH  13  20
ENDBRANCH   7  16
ENDBRANCH   1  10
BRANCH   5  21
ATOM     21  C   UNL     1      -2.836  11.640  18.119  0.00  0.00    +0.000 A 
ATOM     22  C   UNL     1      -3.258  11.214  16.859  0.00  0.00    +0.000 A 
ATOM     23  C   UNL     1      -4.610  11.171  16.578  0.00  0.00    +0.000 A 
ATOM     24  C   UNL     1      -5.501  11.565  17.562  0.00  0.00    +0.000 A 
ATOM     25  C   UNL     1      -5.042  12.008  18.805  0.00  0.00    +0.000 A 
ATOM     26  N   UNL     1      -3.715  12.057  19.068  0.00  0.00    +0.000 NA
BRANCH  25  27
ATOM     27  N   UNL     1      -5.934  12.387  19.776  0.00  0.00    +0.000 N 
ATOM     28  C   UNL     1      -5.559  13.160  20.944  0.00  0.00    +0.000 C 
ATOM     29  C   UNL     1      -6.433  12.553  22.037  0.00  0.00    +0.000 C 
ATOM     30  C   UNL     1      -7.721  12.195  21.307  0.00  0.00    +0.000 C 
ATOM     31  C   UNL     1      -7.277  11.843  19.890  0.00  0.00    +0.000 C 
ENDBRANCH  25  27
ENDBRANCH   5  21
TORSDOF 5
ENDMDL
MODEL 3
REMARK VINA RESULT:      -8.0      3.955     11.416
REMARK  Name = 
REMARK  5 active torsions:
REMARK  status: ('A' for Active; 'I' for Inactive)
REMARK    1  A    between atoms: C_2  and  C_3
REMARK    2  A    between atoms: C_6  and  N_7
REMARK    3  A    between atoms: N_10  and  C_11
REMARK    4  A    between atoms: C_15  and  C_16
REMARK    5  A    between atoms: C_20  and  N_21
REMARK                            x       y       z     vdW  Elec       q    Type
REMARK                         _______ _______ _______ _____ _____    ______ ____
ROOT
ATOM      1  C   UNL     1       0.458  10.361  19.611  0.00  0.00    +0.000 A 
ATOM      2  C   UNL     1       1.004  11.569  20.062  0.00  0.00    +0.000 A 
ATOM      3  C   UNL     1       0.339  12.772  19.830  0.00  0.00    +0.000 A 
ATOM      4  C   UNL     1      -0.895  12.766  19.183  0.00  0.00    +0.000 A 
ATOM      5  C   UNL     1      -1.503  11.565  18.771  0.00  0.00    +0.000 A 
ATOM      6  C   UNL     1      -0.785  10.364  18.962  0.00  0.00    +0.000 A 
ENDROOT
BRANCH   1  10
ATOM      7  N   UNL     1       2.474   7.365  19.047  0.00  0.00    +0.000 N 
ATOM      8  C   UNL     1       1.821   8.554  18.729  0.00  0.00    +0.000 C 
ATOM      9  O   UNL     1       1.803   9.058  17.607  0.00  0.00    +0.000 OA
ATOM     10  N   UNL     1       1.162   9.138  19.806  0.00  0.00    +0.000 N 
ATOM     11  H   UNL     1       2.266   6.942  19.939  0.00  0.00    +0.000 HD
ATOM     12  H   UNL     1       1.613   9.025  20.703  0.00  0.00    +0.000 HD
BRANCH   7  16
ATOM     13  C   UNL     1       4.828   5.101  16.315  0.00  0.00    +0.000 A 
ATOM     14  C   UNL     1       5.104   6.446  16.522  0.00  0.00    +0.000 A 
ATOM     15  C   UNL     1       4.333   7.192  17.424  0.00  0.00    +0.000 A 
ATOM     16  C   UNL     1       3.259   6.614  18.123  0.00  0.00    +0.000 A 
ATOM     17  C   UNL     1       2.987   5.259  17.911  0.00  0.00    +0.000 A 
ATOM     18  C   UNL     1       3.766   4.507  16.992  0.00  0.00    +0.000 A 
BRANCH  13  20
ATOM     19  N   UNL     1       6.291   3.701  14.683  0.00  0.00    +0.000 NA
ATOM     20  C   UNL     1       5.641   4.331  15.404  0.00  0.00    +0.000 C 
ENDBRANCH  13  20
ENDBRANCH   7  16
ENDBRANCH   1  10
BRANCH   5  21
ATOM     21  C   UNL     1      -2.853  11.583  18.171  0.00  0.00    +0.000 A 
ATOM     22  C   UNL     1      -3.059  11.193  16.847  0.00  0.00    +0.000 A 
ATOM     23  C   UNL     1      -4.347  11.147  16.349  0.00  0.00    +0.000 A 
ATOM     24  C   UNL     1      -5.391  11.503  17.186  0.00  0.00    +0.000 A 
ATOM     25  C   UNL     1      -5.146  11.911  18.499  0.00  0.00    +0.000 A 
ATOM     26  N   UNL     1      -3.881  11.963  18.976  0.00  0.00    +0.000 NA
BRANCH  25  27
ATOM     27  N   UNL     1      -6.190  12.251  19.322  0.00  0.00    +0.000 N 
ATOM     28  C   UNL     1      -7.240  13.175  18.936  0.00  0.00    +0.000 C 
ATOM     29  C   UNL     1      -7.513  13.927  20.235  0.00  0.00    +0.000 C 
ATOM     30  C   UNL     1      -7.303  12.869  21.310  0.00  0.00    +0.000 C 
ATOM     31  C   UNL     1      -6.225  11.950  20.743  0.00  0.00    +0.000 C 
ENDBRANCH  25  27
ENDBRANCH   5  21
TORSDOF 5
ENDMDL
MODEL 4
REMARK VINA RESULT:      -8.0      3.747     10.753
REMARK  Name = 
REMARK  5 active torsions:
REMARK  status: ('A' for Active; 'I' for Inactive)
REMARK    1  A    between atoms: C_2  and  C_3
REMARK    2  A    between atoms: C_6  and  N_7
REMARK    3  A    between atoms: N_10  and  C_11
REMARK    4  A    between atoms: C_15  and  C_16
REMARK    5  A    between atoms: C_20  and  N_21
REMARK                            x       y       z     vdW  Elec       q    Type
REMARK                         _______ _______ _______ _____ _____    ______ ____
ROOT
ATOM      1  C   UNL     1       0.868   9.078  20.466  0.00  0.00    +0.000 A 
ATOM      2  C   UNL     1       0.881   9.924  21.582  0.00  0.00    +0.000 A 
ATOM      3  C   UNL     1       0.039  11.034  21.632  0.00  0.00    +0.000 A 
ATOM      4  C   UNL     1      -0.848  11.278  20.586  0.00  0.00    +0.000 A 
ATOM      5  C   UNL     1      -0.932  10.414  19.478  0.00  0.00    +0.000 A 
ATOM      6  C   UNL     1      -0.028   9.330  19.418  0.00  0.00    +0.000 A 
ENDROOT
BRANCH   1  10
ATOM      7  N   UNL     1       3.119   6.485  19.215  0.00  0.00    +0.000 N 
ATOM      8  C   UNL     1       2.251   7.574  19.153  0.00  0.00    +0.000 C 
ATOM      9  O   UNL     1       1.921   8.140  18.113  0.00  0.00    +0.000 OA
ATOM     10  N   UNL     1       1.763   7.973  20.393  0.00  0.00    +0.000 N 
ATOM     11  H   UNL     1       3.170   5.976  20.084  0.00  0.00    +0.000 HD
ATOM     12  H   UNL     1       2.408   7.874  21.165  0.00  0.00    +0.000 HD
BRANCH   7  16
ATOM     13  C   UNL     1       5.127   4.810  15.854  0.00  0.00    +0.000 A 
ATOM     14  C   UNL     1       5.213   6.173  16.107  0.00  0.00    +0.000 A 
ATOM     15  C   UNL     1       4.555   6.725  17.215  0.00  0.00    +0.000 A 
ATOM     16  C   UNL     1       3.785   5.931  18.082  0.00  0.00    +0.000 A 
ATOM     17  C   UNL     1       3.704   4.559  17.823  0.00  0.00    +0.000 A 
ATOM     18  C   UNL     1       4.367   4.002  16.696  0.00  0.00    +0.000 A 
BRANCH  13  20
ATOM     19  N   UNL     1       6.390   3.797  13.818  0.00  0.00    +0.000 NA
ATOM     20  C   UNL     1       5.827   4.241  14.727  0.00  0.00    +0.000 C 
ENDBRANCH  13  20
ENDBRANCH   7  16
ENDBRANCH   1  10
BRANCH   5  21
ATOM     21  C   UNL     1      -1.946  10.647  18.428  0.00  0.00    +0.000 A 
ATOM     22  C   UNL     1      -1.775  10.148  17.137  0.00  0.00    +0.000 A 
ATOM     23  C   UNL     1      -2.784  10.319  16.208  0.00  0.00    +0.000 A 
ATOM     24  C   UNL     1      -3.930  10.993  16.595  0.00  0.00    +0.000 A 
ATOM     25  C   UNL     1      -4.057  11.499  17.890  0.00  0.00    +0.000 A 
ATOM     26  N   UNL     1      -3.060  11.338  18.790  0.00  0.00    +0.000 NA
BRANCH  25  27
ATOM     27  N   UNL     1      -5.201  12.157  18.264  0.00  0.00    +0.000 N 
ATOM     28  C   UNL     1      -6.289  12.448  17.349  0.00  0.00    +0.000 C 
ATOM     29  C   UNL     1      -6.752  13.825  17.813  0.00  0.00    +0.000 C 
ATOM     30  C   UNL     1      -6.551  13.780  19.322  0.00  0.00    +0.000 C 
ATOM     31  C   UNL     1      -5.345  12.868  19.524  0.00  0.00    +0.000 C 
ENDBRANCH  25  27
ENDBRANCH   5  21
TORSDOF 5
ENDMDL
MODEL 5
REMARK VINA RESULT:      -8.0      0.633      1.324
REMARK  Name = 
REMARK  5 active torsions:
REMARK  status: ('A' for Active; 'I' for Inactive)
REMARK    1  A    between atoms: C_2  and  C_3
REMARK    2  A    between atoms: C_6  and  N_7
REMARK    3  A    between atoms: N_10  and  C_11
REMARK    4  A    between atoms: C_15  and  C_16
REMARK    5  A    between atoms: C_20  and  N_21
REMARK                            x       y       z     vdW  Elec       q    Type
REMARK                         _______ _______ _______ _____ _____    ______ ____
ROOT
ATOM      1  C   UNL     1       2.259   5.858  19.913  0.00  0.00    +0.000 A 
ATOM      2  C   UNL     1       1.427   4.796  19.540  0.00  0.00    +0.000 A 
ATOM      3  C   UNL     1       1.717   4.040  18.405  0.00  0.00    +0.000 A 
ATOM      4  C   UNL     1       2.863   4.316  17.664  0.00  0.00    +0.000 A 
ATOM      5  C   UNL     1       3.755   5.337  18.044  0.00  0.00    +0.000 A 
ATOM      6  C   UNL     1       3.412   6.129  19.161  0.00  0.00    +0.000 A 
ENDROOT
BRANCH   1  10
ATOM      7  N   UNL     1       1.080   8.593  22.030  0.00  0.00    +0.000 N 
ATOM      8  C   UNL     1       1.351   7.908  20.847  0.00  0.00    +0.000 C 
ATOM      9  O   UNL     1       1.116   8.344  19.722  0.00  0.00    +0.000 OA
ATOM     10  N   UNL     1       1.936   6.661  21.044  0.00  0.00    +0.000 N 
ATOM     11  H   UNL     1       1.486   8.236  22.881  0.00  0.00    +0.000 HD
ATOM     12  H   UNL     1       1.628   6.162  21.867  0.00  0.00    +0.000 HD
BRANCH   7  16
ATOM     13  C   UNL     1      -0.876  12.373  22.183  0.00  0.00    +0.000 A 
ATOM     14  C   UNL     1       0.183  12.173  21.307  0.00  0.00    +0.000 A 
ATOM     15  C   UNL     1       0.825  10.928  21.253  0.00  0.00    +0.000 A 
ATOM     16  C   UNL     1       0.435   9.865  22.084  0.00  0.00    +0.000 A 
ATOM     17  C   UNL     1      -0.633  10.072  22.962  0.00  0.00    +0.000 A 
ATOM     18  C   UNL     1      -1.279  11.336  23.020  0.00  0.00    +0.000 A 
BRANCH  13  20
ATOM     19  N   UNL     1      -2.083  14.676  22.254  0.00  0.00    +0.000 NA
ATOM     20  C   UNL     1      -1.552  13.648  22.218  0.00  0.00    +0.000 C 
ENDBRANCH  13  20
ENDBRANCH   7  16
ENDBRANCH   1  10
BRANCH   5  21
ATOM     21  C   UNL     1       5.010   5.546  17.291  0.00  0.00    +0.000 A 
ATOM     22  C   UNL     1       6.035   6.341  17.805  0.00  0.00    +0.000 A 
ATOM     23  C   UNL     1       7.222   6.445  17.106  0.00  0.00    +0.000 A 
ATOM     24  C   UNL     1       7.346   5.760  15.910  0.00  0.00    +0.000 A 
ATOM     25  C   UNL     1       6.291   4.991  15.414  0.00  0.00    +0.000 A 
ATOM     26  N   UNL     1       5.127   4.904  16.099  0.00  0.00    +0.000 NA
BRANCH  25  27
ATOM     27  N   UNL     1       6.429   4.309  14.232  0.00  0.00    +0.000 N 
ATOM     28  C   UNL     1       7.570   4.467  13.350  0.00  0.00    +0.000 C 
ATOM     29  C   UNL     1       6.934   4.375  11.966  0.00  0.00    +0.000 C 
ATOM     30  C   UNL     1       5.808   3.368  12.158  0.00  0.00    +0.000 C 
ATOM     31  C   UNL     1       5.350   3.568  13.599  0.00  0.00    +0.000 C 
ENDBRANCH  25  27
ENDBRANCH   5  21
TORSDOF 5
ENDMDL
MODEL 6
REMARK VINA RESULT:      -7.8      1.436      1.615
REMARK  Name = 
REMARK  5 active torsions:
REMARK  status: ('A' for Active; 'I' for Inactive)
REMARK    1  A    between atoms: C_2  and  C_3
REMARK    2  A    between atoms: C_6  and  N_7
REMARK    3  A    between atoms: N_10  and  C_11
REMARK    4  A    between atoms: C_15  and  C_16
REMARK    5  A    between atoms: C_20  and  N_21
REMARK                            x       y       z     vdW  Elec       q    Type
REMARK                         _______ _______ _______ _____ _____    ______ ____
ROOT
ATOM      1  C   UNL     1       2.100   6.078  20.155  0.00  0.00    +0.000 A 
ATOM      2  C   UNL     1       1.329   4.909  20.131  0.00  0.00    +0.000 A 
ATOM      3  C   UNL     1       1.745   3.808  19.384  0.00  0.00    +0.000 A 
ATOM      4  C   UNL     1       2.954   3.857  18.694  0.00  0.00    +0.000 A 
ATOM      5  C   UNL     1       3.784   4.993  18.747  0.00  0.00    +0.000 A 
ATOM      6  C   UNL     1       3.316   6.118  19.459  0.00  0.00    +0.000 A 
ENDROOT
BRANCH   1  10
ATOM      7  N   UNL     1       1.012   9.459  21.018  0.00  0.00    +0.000 N 
ATOM      8  C   UNL     1       1.456   8.420  20.202  0.00  0.00    +0.000 C 
ATOM      9  O   UNL     1       1.676   8.528  18.997  0.00  0.00    +0.000 OA
ATOM     10  N   UNL     1       1.650   7.220  20.878  0.00  0.00    +0.000 N 
ATOM     11  H   UNL     1       1.051   9.319  22.016  0.00  0.00    +0.000 HD
ATOM     12  H   UNL     1       1.003   7.038  21.634  0.00  0.00    +0.000 HD
BRANCH   7  16
ATOM     13  C   UNL     1       0.075  13.374  19.631  0.00  0.00    +0.000 A 
ATOM     14  C   UNL     1      -0.917  12.405  19.700  0.00  0.00    +0.000 A 
ATOM     15  C   UNL     1      -0.610  11.117  20.160  0.00  0.00    +0.000 A 
ATOM     16  C   UNL     1       0.695  10.766  20.543  0.00  0.00    +0.000 A 
ATOM     17  C   UNL     1       1.689  11.746  20.473  0.00  0.00    +0.000 A 
ATOM     18  C   UNL     1       1.378  13.050  20.001  0.00  0.00    +0.000 A 
BRANCH  13  20
ATOM     19  N   UNL     1      -0.500  15.781  18.829  0.00  0.00    +0.000 NA
ATOM     20  C   UNL     1      -0.250  14.707  19.181  0.00  0.00    +0.000 C 
ENDBRANCH  13  20
ENDBRANCH   7  16
ENDBRANCH   1  10
BRANCH   5  21
ATOM     21  C   UNL     1       5.104   4.980  18.080  0.00  0.00    +0.000 A 
ATOM     22  C   UNL     1       6.286   4.975  18.821  0.00  0.00    +0.000 A 
ATOM     23  C   UNL     1       7.496   4.881  18.161  0.00  0.00    +0.000 A 
ATOM     24  C   UNL     1       7.489   4.806  16.778  0.00  0.00    +0.000 A 
ATOM     25  C   UNL     1       6.287   4.836  16.067  0.00  0.00    +0.000 A 
ATOM     26  N   UNL     1       5.107   4.940  16.721  0.00  0.00    +0.000 NA
BRANCH  25  27
ATOM     27  N   UNL     1       6.292   4.751  14.698  0.00  0.00    +0.000 N 
ATOM     28  C   UNL     1       5.257   4.077  13.938  0.00  0.00    +0.000 C 
ATOM     29  C   UNL     1       6.047   3.429  12.805  0.00  0.00    +0.000 C 
ATOM     30  C   UNL     1       7.157   4.433  12.524  0.00  0.00    +0.000 C 
ATOM     31  C   UNL     1       7.446   5.079  13.876  0.00  0.00    +0.000 C 
ENDBRANCH  25  27
ENDBRANCH   5  21
TORSDOF 5
ENDMDL
MODEL 7
REMARK VINA RESULT:      -7.8      2.457      4.604
REMARK  Name = 
REMARK  5 active torsions:
REMARK  status: ('A' for Active; 'I' for Inactive)
REMARK    1  A    between atoms: C_2  and  C_3
REMARK    2  A    between atoms: C_6  and  N_7
REMARK    3  A    between atoms: N_10  and  C_11
REMARK    4  A    between atoms: C_15  and  C_16
REMARK    5  A    between atoms: C_20  and  N_21
REMARK                            x       y       z     vdW  Elec       q    Type
REMARK                         _______ _______ _______ _____ _____    ______ ____
ROOT
ATOM      1  C   UNL     1       1.038   9.853  20.437  0.00  0.00    +0.000 A 
ATOM      2  C   UNL     1       0.949  10.416  19.158  0.00  0.00    +0.000 A 
ATOM      3  C   UNL     1       1.426   9.720  18.049  0.00  0.00    +0.000 A 
ATOM      4  C   UNL     1       1.955   8.441  18.209  0.00  0.00    +0.000 A 
ATOM      5  C   UNL     1       2.002   7.819  19.471  0.00  0.00    +0.000 A 
ATOM      6  C   UNL     1       1.570   8.565  20.590  0.00  0.00    +0.000 A 
ENDROOT
BRANCH   1  10
ATOM      7  N   UNL     1      -0.946  11.927  22.699  0.00  0.00    +0.000 N 
ATOM      8  C   UNL     1      -0.624  11.252  21.523  0.00  0.00    +0.000 C 
ATOM      9  O   UNL     1      -1.327  11.240  20.514  0.00  0.00    +0.000 OA
ATOM     10  N   UNL     1       0.595  10.585  21.576  0.00  0.00    +0.000 N 
ATOM     11  H   UNL     1      -0.220  12.035  23.390  0.00  0.00    +0.000 HD
ATOM     12  H   UNL     1       0.836  10.191  22.476  0.00  0.00    +0.000 HD
BRANCH   7  16
ATOM     13  C   UNL     1      -4.570  14.077  23.318  0.00  0.00    +0.000 A 
ATOM     14  C   UNL     1      -4.383  12.840  23.921  0.00  0.00    +0.000 A 
ATOM     15  C   UNL     1      -3.189  12.133  23.721  0.00  0.00    +0.000 A 
ATOM     16  C   UNL     1      -2.166  12.638  22.902  0.00  0.00    +0.000 A 
ATOM     17  C   UNL     1      -2.359  13.885  22.299  0.00  0.00    +0.000 A 
ATOM     18  C   UNL     1      -3.572  14.598  22.498  0.00  0.00    +0.000 A 
BRANCH  13  20
ATOM     19  N   UNL     1      -6.761  15.415  23.737  0.00  0.00    +0.000 NA
ATOM     20  C   UNL     1      -5.790  14.814  23.547  0.00  0.00    +0.000 C 
ENDBRANCH  13  20
ENDBRANCH   7  16
ENDBRANCH   1  10
BRANCH   5  21
ATOM     21  C   UNL     1       2.483   6.426  19.596  0.00  0.00    +0.000 A 
ATOM     22  C   UNL     1       1.883   5.534  20.486  0.00  0.00    +0.000 A 
ATOM     23  C   UNL     1       2.309   4.220  20.513  0.00  0.00    +0.000 A 
ATOM     24  C   UNL     1       3.329   3.839  19.658  0.00  0.00    +0.000 A 
ATOM     25  C   UNL     1       3.922   4.765  18.796  0.00  0.00    +0.000 A 
ATOM     26  N   UNL     1       3.506   6.053  18.784  0.00  0.00    +0.000 NA
BRANCH  25  27
ATOM     27  N   UNL     1       4.925   4.373  17.946  0.00  0.00    +0.000 N 
ATOM     28  C   UNL     1       6.327   4.664  18.182  0.00  0.00    +0.000 C 
ATOM     29  C   UNL     1       6.848   4.940  16.775  0.00  0.00    +0.000 C 
ATOM     30  C   UNL     1       6.041   3.988  15.902  0.00  0.00    +0.000 C 
ATOM     31  C   UNL     1       4.691   3.871  16.603  0.00  0.00    +0.000 C 
ENDBRANCH  25  27
ENDBRANCH   5  21
TORSDOF 5
ENDMDL
MODEL 8
REMARK VINA RESULT:      -7.7      2.244      4.298
REMARK  Name = 
REMARK  5 active torsions:
REMARK  status: ('A' for Active; 'I' for Inactive)
REMARK    1  A    between atoms: C_2  and  C_3
REMARK    2  A    between atoms: C_6  and  N_7
REMARK    3  A    between atoms: N_10  and  C_11
REMARK    4  A    between atoms: C_15  and  C_16
REMARK    5  A    between atoms: C_20  and  N_21
REMARK                            x       y       z     vdW  Elec       q    Type
REMARK                         _______ _______ _______ _____ _____    ______ ____
ROOT
ATOM      1  C   UNL     1       0.936   9.214  20.745  0.00  0.00    +0.000 A 
ATOM      2  C   UNL     1       0.893   9.927  19.541  0.00  0.00    +0.000 A 
ATOM      3  C   UNL     1       1.506   9.415  18.398  0.00  0.00    +0.000 A 
ATOM      4  C   UNL     1       2.127   8.169  18.445  0.00  0.00    +0.000 A 
ATOM      5  C   UNL     1       2.135   7.397  19.623  0.00  0.00    +0.000 A 
ATOM      6  C   UNL     1       1.562   7.960  20.784  0.00  0.00    +0.000 A 
ENDROOT
BRANCH   1  10
ATOM      7  N   UNL     1      -0.954  11.334  23.045  0.00  0.00    +0.000 N 
ATOM      8  C   UNL     1      -0.439  10.900  21.825  0.00  0.00    +0.000 C 
ATOM      9  O   UNL     1      -0.639  11.460  20.748  0.00  0.00    +0.000 OA
ATOM     10  N   UNL     1       0.352   9.761  21.924  0.00  0.00    +0.000 N 
ATOM     11  H   UNL     1      -0.574  10.924  23.885  0.00  0.00    +0.000 HD
ATOM     12  H   UNL     1       0.065   9.092  22.626  0.00  0.00    +0.000 HD
BRANCH   7  16
ATOM     13  C   UNL     1      -3.592  14.654  23.440  0.00  0.00    +0.000 A 
ATOM     14  C   UNL     1      -2.218  14.844  23.511  0.00  0.00    +0.000 A 
ATOM     15  C   UNL     1      -1.349  13.753  23.377  0.00  0.00    +0.000 A 
ATOM     16  C   UNL     1      -1.833  12.448  23.189  0.00  0.00    +0.000 A 
ATOM     17  C   UNL     1      -3.217  12.262  23.116  0.00  0.00    +0.000 A 
ATOM     18  C   UNL     1      -4.097  13.369  23.257  0.00  0.00    +0.000 A 
BRANCH  13  20
ATOM     19  N   UNL     1      -5.205  16.685  23.631  0.00  0.00    +0.000 NA
ATOM     20  C   UNL     1      -4.483  15.783  23.552  0.00  0.00    +0.000 C 
ENDBRANCH  13  20
ENDBRANCH   7  16
ENDBRANCH   1  10
BRANCH   5  21
ATOM     21  C   UNL     1       2.721   6.040  19.617  0.00  0.00    +0.000 A 
ATOM     22  C   UNL     1       2.221   5.036  20.447  0.00  0.00    +0.000 A 
ATOM     23  C   UNL     1       2.743   3.760  20.353  0.00  0.00    +0.000 A 
ATOM     24  C   UNL     1       3.757   3.528  19.439  0.00  0.00    +0.000 A 
ATOM     25  C   UNL     1       4.249   4.563  18.640  0.00  0.00    +0.000 A 
ATOM     26  N   UNL     1       3.740   5.812  18.747  0.00  0.00    +0.000 NA
BRANCH  25  27
ATOM     27  N   UNL     1       5.248   4.318  17.732  0.00  0.00    +0.000 N 
ATOM     28  C   UNL     1       6.637   4.664  17.963  0.00  0.00    +0.000 C 
ATOM     29  C   UNL     1       7.101   5.112  16.580  0.00  0.00    +0.000 C 
ATOM     30  C   UNL     1       6.323   4.207  15.633  0.00  0.00    +0.000 C 
ATOM     31  C   UNL     1       5.003   3.942  16.349  0.00  0.00    +0.000 C 
ENDBRANCH  25  27
ENDBRANCH   5  21
TORSDOF 5
ENDMDL
MODEL 9
REMARK VINA RESULT:      -7.7      3.898     11.009
REMARK  Name = 
REMARK  5 active torsions:
REMARK  status: ('A' for Active; 'I' for Inactive)
REMARK    1  A    between atoms: C_2  and  C_3
REMARK    2  A    between atoms: C_6  and  N_7
REMARK    3  A    between atoms: N_10  and  C_11
REMARK    4  A    between atoms: C_15  and  C_16
REMARK    5  A    between atoms: C_20  and  N_21
REMARK                            x       y       z     vdW  Elec       q    Type
REMARK                         _______ _______ _______ _____ _____    ______ ____
ROOT
ATOM      1  C   UNL     1       0.282   9.647  20.530  0.00  0.00    +0.000 A 
ATOM      2  C   UNL     1       0.555  10.675  21.441  0.00  0.00    +0.000 A 
ATOM      3  C   UNL     1      -0.090  11.905  21.326  0.00  0.00    +0.000 A 
ATOM      4  C   UNL     1      -1.041  12.098  20.327  0.00  0.00    +0.000 A 
ATOM      5  C   UNL     1      -1.385  11.066  19.432  0.00  0.00    +0.000 A 
ATOM      6  C   UNL     1      -0.677   9.848  19.528  0.00  0.00    +0.000 A 
ENDROOT
BRANCH   1  10
ATOM      7  N   UNL     1       2.534   6.851  19.848  0.00  0.00    +0.000 N 
ATOM      8  C   UNL     1       1.922   8.087  19.649  0.00  0.00    +0.000 C 
ATOM      9  O   UNL     1       2.167   8.840  18.708  0.00  0.00    +0.000 OA
ATOM     10  N   UNL     1       0.977   8.407  20.618  0.00  0.00    +0.000 N 
ATOM     11  H   UNL     1       2.127   6.232  20.532  0.00  0.00    +0.000 HD
ATOM     12  H   UNL     1       1.187   8.083  21.553  0.00  0.00    +0.000 HD
BRANCH   7  16
ATOM     13  C   UNL     1       5.653   5.314  17.389  0.00  0.00    +0.000 A 
ATOM     14  C   UNL     1       4.771   6.260  16.884  0.00  0.00    +0.000 A 
ATOM     15  C   UNL     1       3.746   6.769  17.693  0.00  0.00    +0.000 A 
ATOM     16  C   UNL     1       3.571   6.332  19.016  0.00  0.00    +0.000 A 
ATOM     17  C   UNL     1       4.462   5.380  19.520  0.00  0.00    +0.000 A 
ATOM     18  C   UNL     1       5.497   4.860  18.697  0.00  0.00    +0.000 A 
BRANCH  13  20
ATOM     19  N   UNL     1       7.573   4.409  15.885  0.00  0.00    +0.000 NA
ATOM     20  C   UNL     1       6.722   4.810  16.561  0.00  0.00    +0.000 C 
ENDBRANCH  13  20
ENDBRANCH   7  16
ENDBRANCH   1  10
BRANCH   5  21
ATOM     21  C   UNL     1      -2.463  11.271  18.442  0.00  0.00    +0.000 A 
ATOM     22  C   UNL     1      -2.299  10.889  17.109  0.00  0.00    +0.000 A 
ATOM     23  C   UNL     1      -3.359  11.023  16.234  0.00  0.00    +0.000 A 
ATOM     24  C   UNL     1      -4.549  11.544  16.713  0.00  0.00    +0.000 A 
ATOM     25  C   UNL     1      -4.671  11.937  18.048  0.00  0.00    +0.000 A 
ATOM     26  N   UNL     1      -3.624  11.813  18.896  0.00  0.00    +0.000 NA
BRANCH  25  27
ATOM     27  N   UNL     1      -5.858  12.442  18.514  0.00  0.00    +0.000 N 
ATOM     28  C   UNL     1      -7.139  12.171  17.889  0.00  0.00    +0.000 C 
ATOM     29  C   UNL     1      -7.869  13.501  18.040  0.00  0.00    +0.000 C 
ATOM     30  C   UNL     1      -7.375  14.030  19.381  0.00  0.00    +0.000 C 
ATOM     31  C   UNL     1      -5.948  13.506  19.500  0.00  0.00    +0.000 C 
ENDBRANCH  25  27
ENDBRANCH   5  21
TORSDOF 5
ENDMDL
