MODEL 1
REMARK VINA RESULT:      -8.3      0.000      0.000
REMARK  Name = 
REMARK  3 active torsions:
REMARK  status: ('A' for Active; 'I' for Inactive)
REMARK    1  A    between atoms: C_2  and  C_4
REMARK    2  A    between atoms: C_7  and  N_8
REMARK    3  A    between atoms: C_12  and  C_13
REMARK                            x       y       z     vdW  Elec       q    Type
REMARK                         _______ _______ _______ _____ _____    ______ ____
ROOT
ATOM      1  N   UNL     1       5.985   7.095  16.612  0.00  0.00    +0.000 N 
ATOM      2  C   UNL     1       7.011   7.475  17.397  0.00  0.00    +0.000 A 
ATOM      3  N   UNL     1       7.702   6.841  18.322  0.00  0.00    +0.000 NA
ATOM      4  N   UNL     1       8.570   7.748  18.874  0.00  0.00    +0.000 NA
ATOM      5  C   UNL     1       8.355   8.888  18.249  0.00  0.00    +0.000 A 
ATOM      6  O   UNL     1       7.396   8.785  17.274  0.00  0.00    +0.000 OA
ATOM      7  H   UNL     1       5.591   7.810  16.016  0.00  0.00    +0.000 HD
ENDROOT
BRANCH   5   8
ATOM      8  C   UNL     1       8.943  10.195  18.496  0.00  0.00    +0.000 A 
ATOM      9  C   UNL     1       9.777  10.369  19.615  0.00  0.00    +0.000 A 
ATOM     10  C   UNL     1      10.325  11.619  19.913  0.00  0.00    +0.000 A 
ATOM     11  C   UNL     1      10.043  12.708  19.093  0.00  0.00    +0.000 A 
ATOM     12 CL   UNL     1      10.699  14.253  19.467  0.00  0.00    +0.000 Cl
ATOM     13  C   UNL     1       9.227  12.553  17.973  0.00  0.00    +0.000 A 
ATOM     14  C   UNL     1       8.678  11.301  17.675  0.00  0.00    +0.000 A 
ENDBRANCH   5   8
BRANCH   1  18
ATOM     15  C   UNL     1       3.456   3.786  17.414  0.00  0.00    +0.000 A 
ATOM     16  C   UNL     1       3.183   5.050  17.945  0.00  0.00    +0.000 A 
ATOM     17  C   UNL     1       4.013   6.140  17.648  0.00  0.00    +0.000 A 
ATOM     18  C   UNL     1       5.145   5.986  16.832  0.00  0.00    +0.000 A 
ATOM     19  C   UNL     1       5.389   4.717  16.291  0.00  0.00    +0.000 A 
ATOM     20  C   UNL     1       4.567   3.623  16.586  0.00  0.00    +0.000 A 
BRANCH  15  22
ATOM     21  N   UNL     1       3.153   1.449  18.042  0.00  0.00    +0.000 N 
ATOM     22  C   UNL     1       2.568   2.653  17.767  0.00  0.00    +0.000 C 
ATOM     23  O   UNL     1       1.348   2.773  17.782  0.00  0.00    +0.000 OA
ATOM     24  H   UNL     1       2.531   0.665  18.195  0.00  0.00    +0.000 HD
ATOM     25  H   UNL     1       4.121   1.246  17.842  0.00  0.00    +0.000 HD
ENDBRANCH  15  22
ENDBRANCH   1  18
TORSDOF 3
ENDMDL
MODEL 2
REMARK VINA RESULT:      -8.3      0.105      1.035
REMARK  Name = 
REMARK  3 active torsions:
REMARK  status: ('A' for Active; 'I' for Inactive)
REMARK    1  A    between atoms: C_2  and  C_4
REMARK    2  A    between atoms: C_7  and  N_8
REMARK    3  A    between atoms: C_12  and  C_13
REMARK                            x       y       z     vdW  Elec       q    Type
REMARK                         _______ _______ _______ _____ _____    ______ ____
ROOT
ATOM      1  N   UNL     1       5.978   7.092  16.658  0.00  0.00    +0.000 N 
ATOM      2  C   UNL     1       7.013   7.467  17.432  0.00  0.00    +0.000 A 
ATOM      3  N   UNL     1       7.724   6.823  18.335  0.00  0.00    +0.000 NA
ATOM      4  N   UNL     1       8.593   7.728  18.888  0.00  0.00    +0.000 NA
ATOM      5  C   UNL     1       8.360   8.877  18.286  0.00  0.00    +0.000 A 
ATOM      6  O   UNL     1       7.386   8.782  17.325  0.00  0.00    +0.000 OA
ATOM      7  H   UNL     1       5.568   7.814  16.080  0.00  0.00    +0.000 HD
ENDROOT
BRANCH   5   8
ATOM      8  C   UNL     1       8.941  10.184  18.546  0.00  0.00    +0.000 A 
ATOM      9  C   UNL     1       8.687  11.236  17.649  0.00  0.00    +0.000 A 
ATOM     10  C   UNL     1       9.262  12.495  17.838  0.00  0.00    +0.000 A 
ATOM     11  C   UNL     1      10.098  12.713  18.930  0.00  0.00    +0.000 A 
ATOM     12 CL   UNL     1      10.825  14.255  19.156  0.00  0.00    +0.000 Cl
ATOM     13  C   UNL     1      10.354  11.685  19.836  0.00  0.00    +0.000 A 
ATOM     14  C   UNL     1       9.778  10.425  19.646  0.00  0.00    +0.000 A 
ENDBRANCH   5   8
BRANCH   1  18
ATOM     15  C   UNL     1       3.489   3.749  17.444  0.00  0.00    +0.000 A 
ATOM     16  C   UNL     1       3.221   4.999  18.009  0.00  0.00    +0.000 A 
ATOM     17  C   UNL     1       4.036   6.101  17.717  0.00  0.00    +0.000 A 
ATOM     18  C   UNL     1       5.150   5.973  16.872  0.00  0.00    +0.000 A 
ATOM     19  C   UNL     1       5.389   4.718  16.298  0.00  0.00    +0.000 A 
ATOM     20  C   UNL     1       4.582   3.612  16.586  0.00  0.00    +0.000 A 
BRANCH  15  22
ATOM     21  N   UNL     1       3.221   1.414  18.094  0.00  0.00    +0.000 N 
ATOM     22  C   UNL     1       2.617   2.602  17.791  0.00  0.00    +0.000 C 
ATOM     23  O   UNL     1       1.395   2.697  17.780  0.00  0.00    +0.000 OA
ATOM     24  H   UNL     1       2.611   0.619  18.243  0.00  0.00    +0.000 HD
ATOM     25  H   UNL     1       4.197   1.228  17.916  0.00  0.00    +0.000 HD
ENDBRANCH  15  22
ENDBRANCH   1  18
TORSDOF 3
ENDMDL
MODEL 3
REMARK VINA RESULT:      -8.0      0.598      1.172
REMARK  Name = 
REMARK  3 active torsions:
REMARK  status: ('A' for Active; 'I' for Inactive)
REMARK    1  A    between atoms: C_2  and  C_4
REMARK    2  A    between atoms: C_7  and  N_8
REMARK    3  A    between atoms: C_12  and  C_13
REMARK                            x       y       z     vdW  Elec       q    Type
REMARK                         _______ _______ _______ _____ _____    ______ ____
ROOT
ATOM      1  N   UNL     1       6.281   7.157  16.763  0.00  0.00    +0.000 N 
ATOM      2  C   UNL     1       7.280   7.677  17.501  0.00  0.00    +0.000 A 
ATOM      3  N   UNL     1       8.038   7.168  18.450  0.00  0.00    +0.000 NA
ATOM      4  N   UNL     1       8.828   8.183  18.926  0.00  0.00    +0.000 NA
ATOM      5  C   UNL     1       8.502   9.257  18.236  0.00  0.00    +0.000 A 
ATOM      6  O   UNL     1       7.542   9.005  17.289  0.00  0.00    +0.000 OA
ATOM      7  H   UNL     1       5.816   7.794  16.131  0.00  0.00    +0.000 HD
ENDROOT
BRANCH   5   8
ATOM      8  C   UNL     1       8.972  10.625  18.390  0.00  0.00    +0.000 A 
ATOM      9  C   UNL     1       9.969  10.902  19.341  0.00  0.00    +0.000 A 
ATOM     10  C   UNL     1      10.416  12.209  19.551  0.00  0.00    +0.000 A 
ATOM     11  C   UNL     1       9.868  13.252  18.809  0.00  0.00    +0.000 A 
ATOM     12 CL   UNL     1      10.401  14.864  19.077  0.00  0.00    +0.000 Cl
ATOM     13  C   UNL     1       8.886  12.995  17.853  0.00  0.00    +0.000 A 
ATOM     14  C   UNL     1       8.438  11.686  17.644  0.00  0.00    +0.000 A 
ENDBRANCH   5   8
BRANCH   1  18
ATOM     15  C   UNL     1       4.046   3.639  17.542  0.00  0.00    +0.000 A 
ATOM     16  C   UNL     1       4.996   3.679  16.518  0.00  0.00    +0.000 A 
ATOM     17  C   UNL     1       5.747   4.840  16.291  0.00  0.00    +0.000 A 
ATOM     18  C   UNL     1       5.549   5.993  17.068  0.00  0.00    +0.000 A 
ATOM     19  C   UNL     1       4.608   5.926  18.103  0.00  0.00    +0.000 A 
ATOM     20  C   UNL     1       3.852   4.771  18.334  0.00  0.00    +0.000 A 
BRANCH  15  22
ATOM     21  N   UNL     1       3.893   1.322  18.288  0.00  0.00    +0.000 N 
ATOM     22  C   UNL     1       3.256   2.400  17.739  0.00  0.00    +0.000 C 
ATOM     23  O   UNL     1       2.082   2.323  17.396  0.00  0.00    +0.000 OA
ATOM     24  H   UNL     1       3.366   0.458  18.335  0.00  0.00    +0.000 HD
ATOM     25  H   UNL     1       4.895   1.265  18.392  0.00  0.00    +0.000 HD
ENDBRANCH  15  22
ENDBRANCH   1  18
TORSDOF 3
ENDMDL
MODEL 4
REMARK VINA RESULT:      -7.8      0.616      1.510
REMARK  Name = 
REMARK  3 active torsions:
REMARK  status: ('A' for Active; 'I' for Inactive)
REMARK    1  A    between atoms: C_2  and  C_4
REMARK    2  A    between atoms: C_7  and  N_8
REMARK    3  A    between atoms: C_12  and  C_13
REMARK                            x       y       z     vdW  Elec       q    Type
REMARK                         _______ _______ _______ _____ _____    ______ ____
ROOT
ATOM      1  N   UNL     1       5.887   7.399  16.938  0.00  0.00    +0.000 N 
ATOM      2  C   UNL     1       7.005   7.648  17.646  0.00  0.00    +0.000 A 
ATOM      3  N   UNL     1       7.715   6.906  18.472  0.00  0.00    +0.000 NA
ATOM      4  N   UNL     1       8.700   7.707  18.990  0.00  0.00    +0.000 NA
ATOM      5  C   UNL     1       8.532   8.895  18.447  0.00  0.00    +0.000 A 
ATOM      6  O   UNL     1       7.488   8.927  17.557  0.00  0.00    +0.000 OA
ATOM      7  H   UNL     1       5.507   8.177  16.417  0.00  0.00    +0.000 HD
ENDROOT
BRANCH   5   8
ATOM      8  C   UNL     1       9.248  10.134  18.709  0.00  0.00    +0.000 A 
ATOM      9  C   UNL     1       9.719  10.893  17.624  0.00  0.00    +0.000 A 
ATOM     10  C   UNL     1      10.450  12.065  17.832  0.00  0.00    +0.000 A 
ATOM     11  C   UNL     1      10.715  12.489  19.131  0.00  0.00    +0.000 A 
ATOM     12 CL   UNL     1      11.632  13.921  19.394  0.00  0.00    +0.000 Cl
ATOM     13  C   UNL     1      10.247  11.756  20.220  0.00  0.00    +0.000 A 
ATOM     14  C   UNL     1       9.515  10.582  20.011  0.00  0.00    +0.000 A 
ENDBRANCH   5   8
BRANCH   1  18
ATOM     15  C   UNL     1       3.158   4.204  17.509  0.00  0.00    +0.000 A 
ATOM     16  C   UNL     1       4.361   4.013  16.824  0.00  0.00    +0.000 A 
ATOM     17  C   UNL     1       5.266   5.072  16.668  0.00  0.00    +0.000 A 
ATOM     18  C   UNL     1       4.977   6.350  17.173  0.00  0.00    +0.000 A 
ATOM     19  C   UNL     1       3.777   6.516  17.876  0.00  0.00    +0.000 A 
ATOM     20  C   UNL     1       2.867   5.464  18.033  0.00  0.00    +0.000 A 
BRANCH  15  22
ATOM     21  N   UNL     1       2.733   1.802  17.554  0.00  0.00    +0.000 N 
ATOM     22  C   UNL     1       2.217   3.066  17.636  0.00  0.00    +0.000 C 
ATOM     23  O   UNL     1       1.012   3.240  17.779  0.00  0.00    +0.000 OA
ATOM     24  H   UNL     1       2.068   1.038  17.554  0.00  0.00    +0.000 HD
ATOM     25  H   UNL     1       3.670   1.608  17.233  0.00  0.00    +0.000 HD
ENDBRANCH  15  22
ENDBRANCH   1  18
TORSDOF 3
ENDMDL
MODEL 5
REMARK VINA RESULT:      -7.7      5.517      7.085
REMARK  Name = 
REMARK  3 active torsions:
REMARK  status: ('A' for Active; 'I' for Inactive)
REMARK    1  A    between atoms: C_2  and  C_4
REMARK    2  A    between atoms: C_7  and  N_8
REMARK    3  A    between atoms: C_12  and  C_13
REMARK                            x       y       z     vdW  Elec       q    Type
REMARK                         _______ _______ _______ _____ _____    ______ ____
ROOT
ATOM      1  N   UNL     1       2.885   6.619  18.698  0.00  0.00    +0.000 N 
ATOM      2  C   UNL     1       2.212   7.777  18.554  0.00  0.00    +0.000 A 
ATOM      3  N   UNL     1       1.977   8.541  17.507  0.00  0.00    +0.000 NA
ATOM      4  N   UNL     1       1.322   9.658  17.959  0.00  0.00    +0.000 NA
ATOM      5  C   UNL     1       1.197   9.508  19.262  0.00  0.00    +0.000 A 
ATOM      6  O   UNL     1       1.714   8.319  19.710  0.00  0.00    +0.000 OA
ATOM      7  H   UNL     1       2.967   6.266  19.641  0.00  0.00    +0.000 HD
ENDROOT
BRANCH   5   8
ATOM      8  C   UNL     1       0.654  10.433  20.245  0.00  0.00    +0.000 A 
ATOM      9  C   UNL     1      -0.077   9.924  21.332  0.00  0.00    +0.000 A 
ATOM     10  C   UNL     1      -0.653  10.780  22.273  0.00  0.00    +0.000 A 
ATOM     11  C   UNL     1      -0.501  12.157  22.134  0.00  0.00    +0.000 A 
ATOM     12 CL   UNL     1      -1.225  13.217  23.279  0.00  0.00    +0.000 Cl
ATOM     13  C   UNL     1       0.229  12.681  21.069  0.00  0.00    +0.000 A 
ATOM     14  C   UNL     1       0.806  11.822  20.126  0.00  0.00    +0.000 A 
ENDBRANCH   5   8
BRANCH   1  18
ATOM     15  C   UNL     1       5.695   5.149  15.883  0.00  0.00    +0.000 A 
ATOM     16  C   UNL     1       5.765   6.462  16.355  0.00  0.00    +0.000 A 
ATOM     17  C   UNL     1       4.846   6.925  17.307  0.00  0.00    +0.000 A 
ATOM     18  C   UNL     1       3.824   6.092  17.790  0.00  0.00    +0.000 A 
ATOM     19  C   UNL     1       3.784   4.773  17.321  0.00  0.00    +0.000 A 
ATOM     20  C   UNL     1       4.696   4.305  16.369  0.00  0.00    +0.000 A 
BRANCH  15  22
ATOM     21  N   UNL     1       6.349   3.605  14.111  0.00  0.00    +0.000 N 
ATOM     22  C   UNL     1       6.672   4.701  14.861  0.00  0.00    +0.000 C 
ATOM     23  O   UNL     1       7.748   5.268  14.709  0.00  0.00    +0.000 OA
ATOM     24  H   UNL     1       7.062   3.259  13.481  0.00  0.00    +0.000 HD
ATOM     25  H   UNL     1       5.584   2.987  14.336  0.00  0.00    +0.000 HD
ENDBRANCH  15  22
ENDBRANCH   1  18
TORSDOF 3
ENDMDL
MODEL 6
REMARK VINA RESULT:      -7.7      0.853      1.589
REMARK  Name = 
REMARK  3 active torsions:
REMARK  status: ('A' for Active; 'I' for Inactive)
REMARK    1  A    between atoms: C_2  and  C_4
REMARK    2  A    between atoms: C_7  and  N_8
REMARK    3  A    between atoms: C_12  and  C_13
REMARK                            x       y       z     vdW  Elec       q    Type
REMARK                         _______ _______ _______ _____ _____    ______ ____
ROOT
ATOM      1  N   UNL     1       6.618   7.066  16.719  0.00  0.00    +0.000 N 
ATOM      2  C   UNL     1       7.511   7.660  17.534  0.00  0.00    +0.000 A 
ATOM      3  N   UNL     1       8.142   7.242  18.612  0.00  0.00    +0.000 NA
ATOM      4  N   UNL     1       8.860   8.304  19.099  0.00  0.00    +0.000 NA
ATOM      5  C   UNL     1       8.621   9.312  18.285  0.00  0.00    +0.000 A 
ATOM      6  O   UNL     1       7.793   8.970  17.247  0.00  0.00    +0.000 OA
ATOM      7  H   UNL     1       6.236   7.642  15.982  0.00  0.00    +0.000 HD
ENDROOT
BRANCH   5   8
ATOM      8  C   UNL     1       9.062  10.695  18.383  0.00  0.00    +0.000 A 
ATOM      9  C   UNL     1       8.367  11.686  17.670  0.00  0.00    +0.000 A 
ATOM     10  C   UNL     1       8.784  13.019  17.701  0.00  0.00    +0.000 A 
ATOM     11  C   UNL     1       9.904  13.372  18.449  0.00  0.00    +0.000 A 
ATOM     12 CL   UNL     1      10.435  15.007  18.475  0.00  0.00    +0.000 Cl
ATOM     13  C   UNL     1      10.601  12.405  19.172  0.00  0.00    +0.000 A 
ATOM     14  C   UNL     1      10.182  11.070  19.140  0.00  0.00    +0.000 A 
ENDBRANCH   5   8
BRANCH   1  18
ATOM     15  C   UNL     1       4.244   3.645  17.521  0.00  0.00    +0.000 A 
ATOM     16  C   UNL     1       4.736   3.899  16.238  0.00  0.00    +0.000 A 
ATOM     17  C   UNL     1       5.543   5.018  15.995  0.00  0.00    +0.000 A 
ATOM     18  C   UNL     1       5.857   5.921  17.023  0.00  0.00    +0.000 A 
ATOM     19  C   UNL     1       5.373   5.638  18.307  0.00  0.00    +0.000 A 
ATOM     20  C   UNL     1       4.565   4.523  18.557  0.00  0.00    +0.000 A 
BRANCH  15  22
ATOM     21  N   UNL     1       3.941   1.358  18.314  0.00  0.00    +0.000 N 
ATOM     22  C   UNL     1       3.378   2.462  17.736  0.00  0.00    +0.000 C 
ATOM     23  O   UNL     1       2.204   2.451  17.382  0.00  0.00    +0.000 OA
ATOM     24  H   UNL     1       3.361   0.530  18.374  0.00  0.00    +0.000 HD
ATOM     25  H   UNL     1       4.936   1.242  18.430  0.00  0.00    +0.000 HD
ENDBRANCH  15  22
ENDBRANCH   1  18
TORSDOF 3
ENDMDL
MODEL 7
REMARK VINA RESULT:      -7.6      5.545      7.160
REMARK  Name = 
REMARK  3 active torsions:
REMARK  status: ('A' for Active; 'I' for Inactive)
REMARK    1  A    between atoms: C_2  and  C_4
REMARK    2  A    between atoms: C_7  and  N_8
REMARK    3  A    between atoms: C_12  and  C_13
REMARK                            x       y       z     vdW  Elec       q    Type
REMARK                         _______ _______ _______ _____ _____    ______ ____
ROOT
ATOM      1  N   UNL     1       2.833   6.635  18.822  0.00  0.00    +0.000 N 
ATOM      2  C   UNL     1       2.114   7.762  18.659  0.00  0.00    +0.000 A 
ATOM      3  N   UNL     1       1.830   8.486  17.596  0.00  0.00    +0.000 NA
ATOM      4  N   UNL     1       1.143   9.590  18.029  0.00  0.00    +0.000 NA
ATOM      5  C   UNL     1       1.049   9.475  19.338  0.00  0.00    +0.000 A 
ATOM      6  O   UNL     1       1.620   8.320  19.809  0.00  0.00    +0.000 OA
ATOM      7  H   UNL     1       2.947   6.313  19.774  0.00  0.00    +0.000 HD
ENDROOT
BRANCH   5   8
ATOM      8  C   UNL     1       0.493  10.408  20.305  0.00  0.00    +0.000 A 
ATOM      9  C   UNL     1       0.680  11.788  20.109  0.00  0.00    +0.000 A 
ATOM     10  C   UNL     1       0.200  12.715  21.037  0.00  0.00    +0.000 A 
ATOM     11  C   UNL     1      -0.473  12.270  22.171  0.00  0.00    +0.000 A 
ATOM     12 CL   UNL     1      -1.048  13.406  23.326  0.00  0.00    +0.000 Cl
ATOM     13  C   UNL     1      -0.678  10.906  22.377  0.00  0.00    +0.000 A 
ATOM     14  C   UNL     1      -0.197   9.978  21.448  0.00  0.00    +0.000 A 
ENDBRANCH   5   8
BRANCH   1  18
ATOM     15  C   UNL     1       5.641   5.187  15.994  0.00  0.00    +0.000 A 
ATOM     16  C   UNL     1       5.687   6.509  16.447  0.00  0.00    +0.000 A 
ATOM     17  C   UNL     1       4.770   6.964  17.404  0.00  0.00    +0.000 A 
ATOM     18  C   UNL     1       3.772   6.116  17.910  0.00  0.00    +0.000 A 
ATOM     19  C   UNL     1       3.756   4.790  17.460  0.00  0.00    +0.000 A 
ATOM     20  C   UNL     1       4.667   4.328  16.504  0.00  0.00    +0.000 A 
BRANCH  15  22
ATOM     21  N   UNL     1       6.319   3.620  14.252  0.00  0.00    +0.000 N 
ATOM     22  C   UNL     1       6.615   4.747  14.967  0.00  0.00    +0.000 C 
ATOM     23  O   UNL     1       7.667   5.347  14.779  0.00  0.00    +0.000 OA
ATOM     24  H   UNL     1       7.033   3.283  13.618  0.00  0.00    +0.000 HD
ATOM     25  H   UNL     1       5.580   2.981  14.507  0.00  0.00    +0.000 HD
ENDBRANCH  15  22
ENDBRANCH   1  18
TORSDOF 3
ENDMDL
MODEL 8
REMARK VINA RESULT:      -7.5      5.651      7.155
REMARK  Name = 
REMARK  3 active torsions:
REMARK  status: ('A' for Active; 'I' for Inactive)
REMARK    1  A    between atoms: C_2  and  C_4
REMARK    2  A    between atoms: C_7  and  N_8
REMARK    3  A    between atoms: C_12  and  C_13
REMARK                            x       y       z     vdW  Elec       q    Type
REMARK                         _______ _______ _______ _____ _____    ______ ____
ROOT
ATOM      1  N   UNL     1       2.717   6.765  18.763  0.00  0.00    +0.000 N 
ATOM      2  C   UNL     1       2.085   7.946  18.633  0.00  0.00    +0.000 A 
ATOM      3  N   UNL     1       1.914   8.752  17.605  0.00  0.00    +0.000 NA
ATOM      4  N   UNL     1       1.275   9.872  18.070  0.00  0.00    +0.000 NA
ATOM      5  C   UNL     1       1.094   9.683  19.361  0.00  0.00    +0.000 A 
ATOM      6  O   UNL     1       1.558   8.464  19.787  0.00  0.00    +0.000 OA
ATOM      7  H   UNL     1       2.751   6.377  19.696  0.00  0.00    +0.000 HD
ENDROOT
BRANCH   5   8
ATOM      8  C   UNL     1       0.540  10.591  20.354  0.00  0.00    +0.000 A 
ATOM      9  C   UNL     1      -0.099  10.057  21.486  0.00  0.00    +0.000 A 
ATOM     10  C   UNL     1      -0.684  10.894  22.441  0.00  0.00    +0.000 A 
ATOM     11  C   UNL     1      -0.633  12.274  22.269  0.00  0.00    +0.000 A 
ATOM     12 CL   UNL     1      -1.368  13.308  23.430  0.00  0.00    +0.000 Cl
ATOM     13  C   UNL     1       0.005  12.822  21.158  0.00  0.00    +0.000 A 
ATOM     14  C   UNL     1       0.590  11.984  20.202  0.00  0.00    +0.000 A 
ENDBRANCH   5   8
BRANCH   1  18
ATOM     15  C   UNL     1       5.617   5.070  16.174  0.00  0.00    +0.000 A 
ATOM     16  C   UNL     1       4.551   4.309  16.661  0.00  0.00    +0.000 A 
ATOM     17  C   UNL     1       3.585   4.891  17.493  0.00  0.00    +0.000 A 
ATOM     18  C   UNL     1       3.676   6.240  17.875  0.00  0.00    +0.000 A 
ATOM     19  C   UNL     1       4.740   6.991  17.359  0.00  0.00    +0.000 A 
ATOM     20  C   UNL     1       5.710   6.416  16.530  0.00  0.00    +0.000 A 
BRANCH  15  22
ATOM     21  N   UNL     1       6.187   3.530  14.370  0.00  0.00    +0.000 N 
ATOM     22  C   UNL     1       6.631   4.415  15.313  0.00  0.00    +0.000 C 
ATOM     23  O   UNL     1       7.830   4.628  15.454  0.00  0.00    +0.000 OA
ATOM     24  H   UNL     1       6.895   3.026  13.851  0.00  0.00    +0.000 HD
ATOM     25  H   UNL     1       5.246   3.167  14.353  0.00  0.00    +0.000 HD
ENDBRANCH  15  22
ENDBRANCH   1  18
TORSDOF 3
ENDMDL
MODEL 9
REMARK VINA RESULT:      -7.4      5.934      7.744
REMARK  Name = 
REMARK  3 active torsions:
REMARK  status: ('A' for Active; 'I' for Inactive)
REMARK    1  A    between atoms: C_2  and  C_4
REMARK    2  A    between atoms: C_7  and  N_8
REMARK    3  A    between atoms: C_12  and  C_13
REMARK                            x       y       z     vdW  Elec       q    Type
REMARK                         _______ _______ _______ _____ _____    ______ ____
ROOT
ATOM      1  N   UNL     1       2.639   6.577  19.467  0.00  0.00    +0.000 N 
ATOM      2  C   UNL     1       2.017   7.762  19.320  0.00  0.00    +0.000 A 
ATOM      3  N   UNL     1       2.089   8.691  18.389  0.00  0.00    +0.000 NA
ATOM      4  N   UNL     1       1.308   9.740  18.802  0.00  0.00    +0.000 NA
ATOM      5  C   UNL     1       0.805   9.386  19.967  0.00  0.00    +0.000 A 
ATOM      6  O   UNL     1       1.189   8.126  20.349  0.00  0.00    +0.000 OA
ATOM      7  H   UNL     1       2.445   6.074  20.322  0.00  0.00    +0.000 HD
ENDROOT
BRANCH   5   8
ATOM      8  C   UNL     1      -0.023  10.158  20.881  0.00  0.00    +0.000 A 
ATOM      9  C   UNL     1      -0.632  11.338  20.422  0.00  0.00    +0.000 A 
ATOM     10  C   UNL     1      -1.397  12.131  21.280  0.00  0.00    +0.000 A 
ATOM     11  C   UNL     1      -1.561  11.749  22.608  0.00  0.00    +0.000 A 
ATOM     12 CL   UNL     1      -2.486  12.732  23.674  0.00  0.00    +0.000 Cl
ATOM     13  C   UNL     1      -0.974  10.575  23.080  0.00  0.00    +0.000 A 
ATOM     14  C   UNL     1      -0.207   9.782  22.220  0.00  0.00    +0.000 A 
ENDBRANCH   5   8
BRANCH   1  18
ATOM     15  C   UNL     1       6.102   5.340  17.354  0.00  0.00    +0.000 A 
ATOM     16  C   UNL     1       5.204   6.254  16.797  0.00  0.00    +0.000 A 
ATOM     17  C   UNL     1       4.079   6.675  17.519  0.00  0.00    +0.000 A 
ATOM     18  C   UNL     1       3.815   6.174  18.804  0.00  0.00    +0.000 A 
ATOM     19  C   UNL     1       4.739   5.276  19.354  0.00  0.00    +0.000 A 
ATOM     20  C   UNL     1       5.863   4.850  18.638  0.00  0.00    +0.000 A 
BRANCH  15  22
ATOM     21  N   UNL     1       7.334   5.311  15.249  0.00  0.00    +0.000 N 
ATOM     22  C   UNL     1       7.270   4.903  16.553  0.00  0.00    +0.000 C 
ATOM     23  O   UNL     1       8.137   4.176  17.023  0.00  0.00    +0.000 OA
ATOM     24  H   UNL     1       8.090   4.933  14.691  0.00  0.00    +0.000 HD
ATOM     25  H   UNL     1       6.556   5.729  14.762  0.00  0.00    +0.000 HD
ENDBRANCH  15  22
ENDBRANCH   1  18
TORSDOF 3
ENDMDL
