MODEL 1
REMARK VINA RESULT:      -8.0      0.000      0.000
REMARK  Name = 
REMARK  9 active torsions:
REMARK  status: ('A' for Active; 'I' for Inactive)
REMARK    1  A    between atoms: C_1  and  N_2
REMARK    2  A    between atoms: C_3  and  O_5
REMARK    3  A    between atoms: O_5  and  C_6
REMARK    4  A    between atoms: C_9  and  C_10
REMARK    5  A    between atoms: C_9  and  C_22
REMARK    6  A    between atoms: C_10  and  N_11
REMARK    7  A    between atoms: C_12  and  C_14
REMARK    8  A    between atoms: C_19  and  O_20
REMARK    9  A    between atoms: O_20  and  C_21
REMARK                            x       y       z     vdW  Elec       q    Type
REMARK                         _______ _______ _______ _____ _____    ______ ____
ROOT
ATOM      1  C   UNL     1       6.737   7.173  17.217  0.00  0.00    +0.000 C 
ATOM      2  C   UNL     1       5.636   7.111  16.163  0.00  0.00    +0.000 C 
ATOM      3  C   UNL     1       4.919   5.764  16.167  0.00  0.00    +0.000 C 
ATOM      4  C   UNL     1       5.848   4.523  15.996  0.00  0.00    +0.000 C 
ATOM      5  C   UNL     1       6.998   4.642  17.045  0.00  0.00    +0.000 C 
ATOM      6  C   UNL     1       7.707   6.003  17.080  0.00  0.00    +0.000 C 
ENDROOT
BRANCH   4   7
ATOM      7  C   UNL     1       6.358   4.442  14.523  0.00  0.00    +0.000 A 
ATOM      8  C   UNL     1       7.427   5.212  14.030  0.00  0.00    +0.000 A 
ATOM      9  C   UNL     1       7.819   5.167  12.685  0.00  0.00    +0.000 A 
ATOM     10  C   UNL     1       7.179   4.310  11.799  0.00  0.00    +0.000 A 
ATOM     11  C   UNL     1       6.153   3.496  12.263  0.00  0.00    +0.000 A 
ATOM     12  C   UNL     1       5.745   3.565  13.602  0.00  0.00    +0.000 A 
ENDBRANCH   4   7
BRANCH   1  13
ATOM     13  O   UNL     1       7.479   8.397  17.026  0.00  0.00    +0.000 OA
BRANCH  13  16
ATOM     14  C   UNL     1       9.294  10.860  18.898  0.00  0.00    +0.000 C 
ATOM     15  N   UNL     1       8.491  10.150  17.941  0.00  0.00    +0.000 N 
ATOM     16  C   UNL     1       8.250   8.815  18.056  0.00  0.00    +0.000 C 
ATOM     17  O   UNL     1       8.680   8.109  18.960  0.00  0.00    +0.000 OA
ATOM     18  H   UNL     1       8.101  10.616  17.133  0.00  0.00    +0.000 HD
ENDBRANCH  13  16
ENDBRANCH   1  13
BRANCH   4  19
ATOM     19  C   UNL     1       5.040   3.194  16.295  0.00  0.00    +0.000 C 
BRANCH  19  20
ATOM     20  N   UNL     1       4.453   3.056  17.634  0.00  0.00    +0.000 N 
ATOM     21  C   UNL     1       3.083   3.143  17.864  0.00  0.00    +0.000 C 
ATOM     22  O   UNL     1       2.306   3.462  16.979  0.00  0.00    +0.000 OA
ATOM     23  H   UNL     1       5.048   2.703  18.370  0.00  0.00    +0.000 HD
BRANCH  21  24
ATOM     24  C   UNL     1       2.616   2.897  19.272  0.00  0.00    +0.000 A 
ATOM     25  C   UNL     1       1.264   3.219  19.538  0.00  0.00    +0.000 A 
ATOM     26  C   UNL     1       0.695   3.037  20.801  0.00  0.00    +0.000 A 
ATOM     27  C   UNL     1       1.453   2.492  21.825  0.00  0.00    +0.000 A 
ATOM     28  C   UNL     1       2.782   2.156  21.580  0.00  0.00    +0.000 A 
ATOM     29  C   UNL     1       3.389   2.358  20.319  0.00  0.00    +0.000 A 
BRANCH  29  30
ATOM     30  O   UNL     1       4.722   2.066  20.402  0.00  0.00    +0.000 OA
ATOM     31  C   UNL     1       5.198   1.146  21.365  0.00  0.00    +0.000 C 
ENDBRANCH  29  30
ENDBRANCH  21  24
ENDBRANCH  19  20
ENDBRANCH   4  19
TORSDOF 7
ENDMDL
MODEL 2
REMARK VINA RESULT:      -8.0      5.193      7.942
REMARK  Name = 
REMARK  9 active torsions:
REMARK  status: ('A' for Active; 'I' for Inactive)
REMARK    1  A    between atoms: C_1  and  N_2
REMARK    2  A    between atoms: C_3  and  O_5
REMARK    3  A    between atoms: O_5  and  C_6
REMARK    4  A    between atoms: C_9  and  C_10
REMARK    5  A    between atoms: C_9  and  C_22
REMARK    6  A    between atoms: C_10  and  N_11
REMARK    7  A    between atoms: C_12  and  C_14
REMARK    8  A    between atoms: C_19  and  O_20
REMARK    9  A    between atoms: O_20  and  C_21
REMARK                            x       y       z     vdW  Elec       q    Type
REMARK                         _______ _______ _______ _____ _____    ______ ____
ROOT
ATOM      1  C   UNL     1       1.203   4.262  19.789  0.00  0.00    +0.000 C 
ATOM      2  C   UNL     1       2.192   5.150  20.539  0.00  0.00    +0.000 C 
ATOM      3  C   UNL     1       2.310   6.533  19.903  0.00  0.00    +0.000 C 
ATOM      4  C   UNL     1       2.684   6.532  18.389  0.00  0.00    +0.000 C 
ATOM      5  C   UNL     1       1.697   5.570  17.656  0.00  0.00    +0.000 C 
ATOM      6  C   UNL     1       1.538   4.187  18.302  0.00  0.00    +0.000 C 
ENDROOT
BRANCH   4   7
ATOM      7  C   UNL     1       4.184   6.134  18.214  0.00  0.00    +0.000 A 
ATOM      8  C   UNL     1       4.891   6.293  17.009  0.00  0.00    +0.000 A 
ATOM      9  C   UNL     1       6.218   5.864  16.862  0.00  0.00    +0.000 A 
ATOM     10  C   UNL     1       6.893   5.303  17.937  0.00  0.00    +0.000 A 
ATOM     11  C   UNL     1       6.242   5.178  19.158  0.00  0.00    +0.000 A 
ATOM     12  C   UNL     1       4.906   5.581  19.293  0.00  0.00    +0.000 A 
ENDBRANCH   4   7
BRANCH   1  13
ATOM     13  O   UNL     1       1.287   2.929  20.337  0.00  0.00    +0.000 OA
BRANCH  13  16
ATOM     14  C   UNL     1       4.723   1.901  20.302  0.00  0.00    +0.000 C 
ATOM     15  N   UNL     1       3.387   2.309  19.965  0.00  0.00    +0.000 N 
ATOM     16  C   UNL     1       2.455   2.577  20.920  0.00  0.00    +0.000 C 
ATOM     17  O   UNL     1       2.658   2.498  22.126  0.00  0.00    +0.000 OA
ATOM     18  H   UNL     1       3.088   2.385  19.002  0.00  0.00    +0.000 HD
ENDBRANCH  13  16
ENDBRANCH   1  13
BRANCH   4  19
ATOM     19  C   UNL     1       2.504   7.984  17.784  0.00  0.00    +0.000 C 
BRANCH  19  20
ATOM     20  N   UNL     1       1.320   8.742  18.208  0.00  0.00    +0.000 N 
ATOM     21  C   UNL     1       1.300  10.133  18.265  0.00  0.00    +0.000 C 
ATOM     22  O   UNL     1       2.310  10.793  18.081  0.00  0.00    +0.000 OA
ATOM     23  H   UNL     1       0.445   8.240  18.280  0.00  0.00    +0.000 HD
BRANCH  21  24
ATOM     24  C   UNL     1      -0.007  10.777  18.636  0.00  0.00    +0.000 A 
ATOM     25  C   UNL     1       0.042  11.691  19.716  0.00  0.00    +0.000 A 
ATOM     26  C   UNL     1      -1.096  12.367  20.164  0.00  0.00    +0.000 A 
ATOM     27  C   UNL     1      -2.308  12.175  19.521  0.00  0.00    +0.000 A 
ATOM     28  C   UNL     1      -2.375  11.290  18.447  0.00  0.00    +0.000 A 
ATOM     29  C   UNL     1      -1.244  10.572  17.994  0.00  0.00    +0.000 A 
BRANCH  29  30
ATOM     30  O   UNL     1      -1.624   9.687  17.024  0.00  0.00    +0.000 OA
ATOM     31  C   UNL     1      -2.816   9.892  16.291  0.00  0.00    +0.000 C 
ENDBRANCH  29  30
ENDBRANCH  21  24
ENDBRANCH  19  20
ENDBRANCH   4  19
TORSDOF 7
ENDMDL
MODEL 3
REMARK VINA RESULT:      -8.0      5.287      7.905
REMARK  Name = 
REMARK  9 active torsions:
REMARK  status: ('A' for Active; 'I' for Inactive)
REMARK    1  A    between atoms: C_1  and  N_2
REMARK    2  A    between atoms: C_3  and  O_5
REMARK    3  A    between atoms: O_5  and  C_6
REMARK    4  A    between atoms: C_9  and  C_10
REMARK    5  A    between atoms: C_9  and  C_22
REMARK    6  A    between atoms: C_10  and  N_11
REMARK    7  A    between atoms: C_12  and  C_14
REMARK    8  A    between atoms: C_19  and  O_20
REMARK    9  A    between atoms: O_20  and  C_21
REMARK                            x       y       z     vdW  Elec       q    Type
REMARK                         _______ _______ _______ _____ _____    ______ ____
ROOT
ATOM      1  C   UNL     1       1.299   4.279  19.736  0.00  0.00    +0.000 C 
ATOM      2  C   UNL     1       2.282   5.143  20.520  0.00  0.00    +0.000 C 
ATOM      3  C   UNL     1       2.388   6.551  19.942  0.00  0.00    +0.000 C 
ATOM      4  C   UNL     1       2.761   6.616  18.429  0.00  0.00    +0.000 C 
ATOM      5  C   UNL     1       1.780   5.678  17.658  0.00  0.00    +0.000 C 
ATOM      6  C   UNL     1       1.632   4.267  18.247  0.00  0.00    +0.000 C 
ENDROOT
BRANCH   4   7
ATOM      7  C   UNL     1       4.263   6.236  18.236  0.00  0.00    +0.000 A 
ATOM      8  C   UNL     1       5.012   5.527  19.194  0.00  0.00    +0.000 A 
ATOM      9  C   UNL     1       6.376   5.260  19.023  0.00  0.00    +0.000 A 
ATOM     10  C   UNL     1       7.025   5.655  17.861  0.00  0.00    +0.000 A 
ATOM     11  C   UNL     1       6.305   6.312  16.870  0.00  0.00    +0.000 A 
ATOM     12  C   UNL     1       4.947   6.603  17.058  0.00  0.00    +0.000 A 
ENDBRANCH   4   7
BRANCH   1  13
ATOM     13  O   UNL     1       1.393   2.925  20.229  0.00  0.00    +0.000 OA
BRANCH  13  16
ATOM     14  C   UNL     1       4.815   1.874  20.458  0.00  0.00    +0.000 C 
ATOM     15  N   UNL     1       3.507   2.274  20.018  0.00  0.00    +0.000 N 
ATOM     16  C   UNL     1       2.519   2.593  20.900  0.00  0.00    +0.000 C 
ATOM     17  O   UNL     1       2.645   2.570  22.118  0.00  0.00    +0.000 OA
ATOM     18  H   UNL     1       3.269   2.307  19.036  0.00  0.00    +0.000 HD
ENDBRANCH  13  16
ENDBRANCH   1  13
BRANCH   4  19
ATOM     19  C   UNL     1       2.569   8.090  17.884  0.00  0.00    +0.000 C 
BRANCH  19  20
ATOM     20  N   UNL     1       1.246   8.702  18.066  0.00  0.00    +0.000 N 
ATOM     21  C   UNL     1       1.067  10.076  18.199  0.00  0.00    +0.000 C 
ATOM     22  O   UNL     1       2.017  10.836  18.296  0.00  0.00    +0.000 OA
ATOM     23  H   UNL     1       0.436   8.120  17.901  0.00  0.00    +0.000 HD
BRANCH  21  24
ATOM     24  C   UNL     1      -0.350  10.568  18.294  0.00  0.00    +0.000 A 
ATOM     25  C   UNL     1      -1.281   9.932  17.438  0.00  0.00    +0.000 A 
ATOM     26  C   UNL     1      -2.633  10.285  17.423  0.00  0.00    +0.000 A 
ATOM     27  C   UNL     1      -3.100  11.258  18.292  0.00  0.00    +0.000 A 
ATOM     28  C   UNL     1      -2.202  11.887  19.152  0.00  0.00    +0.000 A 
ATOM     29  C   UNL     1      -0.825  11.569  19.164  0.00  0.00    +0.000 A 
BRANCH  29  30
ATOM     30  O   UNL     1      -0.165  12.424  20.003  0.00  0.00    +0.000 OA
ATOM     31  C   UNL     1      -0.298  12.300  21.406  0.00  0.00    +0.000 C 
ENDBRANCH  29  30
ENDBRANCH  21  24
ENDBRANCH  19  20
ENDBRANCH   4  19
TORSDOF 7
ENDMDL
MODEL 4
REMARK VINA RESULT:      -7.9      5.162      7.679
REMARK  Name = 
REMARK  9 active torsions:
REMARK  status: ('A' for Active; 'I' for Inactive)
REMARK    1  A    between atoms: C_1  and  N_2
REMARK    2  A    between atoms: C_3  and  O_5
REMARK    3  A    between atoms: O_5  and  C_6
REMARK    4  A    between atoms: C_9  and  C_10
REMARK    5  A    between atoms: C_9  and  C_22
REMARK    6  A    between atoms: C_10  and  N_11
REMARK    7  A    between atoms: C_12  and  C_14
REMARK    8  A    between atoms: C_19  and  O_20
REMARK    9  A    between atoms: O_20  and  C_21
REMARK                            x       y       z     vdW  Elec       q    Type
REMARK                         _______ _______ _______ _____ _____    ______ ____
ROOT
ATOM      1  C   UNL     1       1.280   4.180  19.776  0.00  0.00    +0.000 C 
ATOM      2  C   UNL     1       2.262   5.049  20.555  0.00  0.00    +0.000 C 
ATOM      3  C   UNL     1       2.326   6.471  20.003  0.00  0.00    +0.000 C 
ATOM      4  C   UNL     1       2.662   6.573  18.484  0.00  0.00    +0.000 C 
ATOM      5  C   UNL     1       1.683   5.629  17.716  0.00  0.00    +0.000 C 
ATOM      6  C   UNL     1       1.579   4.205  18.280  0.00  0.00    +0.000 C 
ENDROOT
BRANCH   4   7
ATOM      7  C   UNL     1       4.167   6.229  18.249  0.00  0.00    +0.000 A 
ATOM      8  C   UNL     1       4.852   6.525  17.056  0.00  0.00    +0.000 A 
ATOM      9  C   UNL     1       6.185   6.144  16.849  0.00  0.00    +0.000 A 
ATOM     10  C   UNL     1       6.889   5.494  17.853  0.00  0.00    +0.000 A 
ATOM     11  C   UNL     1       6.261   5.232  19.064  0.00  0.00    +0.000 A 
ATOM     12  C   UNL     1       4.919   5.589  19.257  0.00  0.00    +0.000 A 
ENDBRANCH   4   7
BRANCH   1  13
ATOM     13  O   UNL     1       1.414   2.819  20.239  0.00  0.00    +0.000 OA
BRANCH  13  16
ATOM     14  C   UNL     1       4.857   1.831  20.423  0.00  0.00    +0.000 C 
ATOM     15  N   UNL     1       3.537   2.210  20.001  0.00  0.00    +0.000 N 
ATOM     16  C   UNL     1       2.553   2.503  20.896  0.00  0.00    +0.000 C 
ATOM     17  O   UNL     1       2.693   2.473  22.112  0.00  0.00    +0.000 OA
ATOM     18  H   UNL     1       3.287   2.246  19.022  0.00  0.00    +0.000 HD
ENDBRANCH  13  16
ENDBRANCH   1  13
BRANCH   4  19
ATOM     19  C   UNL     1       2.426   8.053  17.973  0.00  0.00    +0.000 C 
BRANCH  19  20
ATOM     20  N   UNL     1       1.463   8.872  18.720  0.00  0.00    +0.000 N 
ATOM     21  C   UNL     1       1.402  10.257  18.598  0.00  0.00    +0.000 C 
ATOM     22  O   UNL     1       2.232  10.877  17.952  0.00  0.00    +0.000 OA
ATOM     23  H   UNL     1       0.707   8.391  19.189  0.00  0.00    +0.000 HD
BRANCH  21  24
ATOM     24  C   UNL     1       0.310  10.956  19.358  0.00  0.00    +0.000 A 
ATOM     25  C   UNL     1      -0.688  11.578  18.570  0.00  0.00    +0.000 A 
ATOM     26  C   UNL     1      -1.765  12.260  19.144  0.00  0.00    +0.000 A 
ATOM     27  C   UNL     1      -1.894  12.306  20.523  0.00  0.00    +0.000 A 
ATOM     28  C   UNL     1      -0.929  11.689  21.316  0.00  0.00    +0.000 A 
ATOM     29  C   UNL     1       0.185  11.019  20.760  0.00  0.00    +0.000 A 
BRANCH  29  30
ATOM     30  O   UNL     1       1.029  10.627  21.761  0.00  0.00    +0.000 OA
ATOM     31  C   UNL     1       0.962   9.315  22.285  0.00  0.00    +0.000 C 
ENDBRANCH  29  30
ENDBRANCH  21  24
ENDBRANCH  19  20
ENDBRANCH   4  19
TORSDOF 7
ENDMDL
MODEL 5
REMARK VINA RESULT:      -7.9      4.968      7.393
REMARK  Name = 
REMARK  9 active torsions:
REMARK  status: ('A' for Active; 'I' for Inactive)
REMARK    1  A    between atoms: C_1  and  N_2
REMARK    2  A    between atoms: C_3  and  O_5
REMARK    3  A    between atoms: O_5  and  C_6
REMARK    4  A    between atoms: C_9  and  C_10
REMARK    5  A    between atoms: C_9  and  C_22
REMARK    6  A    between atoms: C_10  and  N_11
REMARK    7  A    between atoms: C_12  and  C_14
REMARK    8  A    between atoms: C_19  and  O_20
REMARK    9  A    between atoms: O_20  and  C_21
REMARK                            x       y       z     vdW  Elec       q    Type
REMARK                         _______ _______ _______ _____ _____    ______ ____
ROOT
ATOM      1  C   UNL     1       5.746   5.094  17.003  0.00  0.00    +0.000 C 
ATOM      2  C   UNL     1       4.332   5.417  16.529  0.00  0.00    +0.000 C 
ATOM      3  C   UNL     1       3.614   6.365  17.486  0.00  0.00    +0.000 C 
ATOM      4  C   UNL     1       3.549   5.882  18.967  0.00  0.00    +0.000 C 
ATOM      5  C   UNL     1       4.998   5.502  19.407  0.00  0.00    +0.000 C 
ATOM      6  C   UNL     1       5.749   4.577  18.438  0.00  0.00    +0.000 C 
ENDROOT
BRANCH   4   7
ATOM      7  C   UNL     1       2.532   4.705  19.096  0.00  0.00    +0.000 A 
ATOM      8  C   UNL     1       2.113   3.920  18.006  0.00  0.00    +0.000 A 
ATOM      9  C   UNL     1       1.148   2.913  18.142  0.00  0.00    +0.000 A 
ATOM     10  C   UNL     1       0.604   2.629  19.387  0.00  0.00    +0.000 A 
ATOM     11  C   UNL     1       1.032   3.350  20.495  0.00  0.00    +0.000 A 
ATOM     12  C   UNL     1       1.977   4.375  20.351  0.00  0.00    +0.000 A 
ENDBRANCH   4   7
BRANCH   1  13
ATOM     13  O   UNL     1       6.283   4.060  16.151  0.00  0.00    +0.000 OA
BRANCH  13  16
ATOM     14  C   UNL     1       6.551   3.737  12.588  0.00  0.00    +0.000 C 
ATOM     15  N   UNL     1       6.239   3.579  13.982  0.00  0.00    +0.000 N 
ATOM     16  C   UNL     1       6.717   4.436  14.926  0.00  0.00    +0.000 C 
ATOM     17  O   UNL     1       7.437   5.397  14.687  0.00  0.00    +0.000 OA
ATOM     18  H   UNL     1       5.675   2.808  14.311  0.00  0.00    +0.000 HD
ENDBRANCH  13  16
ENDBRANCH   1  13
BRANCH   4  19
ATOM     19  C   UNL     1       3.040   7.056  19.900  0.00  0.00    +0.000 C 
BRANCH  19  20
ATOM     20  N   UNL     1       2.011   7.948  19.349  0.00  0.00    +0.000 N 
ATOM     21  C   UNL     1       1.306   8.856  20.135  0.00  0.00    +0.000 C 
ATOM     22  O   UNL     1       1.421   8.870  21.350  0.00  0.00    +0.000 OA
ATOM     23  H   UNL     1       1.953   8.029  18.343  0.00  0.00    +0.000 HD
BRANCH  21  24
ATOM     24  C   UNL     1       0.344   9.764  19.422  0.00  0.00    +0.000 A 
ATOM     25  C   UNL     1      -0.179   9.271  18.202  0.00  0.00    +0.000 A 
ATOM     26  C   UNL     1      -1.087  10.006  17.436  0.00  0.00    +0.000 A 
ATOM     27  C   UNL     1      -1.528  11.240  17.889  0.00  0.00    +0.000 A 
ATOM     28  C   UNL     1      -1.036  11.737  19.093  0.00  0.00    +0.000 A 
ATOM     29  C   UNL     1      -0.094  11.025  19.870  0.00  0.00    +0.000 A 
BRANCH  29  30
ATOM     30  O   UNL     1       0.309  11.800  20.923  0.00  0.00    +0.000 OA
ATOM     31  C   UNL     1       1.323  12.772  20.753  0.00  0.00    +0.000 C 
ENDBRANCH  29  30
ENDBRANCH  21  24
ENDBRANCH  19  20
ENDBRANCH   4  19
TORSDOF 7
ENDMDL
MODEL 6
REMARK VINA RESULT:      -7.8      4.988      7.286
REMARK  Name = 
REMARK  9 active torsions:
REMARK  status: ('A' for Active; 'I' for Inactive)
REMARK    1  A    between atoms: C_1  and  N_2
REMARK    2  A    between atoms: C_3  and  O_5
REMARK    3  A    between atoms: O_5  and  C_6
REMARK    4  A    between atoms: C_9  and  C_10
REMARK    5  A    between atoms: C_9  and  C_22
REMARK    6  A    between atoms: C_10  and  N_11
REMARK    7  A    between atoms: C_12  and  C_14
REMARK    8  A    between atoms: C_19  and  O_20
REMARK    9  A    between atoms: O_20  and  C_21
REMARK                            x       y       z     vdW  Elec       q    Type
REMARK                         _______ _______ _______ _____ _____    ______ ____
ROOT
ATOM      1  C   UNL     1       5.849   5.028  17.092  0.00  0.00    +0.000 C 
ATOM      2  C   UNL     1       4.455   5.409  16.604  0.00  0.00    +0.000 C 
ATOM      3  C   UNL     1       3.728   6.306  17.603  0.00  0.00    +0.000 C 
ATOM      4  C   UNL     1       3.614   5.727  19.046  0.00  0.00    +0.000 C 
ATOM      5  C   UNL     1       5.043   5.289  19.497  0.00  0.00    +0.000 C 
ATOM      6  C   UNL     1       5.803   4.416  18.489  0.00  0.00    +0.000 C 
ENDROOT
BRANCH   4   7
ATOM      7  C   UNL     1       2.572   4.564  19.069  0.00  0.00    +0.000 A 
ATOM      8  C   UNL     1       1.638   4.381  20.106  0.00  0.00    +0.000 A 
ATOM      9  C   UNL     1       0.760   3.289  20.133  0.00  0.00    +0.000 A 
ATOM     10  C   UNL     1       0.759   2.368  19.095  0.00  0.00    +0.000 A 
ATOM     11  C   UNL     1       1.633   2.545  18.029  0.00  0.00    +0.000 A 
ATOM     12  C   UNL     1       2.529   3.623  18.019  0.00  0.00    +0.000 A 
ENDBRANCH   4   7
BRANCH   1  13
ATOM     13  O   UNL     1       6.392   4.042  16.187  0.00  0.00    +0.000 OA
BRANCH  13  16
ATOM     14  C   UNL     1       6.529   3.842  12.608  0.00  0.00    +0.000 C 
ATOM     15  N   UNL     1       6.279   3.629  14.007  0.00  0.00    +0.000 N 
ATOM     16  C   UNL     1       6.762   4.474  14.960  0.00  0.00    +0.000 C 
ATOM     17  O   UNL     1       7.437   5.468  14.724  0.00  0.00    +0.000 OA
ATOM     18  H   UNL     1       5.757   2.827  14.332  0.00  0.00    +0.000 HD
ENDBRANCH  13  16
ENDBRANCH   1  13
BRANCH   4  19
ATOM     19  C   UNL     1       3.100   6.846  20.042  0.00  0.00    +0.000 C 
BRANCH  19  20
ATOM     20  N   UNL     1       2.087   7.779  19.532  0.00  0.00    +0.000 N 
ATOM     21  C   UNL     1       1.335   8.600  20.368  0.00  0.00    +0.000 C 
ATOM     22  O   UNL     1       1.393   8.497  21.583  0.00  0.00    +0.000 OA
ATOM     23  H   UNL     1       2.074   7.956  18.537  0.00  0.00    +0.000 HD
BRANCH  21  24
ATOM     24  C   UNL     1       0.395   9.565  19.702  0.00  0.00    +0.000 A 
ATOM     25  C   UNL     1       0.167   9.349  18.321  0.00  0.00    +0.000 A 
ATOM     26  C   UNL     1      -0.688  10.166  17.576  0.00  0.00    +0.000 A 
ATOM     27  C   UNL     1      -1.367  11.201  18.200  0.00  0.00    +0.000 A 
ATOM     28  C   UNL     1      -1.166  11.422  19.560  0.00  0.00    +0.000 A 
ATOM     29  C   UNL     1      -0.285  10.628  20.329  0.00  0.00    +0.000 A 
BRANCH  29  30
ATOM     30  O   UNL     1      -0.183  11.147  21.590  0.00  0.00    +0.000 OA
ATOM     31  C   UNL     1      -0.806  12.375  21.913  0.00  0.00    +0.000 C 
ENDBRANCH  29  30
ENDBRANCH  21  24
ENDBRANCH  19  20
ENDBRANCH   4  19
TORSDOF 7
ENDMDL
MODEL 7
REMARK VINA RESULT:      -7.7      4.226      6.688
REMARK  Name = 
REMARK  9 active torsions:
REMARK  status: ('A' for Active; 'I' for Inactive)
REMARK    1  A    between atoms: C_1  and  N_2
REMARK    2  A    between atoms: C_3  and  O_5
REMARK    3  A    between atoms: O_5  and  C_6
REMARK    4  A    between atoms: C_9  and  C_10
REMARK    5  A    between atoms: C_9  and  C_22
REMARK    6  A    between atoms: C_10  and  N_11
REMARK    7  A    between atoms: C_12  and  C_14
REMARK    8  A    between atoms: C_19  and  O_20
REMARK    9  A    between atoms: O_20  and  C_21
REMARK                            x       y       z     vdW  Elec       q    Type
REMARK                         _______ _______ _______ _____ _____    ______ ____
ROOT
ATOM      1  C   UNL     1       4.228   3.164  19.392  0.00  0.00    +0.000 C 
ATOM      2  C   UNL     1       5.428   4.099  19.281  0.00  0.00    +0.000 C 
ATOM      3  C   UNL     1       5.017   5.502  18.840  0.00  0.00    +0.000 C 
ATOM      4  C   UNL     1       4.209   5.563  17.508  0.00  0.00    +0.000 C 
ATOM      5  C   UNL     1       3.023   4.554  17.624  0.00  0.00    +0.000 C 
ATOM      6  C   UNL     1       3.413   3.147  18.101  0.00  0.00    +0.000 C 
ENDROOT
BRANCH   4   7
ATOM      7  C   UNL     1       5.155   5.273  16.300  0.00  0.00    +0.000 A 
ATOM      8  C   UNL     1       4.755   4.551  15.160  0.00  0.00    +0.000 A 
ATOM      9  C   UNL     1       5.646   4.249  14.121  0.00  0.00    +0.000 A 
ATOM     10  C   UNL     1       6.957   4.701  14.171  0.00  0.00    +0.000 A 
ATOM     11  C   UNL     1       7.373   5.461  15.258  0.00  0.00    +0.000 A 
ATOM     12  C   UNL     1       6.487   5.738  16.308  0.00  0.00    +0.000 A 
ENDBRANCH   4   7
BRANCH   1  13
ATOM     13  O   UNL     1       4.717   1.827  19.632  0.00  0.00    +0.000 OA
BRANCH  13  16
ATOM     14  C   UNL     1       6.209   0.023  22.349  0.00  0.00    +0.000 C 
ATOM     15  N   UNL     1       5.879   0.603  21.077  0.00  0.00    +0.000 N 
ATOM     16  C   UNL     1       4.807   1.429  20.921  0.00  0.00    +0.000 C 
ATOM     17  O   UNL     1       4.042   1.748  21.824  0.00  0.00    +0.000 OA
ATOM     18  H   UNL     1       6.418   0.395  20.248  0.00  0.00    +0.000 HD
ENDBRANCH  13  16
ENDBRANCH   1  13
BRANCH   4  19
ATOM     19  C   UNL     1       3.607   7.013  17.303  0.00  0.00    +0.000 C 
BRANCH  19  20
ATOM     20  N   UNL     1       2.783   7.554  18.393  0.00  0.00    +0.000 N 
ATOM     21  C   UNL     1       2.081   8.751  18.279  0.00  0.00    +0.000 C 
ATOM     22  O   UNL     1       2.212   9.477  17.307  0.00  0.00    +0.000 OA
ATOM     23  H   UNL     1       2.579   6.943  19.171  0.00  0.00    +0.000 HD
BRANCH  21  24
ATOM     24  C   UNL     1       1.212   9.139  19.443  0.00  0.00    +0.000 A 
ATOM     25  C   UNL     1       1.465   8.453  20.656  0.00  0.00    +0.000 A 
ATOM     26  C   UNL     1       0.738   8.716  21.819  0.00  0.00    +0.000 A 
ATOM     27  C   UNL     1      -0.239   9.700  21.813  0.00  0.00    +0.000 A 
ATOM     28  C   UNL     1      -0.494  10.395  20.633  0.00  0.00    +0.000 A 
ATOM     29  C   UNL     1       0.208  10.127  19.436  0.00  0.00    +0.000 A 
BRANCH  29  30
ATOM     30  O   UNL     1      -0.334  10.857  18.414  0.00  0.00    +0.000 OA
ATOM     31  C   UNL     1      -0.941  12.109  18.670  0.00  0.00    +0.000 C 
ENDBRANCH  29  30
ENDBRANCH  21  24
ENDBRANCH  19  20
ENDBRANCH   4  19
TORSDOF 7
ENDMDL
MODEL 8
REMARK VINA RESULT:      -7.6      1.085      1.921
REMARK  Name = 
REMARK  9 active torsions:
REMARK  status: ('A' for Active; 'I' for Inactive)
REMARK    1  A    between atoms: C_1  and  N_2
REMARK    2  A    between atoms: C_3  and  O_5
REMARK    3  A    between atoms: O_5  and  C_6
REMARK    4  A    between atoms: C_9  and  C_10
REMARK    5  A    between atoms: C_9  and  C_22
REMARK    6  A    between atoms: C_10  and  N_11
REMARK    7  A    between atoms: C_12  and  C_14
REMARK    8  A    between atoms: C_19  and  O_20
REMARK    9  A    between atoms: O_20  and  C_21
REMARK                            x       y       z     vdW  Elec       q    Type
REMARK                         _______ _______ _______ _____ _____    ______ ____
ROOT
ATOM      1  C   UNL     1       6.734   7.199  17.314  0.00  0.00    +0.000 C 
ATOM      2  C   UNL     1       5.593   7.051  16.312  0.00  0.00    +0.000 C 
ATOM      3  C   UNL     1       4.981   5.653  16.350  0.00  0.00    +0.000 C 
ATOM      4  C   UNL     1       5.992   4.486  16.134  0.00  0.00    +0.000 C 
ATOM      5  C   UNL     1       7.178   4.694  17.128  0.00  0.00    +0.000 C 
ATOM      6  C   UNL     1       7.783   6.105  17.130  0.00  0.00    +0.000 C 
ENDROOT
BRANCH   4   7
ATOM      7  C   UNL     1       6.437   4.439  14.638  0.00  0.00    +0.000 A 
ATOM      8  C   UNL     1       7.491   5.213  14.119  0.00  0.00    +0.000 A 
ATOM      9  C   UNL     1       7.824   5.200  12.758  0.00  0.00    +0.000 A 
ATOM     10  C   UNL     1       7.138   4.372  11.879  0.00  0.00    +0.000 A 
ATOM     11  C   UNL     1       6.125   3.555  12.366  0.00  0.00    +0.000 A 
ATOM     12  C   UNL     1       5.776   3.592  13.723  0.00  0.00    +0.000 A 
ENDBRANCH   4   7
BRANCH   1  13
ATOM     13  O   UNL     1       7.372   8.475  17.089  0.00  0.00    +0.000 OA
BRANCH  13  16
ATOM     14  C   UNL     1       9.338  10.974  18.749  0.00  0.00    +0.000 C 
ATOM     15  N   UNL     1       8.462  10.244  17.874  0.00  0.00    +0.000 N 
ATOM     16  C   UNL     1       8.219   8.915  18.047  0.00  0.00    +0.000 C 
ATOM     17  O   UNL     1       8.709   8.232  18.937  0.00  0.00    +0.000 OA
ATOM     18  H   UNL     1       8.017  10.690  17.084  0.00  0.00    +0.000 HD
ENDBRANCH  13  16
ENDBRANCH   1  13
BRANCH   4  19
ATOM     19  C   UNL     1       5.302   3.100  16.469  0.00  0.00    +0.000 C 
BRANCH  19  20
ATOM     20  N   UNL     1       4.206   3.119  17.447  0.00  0.00    +0.000 N 
ATOM     21  C   UNL     1       4.423   3.244  18.816  0.00  0.00    +0.000 C 
ATOM     22  O   UNL     1       5.549   3.219  19.287  0.00  0.00    +0.000 OA
ATOM     23  H   UNL     1       3.266   3.233  17.091  0.00  0.00    +0.000 HD
BRANCH  21  24
ATOM     24  C   UNL     1       3.204   3.334  19.689  0.00  0.00    +0.000 A 
ATOM     25  C   UNL     1       3.028   2.276  20.614  0.00  0.00    +0.000 A 
ATOM     26  C   UNL     1       1.942   2.233  21.491  0.00  0.00    +0.000 A 
ATOM     27  C   UNL     1       1.020   3.267  21.496  0.00  0.00    +0.000 A 
ATOM     28  C   UNL     1       1.182   4.325  20.603  0.00  0.00    +0.000 A 
ATOM     29  C   UNL     1       2.256   4.375  19.686  0.00  0.00    +0.000 A 
BRANCH  29  30
ATOM     30  O   UNL     1       2.093   5.447  18.851  0.00  0.00    +0.000 OA
ATOM     31  C   UNL     1       2.387   6.757  19.298  0.00  0.00    +0.000 C 
ENDBRANCH  29  30
ENDBRANCH  21  24
ENDBRANCH  19  20
ENDBRANCH   4  19
TORSDOF 7
ENDMDL
MODEL 9
REMARK VINA RESULT:      -7.6      5.361      7.996
REMARK  Name = 
REMARK  9 active torsions:
REMARK  status: ('A' for Active; 'I' for Inactive)
REMARK    1  A    between atoms: C_1  and  N_2
REMARK    2  A    between atoms: C_3  and  O_5
REMARK    3  A    between atoms: O_5  and  C_6
REMARK    4  A    between atoms: C_9  and  C_10
REMARK    5  A    between atoms: C_9  and  C_22
REMARK    6  A    between atoms: C_10  and  N_11
REMARK    7  A    between atoms: C_12  and  C_14
REMARK    8  A    between atoms: C_19  and  O_20
REMARK    9  A    between atoms: O_20  and  C_21
REMARK                            x       y       z     vdW  Elec       q    Type
REMARK                         _______ _______ _______ _____ _____    ______ ____
ROOT
ATOM      1  C   UNL     1       1.198   4.182  19.859  0.00  0.00    +0.000 C 
ATOM      2  C   UNL     1       2.177   5.060  20.632  0.00  0.00    +0.000 C 
ATOM      3  C   UNL     1       2.223   6.483  20.080  0.00  0.00    +0.000 C 
ATOM      4  C   UNL     1       2.547   6.589  18.558  0.00  0.00    +0.000 C 
ATOM      5  C   UNL     1       1.572   5.636  17.797  0.00  0.00    +0.000 C 
ATOM      6  C   UNL     1       1.486   4.211  18.360  0.00  0.00    +0.000 C 
ENDROOT
BRANCH   4   7
ATOM      7  C   UNL     1       4.054   6.261  18.313  0.00  0.00    +0.000 A 
ATOM      8  C   UNL     1       4.743   6.620  17.140  0.00  0.00    +0.000 A 
ATOM      9  C   UNL     1       6.077   6.253  16.919  0.00  0.00    +0.000 A 
ATOM     10  C   UNL     1       6.779   5.553  17.891  0.00  0.00    +0.000 A 
ATOM     11  C   UNL     1       6.146   5.227  19.084  0.00  0.00    +0.000 A 
ATOM     12  C   UNL     1       4.802   5.571  19.290  0.00  0.00    +0.000 A 
ENDBRANCH   4   7
BRANCH   1  13
ATOM     13  O   UNL     1       1.349   2.822  20.320  0.00  0.00    +0.000 OA
BRANCH  13  16
ATOM     14  C   UNL     1       4.816   1.913  20.475  0.00  0.00    +0.000 C 
ATOM     15  N   UNL     1       3.486   2.271  20.064  0.00  0.00    +0.000 N 
ATOM     16  C   UNL     1       2.497   2.517  20.967  0.00  0.00    +0.000 C 
ATOM     17  O   UNL     1       2.640   2.459  22.182  0.00  0.00    +0.000 OA
ATOM     18  H   UNL     1       3.234   2.326  19.086  0.00  0.00    +0.000 HD
ENDBRANCH  13  16
ENDBRANCH   1  13
BRANCH   4  19
ATOM     19  C   UNL     1       2.292   8.067  18.050  0.00  0.00    +0.000 C 
BRANCH  19  20
ATOM     20  N   UNL     1       1.765   9.028  19.028  0.00  0.00    +0.000 N 
ATOM     21  C   UNL     1       0.584   9.736  18.822  0.00  0.00    +0.000 C 
ATOM     22  O   UNL     1      -0.012   9.686  17.758  0.00  0.00    +0.000 OA
ATOM     23  H   UNL     1       2.178   9.029  19.951  0.00  0.00    +0.000 HD
BRANCH  21  24
ATOM     24  C   UNL     1       0.121  10.621  19.945  0.00  0.00    +0.000 A 
ATOM     25  C   UNL     1      -0.018   9.994  21.207  0.00  0.00    +0.000 A 
ATOM     26  C   UNL     1      -0.435  10.697  22.340  0.00  0.00    +0.000 A 
ATOM     27  C   UNL     1      -0.688  12.057  22.252  0.00  0.00    +0.000 A 
ATOM     28  C   UNL     1      -0.544  12.696  21.022  0.00  0.00    +0.000 A 
ATOM     29  C   UNL     1      -0.152  12.000  19.856  0.00  0.00    +0.000 A 
BRANCH  29  30
ATOM     30  O   UNL     1      -0.220  12.841  18.779  0.00  0.00    +0.000 OA
ATOM     31  C   UNL     1      -0.286  14.241  18.963  0.00  0.00    +0.000 C 
ENDBRANCH  29  30
ENDBRANCH  21  24
ENDBRANCH  19  20
ENDBRANCH   4  19
TORSDOF 7
ENDMDL
