MODEL 1
REMARK VINA RESULT:      -8.4      0.000      0.000
REMARK  Name = 
REMARK  8 active torsions:
REMARK  status: ('A' for Active; 'I' for Inactive)
REMARK    1  A    between atoms: C_1  and  C_2
REMARK    2  A    between atoms: C_4  and  C_5
REMARK    3  A    between atoms: C_6  and  C_7
REMARK    4  A    between atoms: N_9  and  C_10
REMARK    5  A    between atoms: N_9  and  C_13
REMARK    6  A    between atoms: C_13  and  C_14
REMARK    7  A    between atoms: C_13  and  C_15
REMARK    8  A    between atoms: C_19  and  C_20
REMARK                            x       y       z     vdW  Elec       q    Type
REMARK                         _______ _______ _______ _____ _____    ______ ____
ROOT
ATOM      1  C   UNL     1       5.016   4.369  18.927  0.00  0.00    +0.000 C 
ATOM      2  O   UNL     1       5.607   3.810  19.861  0.00  0.00    +0.000 OA
ATOM      3  N   UNL     1       3.666   4.783  19.127  0.00  0.00    +0.000 N 
ENDROOT
BRANCH   1   9
ATOM      4  C   UNL     1       6.622   4.896  13.923  0.00  0.00    +0.000 C 
ATOM      5  C   UNL     1       6.566   4.887  15.410  0.00  0.00    +0.000 A 
ATOM      6  N   UNL     1       7.244   5.684  16.197  0.00  0.00    +0.000 NA
ATOM      7  C   UNL     1       6.842   5.503  17.518  0.00  0.00    +0.000 A 
ATOM      8  C   UNL     1       7.590   6.243  18.569  0.00  0.00    +0.000 C 
ATOM      9  C   UNL     1       5.746   4.659  17.689  0.00  0.00    +0.000 A 
ATOM     10  S   UNL     1       5.563   3.772  16.224  0.00  0.00    +0.000 S 
ENDBRANCH   1   9
BRANCH   3  11
ATOM     11  C   UNL     1       3.028   4.458  20.403  0.00  0.00    +0.000 C 
ATOM     12  C   UNL     1       1.599   3.983  20.509  0.00  0.00    +0.000 C 
ATOM     13  C   UNL     1       2.706   3.039  20.829  0.00  0.00    +0.000 C 
ENDBRANCH   3  11
BRANCH   3  14
ATOM     14  C   UNL     1       2.815   5.450  18.108  0.00  0.00    +0.000 C 
ATOM     15  C   UNL     1       1.618   4.621  17.613  0.00  0.00    +0.000 C 
BRANCH  14  16
ATOM     16  C   UNL     1       2.489   6.909  18.426  0.00  0.00    +0.000 A 
ATOM     17  C   UNL     1       2.606   7.949  17.491  0.00  0.00    +0.000 A 
ATOM     18  C   UNL     1       2.157   9.240  17.790  0.00  0.00    +0.000 A 
ATOM     19  C   UNL     1       1.569   9.512  19.025  0.00  0.00    +0.000 A 
ATOM     20  C   UNL     1       1.441   8.498  19.980  0.00  0.00    +0.000 A 
ATOM     21  C   UNL     1       1.932   7.215  19.681  0.00  0.00    +0.000 A 
BRANCH  20  22
ATOM     22  C   UNL     1       0.739   8.733  21.294  0.00  0.00    +0.000 C 
ATOM     23  F   UNL     1       1.573   8.741  22.369  0.00  0.00    +0.000 F 
ATOM     24  F   UNL     1       0.090   9.932  21.319  0.00  0.00    +0.000 F 
ATOM     25  F   UNL     1      -0.209   7.792  21.557  0.00  0.00    +0.000 F 
ENDBRANCH  20  22
ENDBRANCH  14  16
ENDBRANCH   3  14
TORSDOF 5
ENDMDL
MODEL 2
REMARK VINA RESULT:      -7.6      0.764      1.151
REMARK  Name = 
REMARK  8 active torsions:
REMARK  status: ('A' for Active; 'I' for Inactive)
REMARK    1  A    between atoms: C_1  and  C_2
REMARK    2  A    between atoms: C_4  and  C_5
REMARK    3  A    between atoms: C_6  and  C_7
REMARK    4  A    between atoms: N_9  and  C_10
REMARK    5  A    between atoms: N_9  and  C_13
REMARK    6  A    between atoms: C_13  and  C_14
REMARK    7  A    between atoms: C_13  and  C_15
REMARK    8  A    between atoms: C_19  and  C_20
REMARK                            x       y       z     vdW  Elec       q    Type
REMARK                         _______ _______ _______ _____ _____    ______ ____
ROOT
ATOM      1  C   UNL     1       4.722   3.612  18.990  0.00  0.00    +0.000 C 
ATOM      2  O   UNL     1       5.206   2.912  19.888  0.00  0.00    +0.000 OA
ATOM      3  N   UNL     1       3.323   3.891  19.024  0.00  0.00    +0.000 N 
ENDROOT
BRANCH   1   9
ATOM      4  C   UNL     1       7.019   5.306  14.546  0.00  0.00    +0.000 C 
ATOM      5  C   UNL     1       6.743   4.957  15.965  0.00  0.00    +0.000 A 
ATOM      6  N   UNL     1       7.249   5.569  17.007  0.00  0.00    +0.000 NA
ATOM      7  C   UNL     1       6.666   5.081  18.174  0.00  0.00    +0.000 A 
ATOM      8  C   UNL     1       7.204   5.579  19.468  0.00  0.00    +0.000 C 
ATOM      9  C   UNL     1       5.609   4.195  17.978  0.00  0.00    +0.000 A 
ATOM     10  S   UNL     1       5.698   3.661  16.343  0.00  0.00    +0.000 S 
ENDBRANCH   1   9
BRANCH   3  11
ATOM     11  C   UNL     1       2.523   3.272  20.082  0.00  0.00    +0.000 C 
ATOM     12  C   UNL     1       2.608   3.696  21.528  0.00  0.00    +0.000 C 
ATOM     13  C   UNL     1       1.363   3.975  20.759  0.00  0.00    +0.000 C 
ENDBRANCH   3  11
BRANCH   3  14
ATOM     14  C   UNL     1       2.586   4.698  18.017  0.00  0.00    +0.000 C 
ATOM     15  C   UNL     1       1.235   4.112  17.574  0.00  0.00    +0.000 C 
BRANCH  14  16
ATOM     16  C   UNL     1       2.562   6.197  18.316  0.00  0.00    +0.000 A 
ATOM     17  C   UNL     1       2.992   7.174  17.405  0.00  0.00    +0.000 A 
ATOM     18  C   UNL     1       2.813   8.535  17.672  0.00  0.00    +0.000 A 
ATOM     19  C   UNL     1       2.187   8.946  18.848  0.00  0.00    +0.000 A 
ATOM     20  C   UNL     1       1.749   7.996  19.778  0.00  0.00    +0.000 A 
ATOM     21  C   UNL     1       1.971   6.633  19.516  0.00  0.00    +0.000 A 
BRANCH  20  22
ATOM     22  C   UNL     1       0.997   8.396  21.022  0.00  0.00    +0.000 C 
ATOM     23  F   UNL     1       0.395   9.613  20.935  0.00  0.00    +0.000 F 
ATOM     24  F   UNL     1       0.004   7.512  21.325  0.00  0.00    +0.000 F 
ATOM     25  F   UNL     1       1.796   8.447  22.123  0.00  0.00    +0.000 F 
ENDBRANCH  20  22
ENDBRANCH  14  16
ENDBRANCH   3  14
TORSDOF 5
ENDMDL
MODEL 3
REMARK VINA RESULT:      -7.5      1.871      2.741
REMARK  Name = 
REMARK  8 active torsions:
REMARK  status: ('A' for Active; 'I' for Inactive)
REMARK    1  A    between atoms: C_1  and  C_2
REMARK    2  A    between atoms: C_4  and  C_5
REMARK    3  A    between atoms: C_6  and  C_7
REMARK    4  A    between atoms: N_9  and  C_10
REMARK    5  A    between atoms: N_9  and  C_13
REMARK    6  A    between atoms: C_13  and  C_14
REMARK    7  A    between atoms: C_13  and  C_15
REMARK    8  A    between atoms: C_19  and  C_20
REMARK                            x       y       z     vdW  Elec       q    Type
REMARK                         _______ _______ _______ _____ _____    ______ ____
ROOT
ATOM      1  C   UNL     1       4.686   3.589  19.133  0.00  0.00    +0.000 C 
ATOM      2  O   UNL     1       5.228   2.717  19.826  0.00  0.00    +0.000 OA
ATOM      3  N   UNL     1       3.261   3.639  19.096  0.00  0.00    +0.000 N 
ENDROOT
BRANCH   1   9
ATOM      4  C   UNL     1       7.973   7.519  17.850  0.00  0.00    +0.000 C 
ATOM      5  C   UNL     1       6.985   6.408  17.789  0.00  0.00    +0.000 A 
ATOM      6  N   UNL     1       6.826   5.592  16.777  0.00  0.00    +0.000 NA
ATOM      7  C   UNL     1       5.924   4.587  17.115  0.00  0.00    +0.000 A 
ATOM      8  C   UNL     1       5.530   3.633  16.043  0.00  0.00    +0.000 C 
ATOM      9  C   UNL     1       5.520   4.581  18.448  0.00  0.00    +0.000 A 
ATOM     10  S   UNL     1       5.938   6.118  19.105  0.00  0.00    +0.000 S 
ENDBRANCH   1   9
BRANCH   3  11
ATOM     11  C   UNL     1       2.517   2.610  19.823  0.00  0.00    +0.000 C 
ATOM     12  C   UNL     1       2.472   2.542  21.331  0.00  0.00    +0.000 C 
ATOM     13  C   UNL     1       1.235   2.897  20.580  0.00  0.00    +0.000 C 
ENDBRANCH   3  11
BRANCH   3  14
ATOM     14  C   UNL     1       2.459   4.608  18.305  0.00  0.00    +0.000 C 
ATOM     15  C   UNL     1       1.330   3.988  17.465  0.00  0.00    +0.000 C 
BRANCH  14  16
ATOM     16  C   UNL     1       2.058   5.863  19.079  0.00  0.00    +0.000 A 
ATOM     17  C   UNL     1       2.008   5.926  20.480  0.00  0.00    +0.000 A 
ATOM     18  C   UNL     1       1.778   7.139  21.138  0.00  0.00    +0.000 A 
ATOM     19  C   UNL     1       1.607   8.314  20.409  0.00  0.00    +0.000 A 
ATOM     20  C   UNL     1       1.648   8.285  19.011  0.00  0.00    +0.000 A 
ATOM     21  C   UNL     1       1.841   7.053  18.361  0.00  0.00    +0.000 A 
BRANCH  20  22
ATOM     22  C   UNL     1       1.548   9.546  18.190  0.00  0.00    +0.000 C 
ATOM     23  F   UNL     1       1.629  10.689  18.924  0.00  0.00    +0.000 F 
ATOM     24  F   UNL     1       2.543   9.630  17.261  0.00  0.00    +0.000 F 
ATOM     25  F   UNL     1       0.382   9.626  17.493  0.00  0.00    +0.000 F 
ENDBRANCH  20  22
ENDBRANCH  14  16
ENDBRANCH   3  14
TORSDOF 5
ENDMDL
MODEL 4
REMARK VINA RESULT:      -7.4      4.512      7.303
REMARK  Name = 
REMARK  8 active torsions:
REMARK  status: ('A' for Active; 'I' for Inactive)
REMARK    1  A    between atoms: C_1  and  C_2
REMARK    2  A    between atoms: C_4  and  C_5
REMARK    3  A    between atoms: C_6  and  C_7
REMARK    4  A    between atoms: N_9  and  C_10
REMARK    5  A    between atoms: N_9  and  C_13
REMARK    6  A    between atoms: C_13  and  C_14
REMARK    7  A    between atoms: C_13  and  C_15
REMARK    8  A    between atoms: C_19  and  C_20
REMARK                            x       y       z     vdW  Elec       q    Type
REMARK                         _______ _______ _______ _____ _____    ______ ____
ROOT
ATOM      1  C   UNL     1       5.229   4.548  18.627  0.00  0.00    +0.000 C 
ATOM      2  O   UNL     1       5.956   4.270  19.590  0.00  0.00    +0.000 OA
ATOM      3  N   UNL     1       5.817   5.174  17.489  0.00  0.00    +0.000 N 
ENDROOT
BRANCH   1   9
ATOM      4  C   UNL     1       0.630   1.951  18.663  0.00  0.00    +0.000 C 
ATOM      5  C   UNL     1       1.664   3.019  18.629  0.00  0.00    +0.000 A 
ATOM      6  N   UNL     1       1.508   4.237  19.085  0.00  0.00    +0.000 NA
ATOM      7  C   UNL     1       2.719   4.924  19.028  0.00  0.00    +0.000 A 
ATOM      8  C   UNL     1       2.705   6.365  19.397  0.00  0.00    +0.000 C 
ATOM      9  C   UNL     1       3.817   4.152  18.657  0.00  0.00    +0.000 A 
ATOM     10  S   UNL     1       3.199   2.707  17.952  0.00  0.00    +0.000 S 
ENDBRANCH   1   9
BRANCH   3  11
ATOM     11  C   UNL     1       7.238   5.519  17.550  0.00  0.00    +0.000 C 
ATOM     12  C   UNL     1       7.735   6.944  17.601  0.00  0.00    +0.000 C 
ATOM     13  C   UNL     1       7.901   6.071  18.797  0.00  0.00    +0.000 C 
ENDBRANCH   3  11
BRANCH   3  14
ATOM     14  C   UNL     1       5.084   5.585  16.263  0.00  0.00    +0.000 C 
ATOM     15  C   UNL     1       4.574   7.036  16.264  0.00  0.00    +0.000 C 
BRANCH  14  16
ATOM     16  C   UNL     1       5.752   5.147  14.960  0.00  0.00    +0.000 A 
ATOM     17  C   UNL     1       7.138   5.211  14.742  0.00  0.00    +0.000 A 
ATOM     18  C   UNL     1       7.710   4.663  13.589  0.00  0.00    +0.000 A 
ATOM     19  C   UNL     1       6.911   4.028  12.640  0.00  0.00    +0.000 A 
ATOM     20  C   UNL     1       5.527   3.950  12.827  0.00  0.00    +0.000 A 
ATOM     21  C   UNL     1       4.959   4.541  13.970  0.00  0.00    +0.000 A 
BRANCH  20  22
ATOM     22  C   UNL     1       4.639   3.203  11.864  0.00  0.00    +0.000 C 
ATOM     23  F   UNL     1       3.404   2.919  12.361  0.00  0.00    +0.000 F 
ATOM     24  F   UNL     1       4.423   3.908  10.716  0.00  0.00    +0.000 F 
ATOM     25  F   UNL     1       5.173   2.013  11.474  0.00  0.00    +0.000 F 
ENDBRANCH  20  22
ENDBRANCH  14  16
ENDBRANCH   3  14
TORSDOF 5
ENDMDL
MODEL 5
REMARK VINA RESULT:      -7.4      1.317      1.994
REMARK  Name = 
REMARK  8 active torsions:
REMARK  status: ('A' for Active; 'I' for Inactive)
REMARK    1  A    between atoms: C_1  and  C_2
REMARK    2  A    between atoms: C_4  and  C_5
REMARK    3  A    between atoms: C_6  and  C_7
REMARK    4  A    between atoms: N_9  and  C_10
REMARK    5  A    between atoms: N_9  and  C_13
REMARK    6  A    between atoms: C_13  and  C_14
REMARK    7  A    between atoms: C_13  and  C_15
REMARK    8  A    between atoms: C_19  and  C_20
REMARK                            x       y       z     vdW  Elec       q    Type
REMARK                         _______ _______ _______ _____ _____    ______ ____
ROOT
ATOM      1  C   UNL     1       4.689   3.714  19.235  0.00  0.00    +0.000 C 
ATOM      2  O   UNL     1       5.240   2.991  20.075  0.00  0.00    +0.000 OA
ATOM      3  N   UNL     1       3.268   3.661  19.118  0.00  0.00    +0.000 N 
ENDROOT
BRANCH   1   9
ATOM      4  C   UNL     1       7.997   7.482  17.573  0.00  0.00    +0.000 C 
ATOM      5  C   UNL     1       6.972   6.405  17.625  0.00  0.00    +0.000 A 
ATOM      6  N   UNL     1       6.710   5.563  16.657  0.00  0.00    +0.000 NA
ATOM      7  C   UNL     1       5.803   4.601  17.096  0.00  0.00    +0.000 A 
ATOM      8  C   UNL     1       5.299   3.627  16.091  0.00  0.00    +0.000 C 
ATOM      9  C   UNL     1       5.501   4.654  18.455  0.00  0.00    +0.000 A 
ATOM     10  S   UNL     1       6.017   6.195  19.025  0.00  0.00    +0.000 S 
ENDBRANCH   1   9
BRANCH   3  11
ATOM     11  C   UNL     1       2.545   2.698  19.950  0.00  0.00    +0.000 C 
ATOM     12  C   UNL     1       2.542   2.757  21.458  0.00  0.00    +0.000 C 
ATOM     13  C   UNL     1       1.285   3.049  20.715  0.00  0.00    +0.000 C 
ENDBRANCH   3  11
BRANCH   3  14
ATOM     14  C   UNL     1       2.458   4.449  18.154  0.00  0.00    +0.000 C 
ATOM     15  C   UNL     1       1.078   3.857  17.825  0.00  0.00    +0.000 C 
BRANCH  14  16
ATOM     16  C   UNL     1       2.456   5.953  18.425  0.00  0.00    +0.000 A 
ATOM     17  C   UNL     1       2.873   6.909  17.485  0.00  0.00    +0.000 A 
ATOM     18  C   UNL     1       2.714   8.277  17.730  0.00  0.00    +0.000 A 
ATOM     19  C   UNL     1       2.122   8.716  18.913  0.00  0.00    +0.000 A 
ATOM     20  C   UNL     1       1.698   7.789  19.871  0.00  0.00    +0.000 A 
ATOM     21  C   UNL     1       1.900   6.418  19.630  0.00  0.00    +0.000 A 
BRANCH  20  22
ATOM     22  C   UNL     1       0.981   8.220  21.126  0.00  0.00    +0.000 C 
ATOM     23  F   UNL     1       0.393   9.444  21.032  0.00  0.00    +0.000 F 
ATOM     24  F   UNL     1      -0.017   7.354  21.466  0.00  0.00    +0.000 F 
ATOM     25  F   UNL     1       1.805   8.278  22.207  0.00  0.00    +0.000 F 
ENDBRANCH  20  22
ENDBRANCH  14  16
ENDBRANCH   3  14
TORSDOF 5
ENDMDL
MODEL 6
REMARK VINA RESULT:      -7.3      1.875      4.543
REMARK  Name = 
REMARK  8 active torsions:
REMARK  status: ('A' for Active; 'I' for Inactive)
REMARK    1  A    between atoms: C_1  and  C_2
REMARK    2  A    between atoms: C_4  and  C_5
REMARK    3  A    between atoms: C_6  and  C_7
REMARK    4  A    between atoms: N_9  and  C_10
REMARK    5  A    between atoms: N_9  and  C_13
REMARK    6  A    between atoms: C_13  and  C_14
REMARK    7  A    between atoms: C_13  and  C_15
REMARK    8  A    between atoms: C_19  and  C_20
REMARK                            x       y       z     vdW  Elec       q    Type
REMARK                         _______ _______ _______ _____ _____    ______ ____
ROOT
ATOM      1  C   UNL     1       4.175   3.219  17.627  0.00  0.00    +0.000 C 
ATOM      2  O   UNL     1       4.192   2.402  16.698  0.00  0.00    +0.000 OA
ATOM      3  N   UNL     1       5.147   4.263  17.632  0.00  0.00    +0.000 N 
ENDROOT
BRANCH   1   9
ATOM      4  C   UNL     1       1.314   2.574  22.020  0.00  0.00    +0.000 C 
ATOM      5  C   UNL     1       1.732   2.810  20.612  0.00  0.00    +0.000 A 
ATOM      6  N   UNL     1       1.081   3.541  19.742  0.00  0.00    +0.000 NA
ATOM      7  C   UNL     1       1.828   3.666  18.572  0.00  0.00    +0.000 A 
ATOM      8  C   UNL     1       1.191   4.367  17.425  0.00  0.00    +0.000 C 
ATOM      9  C   UNL     1       3.115   3.136  18.636  0.00  0.00    +0.000 A 
ATOM     10  S   UNL     1       3.162   2.098  20.010  0.00  0.00    +0.000 S 
ENDBRANCH   1   9
BRANCH   3  11
ATOM     11  C   UNL     1       6.158   4.268  16.574  0.00  0.00    +0.000 C 
ATOM     12  C   UNL     1       5.851   3.887  15.145  0.00  0.00    +0.000 C 
ATOM     13  C   UNL     1       6.189   5.302  15.466  0.00  0.00    +0.000 C 
ENDBRANCH   3  11
BRANCH   3  14
ATOM     14  C   UNL     1       5.274   5.311  18.678  0.00  0.00    +0.000 C 
ATOM     15  C   UNL     1       6.707   5.806  18.936  0.00  0.00    +0.000 C 
BRANCH  14  16
ATOM     16  C   UNL     1       4.226   6.420  18.580  0.00  0.00    +0.000 A 
ATOM     17  C   UNL     1       3.987   7.157  17.410  0.00  0.00    +0.000 A 
ATOM     18  C   UNL     1       2.920   8.058  17.332  0.00  0.00    +0.000 A 
ATOM     19  C   UNL     1       2.063   8.229  18.418  0.00  0.00    +0.000 A 
ATOM     20  C   UNL     1       2.276   7.511  19.600  0.00  0.00    +0.000 A 
ATOM     21  C   UNL     1       3.375   6.639  19.678  0.00  0.00    +0.000 A 
BRANCH  20  22
ATOM     22  C   UNL     1       1.325   7.608  20.766  0.00  0.00    +0.000 C 
ATOM     23  F   UNL     1       1.894   8.099  21.901  0.00  0.00    +0.000 F 
ATOM     24  F   UNL     1       0.268   8.427  20.497  0.00  0.00    +0.000 F 
ATOM     25  F   UNL     1       0.785   6.405  21.104  0.00  0.00    +0.000 F 
ENDBRANCH  20  22
ENDBRANCH  14  16
ENDBRANCH   3  14
TORSDOF 5
ENDMDL
MODEL 7
REMARK VINA RESULT:      -7.3      1.536      2.155
REMARK  Name = 
REMARK  8 active torsions:
REMARK  status: ('A' for Active; 'I' for Inactive)
REMARK    1  A    between atoms: C_1  and  C_2
REMARK    2  A    between atoms: C_4  and  C_5
REMARK    3  A    between atoms: C_6  and  C_7
REMARK    4  A    between atoms: N_9  and  C_10
REMARK    5  A    between atoms: N_9  and  C_13
REMARK    6  A    between atoms: C_13  and  C_14
REMARK    7  A    between atoms: C_13  and  C_15
REMARK    8  A    between atoms: C_19  and  C_20
REMARK                            x       y       z     vdW  Elec       q    Type
REMARK                         _______ _______ _______ _____ _____    ______ ____
ROOT
ATOM      1  C   UNL     1       4.754   3.876  19.224  0.00  0.00    +0.000 C 
ATOM      2  O   UNL     1       5.237   3.093  20.052  0.00  0.00    +0.000 OA
ATOM      3  N   UNL     1       3.445   4.392  19.459  0.00  0.00    +0.000 N 
ENDROOT
BRANCH   1   9
ATOM      4  C   UNL     1       6.682   5.040  14.446  0.00  0.00    +0.000 C 
ATOM      5  C   UNL     1       6.535   4.820  15.910  0.00  0.00    +0.000 A 
ATOM      6  N   UNL     1       7.194   5.463  16.841  0.00  0.00    +0.000 NA
ATOM      7  C   UNL     1       6.704   5.112  18.098  0.00  0.00    +0.000 A 
ATOM      8  C   UNL     1       7.415   5.658  19.285  0.00  0.00    +0.000 C 
ATOM      9  C   UNL     1       5.569   4.306  18.083  0.00  0.00    +0.000 A 
ATOM     10  S   UNL     1       5.441   3.648  16.496  0.00  0.00    +0.000 S 
ENDBRANCH   1   9
BRANCH   3  11
ATOM     11  C   UNL     1       2.716   3.911  20.633  0.00  0.00    +0.000 C 
ATOM     12  C   UNL     1       1.358   3.257  20.544  0.00  0.00    +0.000 C 
ATOM     13  C   UNL     1       2.536   2.439  20.948  0.00  0.00    +0.000 C 
ENDBRANCH   3  11
BRANCH   3  14
ATOM     14  C   UNL     1       2.718   5.325  18.560  0.00  0.00    +0.000 C 
ATOM     15  C   UNL     1       1.789   4.653  17.534  0.00  0.00    +0.000 C 
BRANCH  14  16
ATOM     16  C   UNL     1       2.108   6.532  19.273  0.00  0.00    +0.000 A 
ATOM     17  C   UNL     1       1.906   6.589  20.661  0.00  0.00    +0.000 A 
ATOM     18  C   UNL     1       1.481   7.770  21.278  0.00  0.00    +0.000 A 
ATOM     19  C   UNL     1       1.264   8.921  20.522  0.00  0.00    +0.000 A 
ATOM     20  C   UNL     1       1.454   8.896  19.136  0.00  0.00    +0.000 A 
ATOM     21  C   UNL     1       1.842   7.692  18.523  0.00  0.00    +0.000 A 
BRANCH  20  22
ATOM     22  C   UNL     1       1.308  10.139  18.295  0.00  0.00    +0.000 C 
ATOM     23  F   UNL     1       0.191  10.148  17.516  0.00  0.00    +0.000 F 
ATOM     24  F   UNL     1       1.237  11.267  19.058  0.00  0.00    +0.000 F 
ATOM     25  F   UNL     1       2.359  10.328  17.451  0.00  0.00    +0.000 F 
ENDBRANCH  20  22
ENDBRANCH  14  16
ENDBRANCH   3  14
TORSDOF 5
ENDMDL
MODEL 8
REMARK VINA RESULT:      -7.0      1.828      2.680
REMARK  Name = 
REMARK  8 active torsions:
REMARK  status: ('A' for Active; 'I' for Inactive)
REMARK    1  A    between atoms: C_1  and  C_2
REMARK    2  A    between atoms: C_4  and  C_5
REMARK    3  A    between atoms: C_6  and  C_7
REMARK    4  A    between atoms: N_9  and  C_10
REMARK    5  A    between atoms: N_9  and  C_13
REMARK    6  A    between atoms: C_13  and  C_14
REMARK    7  A    between atoms: C_13  and  C_15
REMARK    8  A    between atoms: C_19  and  C_20
REMARK                            x       y       z     vdW  Elec       q    Type
REMARK                         _______ _______ _______ _____ _____    ______ ____
ROOT
ATOM      1  C   UNL     1       4.853   3.914  18.815  0.00  0.00    +0.000 C 
ATOM      2  O   UNL     1       5.414   3.026  19.470  0.00  0.00    +0.000 OA
ATOM      3  N   UNL     1       3.429   3.987  18.847  0.00  0.00    +0.000 N 
ENDROOT
BRANCH   1   9
ATOM      4  C   UNL     1       7.949   7.955  17.407  0.00  0.00    +0.000 C 
ATOM      5  C   UNL     1       7.051   6.769  17.380  0.00  0.00    +0.000 A 
ATOM      6  N   UNL     1       7.035   5.854  16.443  0.00  0.00    +0.000 NA
ATOM      7  C   UNL     1       6.181   4.816  16.808  0.00  0.00    +0.000 A 
ATOM      8  C   UNL     1       5.946   3.740  15.808  0.00  0.00    +0.000 C 
ATOM      9  C   UNL     1       5.669   4.902  18.101  0.00  0.00    +0.000 A 
ATOM     10  S   UNL     1       5.921   6.520  18.634  0.00  0.00    +0.000 S 
ENDBRANCH   1   9
BRANCH   3  11
ATOM     11  C   UNL     1       2.704   2.962  19.598  0.00  0.00    +0.000 C 
ATOM     12  C   UNL     1       1.267   2.598  19.313  0.00  0.00    +0.000 C 
ATOM     13  C   UNL     1       2.342   1.610  19.014  0.00  0.00    +0.000 C 
ENDBRANCH   3  11
BRANCH   3  14
ATOM     14  C   UNL     1       2.605   4.978  18.107  0.00  0.00    +0.000 C 
ATOM     15  C   UNL     1       1.546   4.376  17.170  0.00  0.00    +0.000 C 
BRANCH  14  16
ATOM     16  C   UNL     1       2.107   6.140  18.966  0.00  0.00    +0.000 A 
ATOM     17  C   UNL     1       1.998   6.078  20.364  0.00  0.00    +0.000 A 
ATOM     18  C   UNL     1       1.676   7.215  21.112  0.00  0.00    +0.000 A 
ATOM     19  C   UNL     1       1.470   8.439  20.478  0.00  0.00    +0.000 A 
ATOM     20  C   UNL     1       1.569   8.534  19.086  0.00  0.00    +0.000 A 
ATOM     21  C   UNL     1       1.854   7.375  18.343  0.00  0.00    +0.000 A 
BRANCH  20  22
ATOM     22  C   UNL     1       1.434   9.855  18.372  0.00  0.00    +0.000 C 
ATOM     23  F   UNL     1       2.429  10.102  17.476  0.00  0.00    +0.000 F 
ATOM     24  F   UNL     1       0.271   9.936  17.664  0.00  0.00    +0.000 F 
ATOM     25  F   UNL     1       1.423  10.915  19.226  0.00  0.00    +0.000 F 
ENDBRANCH  20  22
ENDBRANCH  14  16
ENDBRANCH   3  14
TORSDOF 5
ENDMDL
MODEL 9
REMARK VINA RESULT:      -6.9      5.044      7.691
REMARK  Name = 
REMARK  8 active torsions:
REMARK  status: ('A' for Active; 'I' for Inactive)
REMARK    1  A    between atoms: C_1  and  C_2
REMARK    2  A    between atoms: C_4  and  C_5
REMARK    3  A    between atoms: C_6  and  C_7
REMARK    4  A    between atoms: N_9  and  C_10
REMARK    5  A    between atoms: N_9  and  C_13
REMARK    6  A    between atoms: C_13  and  C_14
REMARK    7  A    between atoms: C_13  and  C_15
REMARK    8  A    between atoms: C_19  and  C_20
REMARK                            x       y       z     vdW  Elec       q    Type
REMARK                         _______ _______ _______ _____ _____    ______ ____
ROOT
ATOM      1  C   UNL     1       0.012  12.636  18.838  0.00  0.00    +0.000 C 
ATOM      2  O   UNL     1      -0.792  13.250  18.126  0.00  0.00    +0.000 OA
ATOM      3  N   UNL     1      -0.254  11.268  19.142  0.00  0.00    +0.000 N 
ENDROOT
BRANCH   1   9
ATOM      4  C   UNL     1       4.704  15.041  19.157  0.00  0.00    +0.000 C 
ATOM      5  C   UNL     1       3.417  14.374  19.492  0.00  0.00    +0.000 A 
ATOM      6  N   UNL     1       2.718  14.584  20.579  0.00  0.00    +0.000 NA
ATOM      7  C   UNL     1       1.502  13.908  20.500  0.00  0.00    +0.000 A 
ATOM      8  C   UNL     1       0.624  13.937  21.701  0.00  0.00    +0.000 C 
ATOM      9  C   UNL     1       1.243  13.306  19.271  0.00  0.00    +0.000 A 
ATOM     10  S   UNL     1       2.740  13.228  18.424  0.00  0.00    +0.000 S 
ENDBRANCH   1   9
BRANCH   3  11
ATOM     11  C   UNL     1      -1.504  10.685  18.653  0.00  0.00    +0.000 C 
ATOM     12  C   UNL     1      -2.252  11.230  17.460  0.00  0.00    +0.000 C 
ATOM     13  C   UNL     1      -1.599   9.895  17.363  0.00  0.00    +0.000 C 
ENDBRANCH   3  11
BRANCH   3  14
ATOM     14  C   UNL     1       0.599  10.398  19.992  0.00  0.00    +0.000 C 
ATOM     15  C   UNL     1      -0.049   9.933  21.307  0.00  0.00    +0.000 C 
BRANCH  14  16
ATOM     16  C   UNL     1       1.332   9.299  19.223  0.00  0.00    +0.000 A 
ATOM     17  C   UNL     1       2.010   9.522  18.014  0.00  0.00    +0.000 A 
ATOM     18  C   UNL     1       2.785   8.517  17.428  0.00  0.00    +0.000 A 
ATOM     19  C   UNL     1       2.909   7.273  18.045  0.00  0.00    +0.000 A 
ATOM     20  C   UNL     1       2.244   7.018  19.249  0.00  0.00    +0.000 A 
ATOM     21  C   UNL     1       1.436   8.024  19.807  0.00  0.00    +0.000 A 
BRANCH  20  22
ATOM     22  C   UNL     1       2.417   5.715  19.988  0.00  0.00    +0.000 C 
ATOM     23  F   UNL     1       1.889   5.720  21.243  0.00  0.00    +0.000 F 
ATOM     24  F   UNL     1       1.818   4.676  19.339  0.00  0.00    +0.000 F 
ATOM     25  F   UNL     1       3.724   5.362  20.129  0.00  0.00    +0.000 F 
ENDBRANCH  20  22
ENDBRANCH  14  16
ENDBRANCH   3  14
TORSDOF 5
ENDMDL
