MODEL 1
REMARK VINA RESULT:      -8.4      0.000      0.000
REMARK  Name = 
REMARK  2 active torsions:
REMARK  status: ('A' for Active; 'I' for Inactive)
REMARK    1  A    between atoms: S_2  and  N_4
REMARK    2  A    between atoms: S_2  and  C_14
REMARK                            x       y       z     vdW  Elec       q    Type
REMARK                         _______ _______ _______ _____ _____    ______ ____
ROOT
ATOM      1  O   UNL     1       2.061   3.050  16.755  0.00  0.00    +0.000 OA
ATOM      2  S   UNL     1       2.319   2.845  18.166  0.00  0.00    +0.000 S 
ATOM      3  O   UNL     1       1.525   1.883  18.900  0.00  0.00    +0.000 OA
ENDROOT
BRANCH   2   4
ATOM      4  N   UNL     1       3.930   2.369  18.378  0.00  0.00    +0.000 N 
ATOM      5  C   UNL     1       4.818   3.474  18.444  0.00  0.00    +0.000 A 
ATOM      6  N   UNL     1       5.123   4.066  19.578  0.00  0.00    +0.000 NA
ATOM      7  N   UNL     1       6.092   5.015  19.317  0.00  0.00    +0.000 NA
ATOM      8  C   UNL     1       6.337   4.995  18.024  0.00  0.00    +0.000 A 
ATOM      9  C   UNL     1       7.221   5.736  17.192  0.00  0.00    +0.000 A 
ATOM     10  C   UNL     1       7.223   5.516  15.861  0.00  0.00    +0.000 A 
ATOM     11  C   UNL     1       6.337   4.534  15.250  0.00  0.00    +0.000 A 
ATOM     12  C   UNL     1       5.519   3.815  16.039  0.00  0.00    +0.000 A 
ATOM     13  N   UNL     1       5.532   4.044  17.413  0.00  0.00    +0.000 N 
ATOM     14  H   UNL     1       4.126   1.687  17.648  0.00  0.00    +0.000 HD
ENDBRANCH   2   4
BRANCH   2  15
ATOM     15  C   UNL     1       2.218   4.394  19.004  0.00  0.00    +0.000 A 
ATOM     16  C   UNL     1       2.365   5.564  18.241  0.00  0.00    +0.000 A 
ATOM     17  C   UNL     1       2.281   6.809  18.859  0.00  0.00    +0.000 A 
ATOM     18 BR   UNL     1       2.482   8.382  17.833  0.00  0.00    +0.000 Br
ATOM     19  C   UNL     1       2.047   6.903  20.228  0.00  0.00    +0.000 A 
ATOM     20  C   UNL     1       1.890   5.738  20.983  0.00  0.00    +0.000 A 
ATOM     21  C   UNL     1       1.971   4.477  20.377  0.00  0.00    +0.000 A 
ATOM     22 CL   UNL     1       1.756   3.109  21.407  0.00  0.00    +0.000 Cl
ENDBRANCH   2  15
TORSDOF 2
ENDMDL
MODEL 2
REMARK VINA RESULT:      -8.4      3.598      6.203
REMARK  Name = 
REMARK  2 active torsions:
REMARK  status: ('A' for Active; 'I' for Inactive)
REMARK    1  A    between atoms: S_2  and  N_4
REMARK    2  A    between atoms: S_2  and  C_14
REMARK                            x       y       z     vdW  Elec       q    Type
REMARK                         _______ _______ _______ _____ _____    ______ ____
ROOT
ATOM      1  O   UNL     1       4.671   5.581  17.967  0.00  0.00    +0.000 OA
ATOM      2  S   UNL     1       5.542   4.465  17.658  0.00  0.00    +0.000 S 
ATOM      3  O   UNL     1       6.648   4.162  18.540  0.00  0.00    +0.000 OA
ENDROOT
BRANCH   2   4
ATOM      4  N   UNL     1       4.623   3.046  17.566  0.00  0.00    +0.000 N 
ATOM      5  C   UNL     1       3.280   3.241  17.981  0.00  0.00    +0.000 A 
ATOM      6  N   UNL     1       2.329   3.593  17.143  0.00  0.00    +0.000 NA
ATOM      7  N   UNL     1       1.131   3.581  17.830  0.00  0.00    +0.000 NA
ATOM      8  C   UNL     1       1.385   3.245  19.077  0.00  0.00    +0.000 A 
ATOM      9  C   UNL     1       0.561   3.074  20.223  0.00  0.00    +0.000 A 
ATOM     10  C   UNL     1       1.124   2.755  21.406  0.00  0.00    +0.000 A 
ATOM     11  C   UNL     1       2.564   2.583  21.542  0.00  0.00    +0.000 A 
ATOM     12  C   UNL     1       3.342   2.720  20.453  0.00  0.00    +0.000 A 
ATOM     13  N   UNL     1       2.748   3.039  19.235  0.00  0.00    +0.000 N 
ATOM     14  H   UNL     1       5.145   2.334  18.075  0.00  0.00    +0.000 HD
ENDBRANCH   2   4
BRANCH   2  15
ATOM     15  C   UNL     1       6.181   4.667  16.025  0.00  0.00    +0.000 A 
ATOM     16  C   UNL     1       5.708   3.803  15.024  0.00  0.00    +0.000 A 
ATOM     17  C   UNL     1       6.177   3.934  13.719  0.00  0.00    +0.000 A 
ATOM     18 BR   UNL     1       5.543   2.770  12.373  0.00  0.00    +0.000 Br
ATOM     19  C   UNL     1       7.108   4.917  13.399  0.00  0.00    +0.000 A 
ATOM     20  C   UNL     1       7.570   5.782  14.395  0.00  0.00    +0.000 A 
ATOM     21  C   UNL     1       7.107   5.665  15.713  0.00  0.00    +0.000 A 
ATOM     22 CL   UNL     1       7.742   6.791  16.857  0.00  0.00    +0.000 Cl
ENDBRANCH   2  15
TORSDOF 2
ENDMDL
MODEL 3
REMARK VINA RESULT:      -8.3      3.809      4.869
REMARK  Name = 
REMARK  2 active torsions:
REMARK  status: ('A' for Active; 'I' for Inactive)
REMARK    1  A    between atoms: S_2  and  N_4
REMARK    2  A    between atoms: S_2  and  C_14
REMARK                            x       y       z     vdW  Elec       q    Type
REMARK                         _______ _______ _______ _____ _____    ______ ____
ROOT
ATOM      1  O   UNL     1       6.296   7.313  17.532  0.00  0.00    +0.000 OA
ATOM      2  S   UNL     1       5.672   6.395  16.601  0.00  0.00    +0.000 S 
ATOM      3  O   UNL     1       5.202   6.889  15.324  0.00  0.00    +0.000 OA
ENDROOT
BRANCH   2   4
ATOM      4  N   UNL     1       6.752   5.141  16.240  0.00  0.00    +0.000 N 
ATOM      5  C   UNL     1       7.145   5.140  14.876  0.00  0.00    +0.000 A 
ATOM      6  N   UNL     1       8.194   5.807  14.445  0.00  0.00    +0.000 NA
ATOM      7  N   UNL     1       8.372   5.504  13.110  0.00  0.00    +0.000 NA
ATOM      8  C   UNL     1       7.412   4.678  12.753  0.00  0.00    +0.000 A 
ATOM      9  C   UNL     1       7.089   4.039  11.524  0.00  0.00    +0.000 A 
ATOM     10  C   UNL     1       5.993   3.256  11.450  0.00  0.00    +0.000 A 
ATOM     11  C   UNL     1       5.126   3.048  12.602  0.00  0.00    +0.000 A 
ATOM     12  C   UNL     1       5.445   3.631  13.771  0.00  0.00    +0.000 A 
ATOM     13  N   UNL     1       6.585   4.429  13.838  0.00  0.00    +0.000 N 
ATOM     14  H   UNL     1       6.317   4.284  16.576  0.00  0.00    +0.000 HD
ENDBRANCH   2   4
BRANCH   2  15
ATOM     15  C   UNL     1       4.327   5.582  17.404  0.00  0.00    +0.000 A 
ATOM     16  C   UNL     1       4.390   4.185  17.536  0.00  0.00    +0.000 A 
ATOM     17  C   UNL     1       3.355   3.504  18.174  0.00  0.00    +0.000 A 
ATOM     18 BR   UNL     1       3.438   1.625  18.350  0.00  0.00    +0.000 Br
ATOM     19  C   UNL     1       2.262   4.198  18.684  0.00  0.00    +0.000 A 
ATOM     20  C   UNL     1       2.208   5.588  18.559  0.00  0.00    +0.000 A 
ATOM     21  C   UNL     1       3.240   6.290  17.923  0.00  0.00    +0.000 A 
ATOM     22 CL   UNL     1       3.068   8.005  17.833  0.00  0.00    +0.000 Cl
ENDBRANCH   2  15
TORSDOF 2
ENDMDL
MODEL 4
REMARK VINA RESULT:      -7.8      3.238      4.920
REMARK  Name = 
REMARK  2 active torsions:
REMARK  status: ('A' for Active; 'I' for Inactive)
REMARK    1  A    between atoms: S_2  and  N_4
REMARK    2  A    between atoms: S_2  and  C_14
REMARK                            x       y       z     vdW  Elec       q    Type
REMARK                         _______ _______ _______ _____ _____    ______ ____
ROOT
ATOM      1  O   UNL     1       6.485   5.041  19.733  0.00  0.00    +0.000 OA
ATOM      2  S   UNL     1       5.952   4.949  18.389  0.00  0.00    +0.000 S 
ATOM      3  O   UNL     1       6.829   5.178  17.261  0.00  0.00    +0.000 OA
ENDROOT
BRANCH   2   4
ATOM      4  N   UNL     1       5.289   3.409  18.152  0.00  0.00    +0.000 N 
ATOM      5  C   UNL     1       3.870   3.417  18.200  0.00  0.00    +0.000 A 
ATOM      6  N   UNL     1       3.131   3.607  17.129  0.00  0.00    +0.000 NA
ATOM      7  N   UNL     1       1.808   3.437  17.489  0.00  0.00    +0.000 NA
ATOM      8  C   UNL     1       1.773   3.171  18.777  0.00  0.00    +0.000 A 
ATOM      9  C   UNL     1       0.710   2.908  19.684  0.00  0.00    +0.000 A 
ATOM     10  C   UNL     1       0.984   2.702  20.989  0.00  0.00    +0.000 A 
ATOM     11  C   UNL     1       2.349   2.745  21.496  0.00  0.00    +0.000 A 
ATOM     12  C   UNL     1       3.358   2.968  20.634  0.00  0.00    +0.000 A 
ATOM     13  N   UNL     1       3.063   3.169  19.288  0.00  0.00    +0.000 N 
ATOM     14  H   UNL     1       5.751   2.793  18.819  0.00  0.00    +0.000 HD
ENDBRANCH   2   4
BRANCH   2  15
ATOM     15  C   UNL     1       4.571   6.037  18.240  0.00  0.00    +0.000 A 
ATOM     16  C   UNL     1       3.771   6.243  19.376  0.00  0.00    +0.000 A 
ATOM     17  C   UNL     1       2.678   7.102  19.307  0.00  0.00    +0.000 A 
ATOM     18 BR   UNL     1       1.601   7.377  20.834  0.00  0.00    +0.000 Br
ATOM     19  C   UNL     1       2.373   7.762  18.120  0.00  0.00    +0.000 A 
ATOM     20  C   UNL     1       3.176   7.563  16.993  0.00  0.00    +0.000 A 
ATOM     21  C   UNL     1       4.281   6.703  17.046  0.00  0.00    +0.000 A 
ATOM     22 CL   UNL     1       5.203   6.539  15.596  0.00  0.00    +0.000 Cl
ENDBRANCH   2  15
TORSDOF 2
ENDMDL
MODEL 5
REMARK VINA RESULT:      -7.4      3.056      5.710
REMARK  Name = 
REMARK  2 active torsions:
REMARK  status: ('A' for Active; 'I' for Inactive)
REMARK    1  A    between atoms: S_2  and  N_4
REMARK    2  A    between atoms: S_2  and  C_14
REMARK                            x       y       z     vdW  Elec       q    Type
REMARK                         _______ _______ _______ _____ _____    ______ ____
ROOT
ATOM      1  O   UNL     1       2.845   5.139  17.199  0.00  0.00    +0.000 OA
ATOM      2  S   UNL     1       3.990   6.008  17.379  0.00  0.00    +0.000 S 
ATOM      3  O   UNL     1       3.828   7.437  17.221  0.00  0.00    +0.000 OA
ENDROOT
BRANCH   2   4
ATOM      4  N   UNL     1       4.625   5.785  18.933  0.00  0.00    +0.000 N 
ATOM      5  C   UNL     1       4.417   4.468  19.420  0.00  0.00    +0.000 A 
ATOM      6  N   UNL     1       5.283   3.498  19.217  0.00  0.00    +0.000 NA
ATOM      7  N   UNL     1       4.849   2.387  19.914  0.00  0.00    +0.000 NA
ATOM      8  C   UNL     1       3.716   2.700  20.505  0.00  0.00    +0.000 A 
ATOM      9  C   UNL     1       2.824   1.973  21.340  0.00  0.00    +0.000 A 
ATOM     10  C   UNL     1       1.691   2.561  21.775  0.00  0.00    +0.000 A 
ATOM     11  C   UNL     1       1.354   3.930  21.407  0.00  0.00    +0.000 A 
ATOM     12  C   UNL     1       2.209   4.627  20.638  0.00  0.00    +0.000 A 
ATOM     13  N   UNL     1       3.380   4.012  20.203  0.00  0.00    +0.000 N 
ATOM     14  H   UNL     1       4.244   6.534  19.508  0.00  0.00    +0.000 HD
ENDBRANCH   2   4
BRANCH   2  15
ATOM     15  C   UNL     1       5.289   5.480  16.307  0.00  0.00    +0.000 A 
ATOM     16  C   UNL     1       4.934   4.798  15.132  0.00  0.00    +0.000 A 
ATOM     17  C   UNL     1       5.927   4.374  14.252  0.00  0.00    +0.000 A 
ATOM     18 BR   UNL     1       5.450   3.454  12.672  0.00  0.00    +0.000 Br
ATOM     19  C   UNL     1       7.268   4.625  14.526  0.00  0.00    +0.000 A 
ATOM     20  C   UNL     1       7.618   5.312  15.692  0.00  0.00    +0.000 A 
ATOM     21  C   UNL     1       6.632   5.747  16.587  0.00  0.00    +0.000 A 
ATOM     22 CL   UNL     1       7.180   6.591  17.990  0.00  0.00    +0.000 Cl
ENDBRANCH   2  15
TORSDOF 2
ENDMDL
MODEL 6
REMARK VINA RESULT:      -7.4      3.187      5.196
REMARK  Name = 
REMARK  2 active torsions:
REMARK  status: ('A' for Active; 'I' for Inactive)
REMARK    1  A    between atoms: S_2  and  N_4
REMARK    2  A    between atoms: S_2  and  C_14
REMARK                            x       y       z     vdW  Elec       q    Type
REMARK                         _______ _______ _______ _____ _____    ______ ____
ROOT
ATOM      1  O   UNL     1       6.030   5.058  20.074  0.00  0.00    +0.000 OA
ATOM      2  S   UNL     1       6.292   4.582  18.731  0.00  0.00    +0.000 S 
ATOM      3  O   UNL     1       7.661   4.398  18.298  0.00  0.00    +0.000 OA
ENDROOT
BRANCH   2   4
ATOM      4  N   UNL     1       5.533   3.086  18.506  0.00  0.00    +0.000 N 
ATOM      5  C   UNL     1       4.122   3.204  18.400  0.00  0.00    +0.000 A 
ATOM      6  N   UNL     1       3.516   3.383  17.246  0.00  0.00    +0.000 NA
ATOM      7  N   UNL     1       2.154   3.337  17.469  0.00  0.00    +0.000 NA
ATOM      8  C   UNL     1       1.963   3.154  18.758  0.00  0.00    +0.000 A 
ATOM      9  C   UNL     1       0.794   3.030  19.557  0.00  0.00    +0.000 A 
ATOM     10  C   UNL     1       0.913   2.885  20.893  0.00  0.00    +0.000 A 
ATOM     11  C   UNL     1       2.217   2.855  21.542  0.00  0.00    +0.000 A 
ATOM     12  C   UNL     1       3.324   2.947  20.784  0.00  0.00    +0.000 A 
ATOM     13  N   UNL     1       3.188   3.086  19.405  0.00  0.00    +0.000 N 
ATOM     14  H   UNL     1       5.871   2.479  19.251  0.00  0.00    +0.000 HD
ENDBRANCH   2   4
BRANCH   2  15
ATOM     15  C   UNL     1       5.489   5.646  17.575  0.00  0.00    +0.000 A 
ATOM     16  C   UNL     1       4.481   6.498  18.056  0.00  0.00    +0.000 A 
ATOM     17  C   UNL     1       3.829   7.363  17.180  0.00  0.00    +0.000 A 
ATOM     18 BR   UNL     1       2.471   8.505  17.828  0.00  0.00    +0.000 Br
ATOM     19  C   UNL     1       4.172   7.392  15.832  0.00  0.00    +0.000 A 
ATOM     20  C   UNL     1       5.182   6.551  15.357  0.00  0.00    +0.000 A 
ATOM     21  C   UNL     1       5.850   5.677  16.225  0.00  0.00    +0.000 A 
ATOM     22 CL   UNL     1       7.083   4.690  15.529  0.00  0.00    +0.000 Cl
ENDBRANCH   2  15
TORSDOF 2
ENDMDL
MODEL 7
REMARK VINA RESULT:      -7.4      3.375      5.197
REMARK  Name = 
REMARK  2 active torsions:
REMARK  status: ('A' for Active; 'I' for Inactive)
REMARK    1  A    between atoms: S_2  and  N_4
REMARK    2  A    between atoms: S_2  and  C_14
REMARK                            x       y       z     vdW  Elec       q    Type
REMARK                         _______ _______ _______ _____ _____    ______ ____
ROOT
ATOM      1  O   UNL     1       2.032   3.570  21.803  0.00  0.00    +0.000 OA
ATOM      2  S   UNL     1       1.853   4.542  20.744  0.00  0.00    +0.000 S 
ATOM      3  O   UNL     1       0.515   4.878  20.307  0.00  0.00    +0.000 OA
ENDROOT
BRANCH   2   4
ATOM      4  N   UNL     1       2.571   6.006  21.198  0.00  0.00    +0.000 N 
ATOM      5  C   UNL     1       1.766   7.129  20.871  0.00  0.00    +0.000 A 
ATOM      6  N   UNL     1       0.870   7.619  21.700  0.00  0.00    +0.000 NA
ATOM      7  N   UNL     1       0.351   8.767  21.137  0.00  0.00    +0.000 NA
ATOM      8  C   UNL     1       0.926   8.937  19.966  0.00  0.00    +0.000 A 
ATOM      9  C   UNL     1       0.793   9.927  18.954  0.00  0.00    +0.000 A 
ATOM     10  C   UNL     1       1.505   9.813  17.814  0.00  0.00    +0.000 A 
ATOM     11  C   UNL     1       2.410   8.694  17.590  0.00  0.00    +0.000 A 
ATOM     12  C   UNL     1       2.556   7.770  18.558  0.00  0.00    +0.000 A 
ATOM     13  N   UNL     1       1.823   7.904  19.734  0.00  0.00    +0.000 N 
ATOM     14  H   UNL     1       3.508   6.002  20.799  0.00  0.00    +0.000 HD
ENDBRANCH   2   4
BRANCH   2  15
ATOM     15  C   UNL     1       2.780   4.033  19.330  0.00  0.00    +0.000 A 
ATOM     16  C   UNL     1       4.049   4.603  19.137  0.00  0.00    +0.000 A 
ATOM     17  C   UNL     1       4.819   4.222  18.041  0.00  0.00    +0.000 A 
ATOM     18 BR   UNL     1       6.524   4.991  17.780  0.00  0.00    +0.000 Br
ATOM     19  C   UNL     1       4.343   3.277  17.138  0.00  0.00    +0.000 A 
ATOM     20  C   UNL     1       3.084   2.703  17.338  0.00  0.00    +0.000 A 
ATOM     21  C   UNL     1       2.296   3.074  18.436  0.00  0.00    +0.000 A 
ATOM     22 CL   UNL     1       0.763   2.296  18.585  0.00  0.00    +0.000 Cl
ENDBRANCH   2  15
TORSDOF 2
ENDMDL
MODEL 8
REMARK VINA RESULT:      -7.4      3.297      5.583
REMARK  Name = 
REMARK  2 active torsions:
REMARK  status: ('A' for Active; 'I' for Inactive)
REMARK    1  A    between atoms: S_2  and  N_4
REMARK    2  A    between atoms: S_2  and  C_14
REMARK                            x       y       z     vdW  Elec       q    Type
REMARK                         _______ _______ _______ _____ _____    ______ ____
ROOT
ATOM      1  O   UNL     1       5.267   5.634  19.703  0.00  0.00    +0.000 OA
ATOM      2  S   UNL     1       6.062   4.830  18.797  0.00  0.00    +0.000 S 
ATOM      3  O   UNL     1       7.492   4.737  18.999  0.00  0.00    +0.000 OA
ENDROOT
BRANCH   2   4
ATOM      4  N   UNL     1       5.490   3.237  18.811  0.00  0.00    +0.000 N 
ATOM      5  C   UNL     1       4.096   3.158  18.556  0.00  0.00    +0.000 A 
ATOM      6  N   UNL     1       3.609   3.039  17.339  0.00  0.00    +0.000 NA
ATOM      7  N   UNL     1       2.242   2.868  17.443  0.00  0.00    +0.000 NA
ATOM      8  C   UNL     1       1.927   2.912  18.720  0.00  0.00    +0.000 A 
ATOM      9  C   UNL     1       0.694   2.799  19.418  0.00  0.00    +0.000 A 
ATOM     10  C   UNL     1       0.676   2.927  20.761  0.00  0.00    +0.000 A 
ATOM     11  C   UNL     1       1.894   3.181  21.518  0.00  0.00    +0.000 A 
ATOM     12  C   UNL     1       3.065   3.263  20.861  0.00  0.00    +0.000 A 
ATOM     13  N   UNL     1       3.072   3.119  19.475  0.00  0.00    +0.000 N 
ATOM     14  H   UNL     1       5.802   2.829  19.690  0.00  0.00    +0.000 HD
ENDBRANCH   2   4
BRANCH   2  15
ATOM     15  C   UNL     1       5.775   5.372  17.142  0.00  0.00    +0.000 A 
ATOM     16  C   UNL     1       6.435   4.692  16.105  0.00  0.00    +0.000 A 
ATOM     17  C   UNL     1       6.228   5.079  14.783  0.00  0.00    +0.000 A 
ATOM     18 BR   UNL     1       7.118   4.166  13.389  0.00  0.00    +0.000 Br
ATOM     19  C   UNL     1       5.370   6.131  14.482  0.00  0.00    +0.000 A 
ATOM     20  C   UNL     1       4.707   6.800  15.514  0.00  0.00    +0.000 A 
ATOM     21  C   UNL     1       4.901   6.423  16.850  0.00  0.00    +0.000 A 
ATOM     22 CL   UNL     1       4.026   7.315  18.040  0.00  0.00    +0.000 Cl
ENDBRANCH   2  15
TORSDOF 2
ENDMDL
MODEL 9
REMARK VINA RESULT:      -7.4      3.081      3.793
REMARK  Name = 
REMARK  2 active torsions:
REMARK  status: ('A' for Active; 'I' for Inactive)
REMARK    1  A    between atoms: S_2  and  N_4
REMARK    2  A    between atoms: S_2  and  C_14
REMARK                            x       y       z     vdW  Elec       q    Type
REMARK                         _______ _______ _______ _____ _____    ______ ____
ROOT
ATOM      1  O   UNL     1       1.976   5.150  20.809  0.00  0.00    +0.000 OA
ATOM      2  S   UNL     1       2.565   6.059  19.847  0.00  0.00    +0.000 S 
ATOM      3  O   UNL     1       3.998   6.259  19.845  0.00  0.00    +0.000 OA
ENDROOT
BRANCH   2   4
ATOM      4  N   UNL     1       2.168   5.552  18.281  0.00  0.00    +0.000 N 
ATOM      5  C   UNL     1       3.115   4.636  17.751  0.00  0.00    +0.000 A 
ATOM      6  N   UNL     1       3.003   3.336  17.912  0.00  0.00    +0.000 NA
ATOM      7  N   UNL     1       4.005   2.728  17.182  0.00  0.00    +0.000 NA
ATOM      8  C   UNL     1       4.719   3.675  16.613  0.00  0.00    +0.000 A 
ATOM      9  C   UNL     1       5.857   3.653  15.761  0.00  0.00    +0.000 A 
ATOM     10  C   UNL     1       6.409   4.815  15.356  0.00  0.00    +0.000 A 
ATOM     11  C   UNL     1       5.867   6.101  15.774  0.00  0.00    +0.000 A 
ATOM     12  C   UNL     1       4.775   6.124  16.559  0.00  0.00    +0.000 A 
ATOM     13  N   UNL     1       4.208   4.917  16.962  0.00  0.00    +0.000 N 
ATOM     14  H   UNL     1       2.019   6.399  17.735  0.00  0.00    +0.000 HD
ENDBRANCH   2   4
BRANCH   2  15
ATOM     15  C   UNL     1       1.790   7.637  19.994  0.00  0.00    +0.000 A 
ATOM     16  C   UNL     1       1.149   7.944  21.206  0.00  0.00    +0.000 A 
ATOM     17  C   UNL     1       0.535   9.183  21.369  0.00  0.00    +0.000 A 
ATOM     18 BR   UNL     1      -0.329   9.594  22.998  0.00  0.00    +0.000 Br
ATOM     19  C   UNL     1       0.554  10.121  20.342  0.00  0.00    +0.000 A 
ATOM     20  C   UNL     1       1.201   9.818  19.141  0.00  0.00    +0.000 A 
ATOM     21  C   UNL     1       1.826   8.577  18.960  0.00  0.00    +0.000 A 
ATOM     22 CL   UNL     1       2.598   8.315  17.439  0.00  0.00    +0.000 Cl
ENDBRANCH   2  15
TORSDOF 2
ENDMDL
