MODEL 1
REMARK VINA RESULT:      -7.9      0.000      0.000
REMARK  Name = 
REMARK  6 active torsions:
REMARK  status: ('A' for Active; 'I' for Inactive)
REMARK    1  A    between atoms: C_1  and  C_2
REMARK    2  A    between atoms: C_2  and  N_3
REMARK    3  A    between atoms: C_2  and  C_18
REMARK    4  A    between atoms: C_4  and  C_6
REMARK    5  A    between atoms: C_6  and  N_7
REMARK    6  A    between atoms: C_8  and  C_10
REMARK                            x       y       z     vdW  Elec       q    Type
REMARK                         _______ _______ _______ _____ _____    ______ ____
ROOT
ATOM      1  C   UNL     1       1.704   9.698  18.490  0.00  0.00    +0.000 C 
ENDROOT
BRANCH   1   3
ATOM      2  N   UNL     1       2.291   7.322  18.610  0.00  0.00    +0.000 N 
ATOM      3  C   UNL     1       2.367   8.474  17.857  0.00  0.00    +0.000 C 
ATOM      4  O   UNL     1       2.984   8.554  16.796  0.00  0.00    +0.000 OA
ATOM      5  H   UNL     1       1.872   7.373  19.534  0.00  0.00    +0.000 HD
BRANCH   2   7
ATOM      6  C   UNL     1       4.388   6.062  18.422  0.00  0.00    +0.000 C 
ATOM      7  C   UNL     1       2.877   6.062  18.180  0.00  0.00    +0.000 C 
BRANCH   7   8
ATOM      8  C   UNL     1       2.147   4.897  18.830  0.00  0.00    +0.000 A 
ATOM      9  C   UNL     1       1.635   3.870  18.017  0.00  0.00    +0.000 A 
ATOM     10  C   UNL     1       0.953   2.784  18.572  0.00  0.00    +0.000 A 
ATOM     11  C   UNL     1       0.770   2.707  19.950  0.00  0.00    +0.000 A 
ATOM     12  C   UNL     1       1.266   3.717  20.771  0.00  0.00    +0.000 A 
ATOM     13  C   UNL     1       1.943   4.807  20.216  0.00  0.00    +0.000 A 
ENDBRANCH   7   8
ENDBRANCH   2   7
ENDBRANCH   1   3
BRANCH   1  14
ATOM     14  N   UNL     1       0.425   9.986  17.863  0.00  0.00    +0.000 N 
ATOM     15  C   UNL     1      -0.700  10.194  18.628  0.00  0.00    +0.000 C 
ATOM     16  O   UNL     1      -0.688  10.149  19.854  0.00  0.00    +0.000 OA
ATOM     17  H   UNL     1       0.443  10.273  16.892  0.00  0.00    +0.000 HD
BRANCH  15  18
ATOM     18  C   UNL     1      -1.958  10.517  17.900  0.00  0.00    +0.000 A 
ATOM     19  C   UNL     1      -2.991  11.250  18.492  0.00  0.00    +0.000 A 
ATOM     20  C   UNL     1      -4.130  11.542  17.747  0.00  0.00    +0.000 A 
ATOM     21  F   UNL     1      -5.117  12.251  18.313  0.00  0.00    +0.000 F 
ATOM     22  C   UNL     1      -4.262  11.127  16.428  0.00  0.00    +0.000 A 
ATOM     23  C   UNL     1      -3.226  10.408  15.840  0.00  0.00    +0.000 A 
ATOM     24 CL   UNL     1      -3.369   9.891  14.205  0.00  0.00    +0.000 Cl
ATOM     25  C   UNL     1      -2.074  10.106  16.565  0.00  0.00    +0.000 A 
ENDBRANCH  15  18
ENDBRANCH   1  14
TORSDOF 5
ENDMDL
MODEL 2
REMARK VINA RESULT:      -7.8      1.539      1.840
REMARK  Name = 
REMARK  6 active torsions:
REMARK  status: ('A' for Active; 'I' for Inactive)
REMARK    1  A    between atoms: C_1  and  C_2
REMARK    2  A    between atoms: C_2  and  N_3
REMARK    3  A    between atoms: C_2  and  C_18
REMARK    4  A    between atoms: C_4  and  C_6
REMARK    5  A    between atoms: C_6  and  N_7
REMARK    6  A    between atoms: C_8  and  C_10
REMARK                            x       y       z     vdW  Elec       q    Type
REMARK                         _______ _______ _______ _____ _____    ______ ____
ROOT
ATOM      1  C   UNL     1       1.596   9.622  18.533  0.00  0.00    +0.000 C 
ENDROOT
BRANCH   1   3
ATOM      2  N   UNL     1       2.255   7.274  18.767  0.00  0.00    +0.000 N 
ATOM      3  C   UNL     1       2.253   8.375  17.939  0.00  0.00    +0.000 C 
ATOM      4  O   UNL     1       2.801   8.400  16.838  0.00  0.00    +0.000 OA
ATOM      5  H   UNL     1       1.893   7.374  19.711  0.00  0.00    +0.000 HD
BRANCH   2   7
ATOM      6  C   UNL     1       4.376   6.086  18.428  0.00  0.00    +0.000 C 
ATOM      7  C   UNL     1       2.849   6.002  18.382  0.00  0.00    +0.000 C 
BRANCH   7   8
ATOM      8  C   UNL     1       2.266   4.877  19.222  0.00  0.00    +0.000 A 
ATOM      9  C   UNL     1       1.488   3.886  18.596  0.00  0.00    +0.000 A 
ATOM     10  C   UNL     1       0.930   2.838  19.331  0.00  0.00    +0.000 A 
ATOM     11  C   UNL     1       1.137   2.762  20.706  0.00  0.00    +0.000 A 
ATOM     12  C   UNL     1       1.899   3.737  21.344  0.00  0.00    +0.000 A 
ATOM     13  C   UNL     1       2.453   4.790  20.611  0.00  0.00    +0.000 A 
ENDBRANCH   7   8
ENDBRANCH   2   7
ENDBRANCH   1   3
BRANCH   1  14
ATOM     14  N   UNL     1       0.344   9.928  17.861  0.00  0.00    +0.000 N 
ATOM     15  C   UNL     1      -0.786  10.229  18.587  0.00  0.00    +0.000 C 
ATOM     16  O   UNL     1      -0.802  10.256  19.813  0.00  0.00    +0.000 OA
ATOM     17  H   UNL     1       0.395  10.157  16.876  0.00  0.00    +0.000 HD
BRANCH  15  18
ATOM     18  C   UNL     1      -2.013  10.564  17.812  0.00  0.00    +0.000 A 
ATOM     19  C   UNL     1      -2.190  10.152  16.488  0.00  0.00    +0.000 A 
ATOM     20  C   UNL     1      -3.373  10.473  15.828  0.00  0.00    +0.000 A 
ATOM     21  F   UNL     1      -3.545  10.071  14.562  0.00  0.00    +0.000 F 
ATOM     22  C   UNL     1      -4.383  11.191  16.457  0.00  0.00    +0.000 A 
ATOM     23  C   UNL     1      -4.207  11.588  17.779  0.00  0.00    +0.000 A 
ATOM     24 CL   UNL     1      -5.449  12.471  18.575  0.00  0.00    +0.000 Cl
ATOM     25  C   UNL     1      -3.031  11.275  18.461  0.00  0.00    +0.000 A 
ENDBRANCH  15  18
ENDBRANCH   1  14
TORSDOF 5
ENDMDL
MODEL 3
REMARK VINA RESULT:      -7.7      4.341      6.274
REMARK  Name = 
REMARK  6 active torsions:
REMARK  status: ('A' for Active; 'I' for Inactive)
REMARK    1  A    between atoms: C_1  and  C_2
REMARK    2  A    between atoms: C_2  and  N_3
REMARK    3  A    between atoms: C_2  and  C_18
REMARK    4  A    between atoms: C_4  and  C_6
REMARK    5  A    between atoms: C_6  and  N_7
REMARK    6  A    between atoms: C_8  and  C_10
REMARK                            x       y       z     vdW  Elec       q    Type
REMARK                         _______ _______ _______ _____ _____    ______ ____
ROOT
ATOM      1  C   UNL     1       2.377   3.567  18.005  0.00  0.00    +0.000 C 
ENDROOT
BRANCH   1   3
ATOM      2  N   UNL     1       4.395   4.100  16.721  0.00  0.00    +0.000 N 
ATOM      3  C   UNL     1       3.882   3.399  17.790  0.00  0.00    +0.000 C 
ATOM      4  O   UNL     1       4.547   2.628  18.481  0.00  0.00    +0.000 OA
ATOM      5  H   UNL     1       3.752   4.615  16.125  0.00  0.00    +0.000 HD
BRANCH   2   7
ATOM      6  C   UNL     1       5.960   4.169  14.833  0.00  0.00    +0.000 C 
ATOM      7  C   UNL     1       5.801   4.052  16.350  0.00  0.00    +0.000 C 
BRANCH   7   8
ATOM      8  C   UNL     1       6.585   5.091  17.136  0.00  0.00    +0.000 A 
ATOM      9  C   UNL     1       6.611   6.421  16.678  0.00  0.00    +0.000 A 
ATOM     10  C   UNL     1       7.323   7.406  17.366  0.00  0.00    +0.000 A 
ATOM     11  C   UNL     1       8.025   7.078  18.523  0.00  0.00    +0.000 A 
ATOM     12  C   UNL     1       8.017   5.766  18.989  0.00  0.00    +0.000 A 
ATOM     13  C   UNL     1       7.308   4.778  18.297  0.00  0.00    +0.000 A 
ENDBRANCH   7   8
ENDBRANCH   2   7
ENDBRANCH   1   3
BRANCH   1  14
ATOM     14  N   UNL     1       2.028   4.963  18.211  0.00  0.00    +0.000 N 
ATOM     15  C   UNL     1       2.369   5.605  19.379  0.00  0.00    +0.000 C 
ATOM     16  O   UNL     1       2.972   5.050  20.292  0.00  0.00    +0.000 OA
ATOM     17  H   UNL     1       1.765   5.497  17.392  0.00  0.00    +0.000 HD
BRANCH  15  18
ATOM     18  C   UNL     1       2.001   7.044  19.487  0.00  0.00    +0.000 A 
ATOM     19  C   UNL     1       2.117   7.923  18.406  0.00  0.00    +0.000 A 
ATOM     20  C   UNL     1       1.730   9.250  18.564  0.00  0.00    +0.000 A 
ATOM     21  F   UNL     1       1.835  10.091  17.526  0.00  0.00    +0.000 F 
ATOM     22  C   UNL     1       1.226   9.721  19.771  0.00  0.00    +0.000 A 
ATOM     23  C   UNL     1       1.100   8.840  20.840  0.00  0.00    +0.000 A 
ATOM     24 CL   UNL     1       0.472   9.402  22.339  0.00  0.00    +0.000 Cl
ATOM     25  C   UNL     1       1.479   7.504  20.704  0.00  0.00    +0.000 A 
ENDBRANCH  15  18
ENDBRANCH   1  14
TORSDOF 5
ENDMDL
MODEL 4
REMARK VINA RESULT:      -7.7      4.374      6.308
REMARK  Name = 
REMARK  6 active torsions:
REMARK  status: ('A' for Active; 'I' for Inactive)
REMARK    1  A    between atoms: C_1  and  C_2
REMARK    2  A    between atoms: C_2  and  N_3
REMARK    3  A    between atoms: C_2  and  C_18
REMARK    4  A    between atoms: C_4  and  C_6
REMARK    5  A    between atoms: C_6  and  N_7
REMARK    6  A    between atoms: C_8  and  C_10
REMARK                            x       y       z     vdW  Elec       q    Type
REMARK                         _______ _______ _______ _____ _____    ______ ____
ROOT
ATOM      1  C   UNL     1       2.255   3.449  18.034  0.00  0.00    +0.000 C 
ENDROOT
BRANCH   1   3
ATOM      2  N   UNL     1       4.216   4.135  16.735  0.00  0.00    +0.000 N 
ATOM      3  C   UNL     1       3.734   3.268  17.691  0.00  0.00    +0.000 C 
ATOM      4  O   UNL     1       4.402   2.360  18.185  0.00  0.00    +0.000 OA
ATOM      5  H   UNL     1       3.565   4.773  16.286  0.00  0.00    +0.000 HD
BRANCH   2   7
ATOM      6  C   UNL     1       5.648   4.265  14.747  0.00  0.00    +0.000 C 
ATOM      7  C   UNL     1       5.594   4.105  16.268  0.00  0.00    +0.000 C 
BRANCH   7   8
ATOM      8  C   UNL     1       6.426   5.125  17.027  0.00  0.00    +0.000 A 
ATOM      9  C   UNL     1       7.184   4.704  18.135  0.00  0.00    +0.000 A 
ATOM     10  C   UNL     1       7.959   5.610  18.864  0.00  0.00    +0.000 A 
ATOM     11  C   UNL     1       7.988   6.953  18.499  0.00  0.00    +0.000 A 
ATOM     12  C   UNL     1       7.241   7.390  17.409  0.00  0.00    +0.000 A 
ATOM     13  C   UNL     1       6.460   6.486  16.682  0.00  0.00    +0.000 A 
ENDBRANCH   7   8
ENDBRANCH   2   7
ENDBRANCH   1   3
BRANCH   1  14
ATOM     14  N   UNL     1       1.931   4.850  18.244  0.00  0.00    +0.000 N 
ATOM     15  C   UNL     1       2.333   5.498  19.390  0.00  0.00    +0.000 C 
ATOM     16  O   UNL     1       2.971   4.944  20.279  0.00  0.00    +0.000 OA
ATOM     17  H   UNL     1       1.636   5.380  17.434  0.00  0.00    +0.000 HD
BRANCH  15  18
ATOM     18  C   UNL     1       1.986   6.942  19.502  0.00  0.00    +0.000 A 
ATOM     19  C   UNL     1       2.122   7.824  18.426  0.00  0.00    +0.000 A 
ATOM     20  C   UNL     1       1.753   9.156  18.588  0.00  0.00    +0.000 A 
ATOM     21  F   UNL     1       1.877  10.000  17.554  0.00  0.00    +0.000 F 
ATOM     22  C   UNL     1       1.249   9.629  19.794  0.00  0.00    +0.000 A 
ATOM     23  C   UNL     1       1.104   8.744  20.858  0.00  0.00    +0.000 A 
ATOM     24 CL   UNL     1       0.474   9.309  22.356  0.00  0.00    +0.000 Cl
ATOM     25  C   UNL     1       1.463   7.404  20.718  0.00  0.00    +0.000 A 
ENDBRANCH  15  18
ENDBRANCH   1  14
TORSDOF 5
ENDMDL
MODEL 5
REMARK VINA RESULT:      -7.6      6.127      8.605
REMARK  Name = 
REMARK  6 active torsions:
REMARK  status: ('A' for Active; 'I' for Inactive)
REMARK    1  A    between atoms: C_1  and  C_2
REMARK    2  A    between atoms: C_2  and  N_3
REMARK    3  A    between atoms: C_2  and  C_18
REMARK    4  A    between atoms: C_4  and  C_6
REMARK    5  A    between atoms: C_6  and  N_7
REMARK    6  A    between atoms: C_8  and  C_10
REMARK                            x       y       z     vdW  Elec       q    Type
REMARK                         _______ _______ _______ _____ _____    ______ ____
ROOT
ATOM      1  C   UNL     1       7.220   6.429  16.765  0.00  0.00    +0.000 C 
ENDROOT
BRANCH   1   3
ATOM      2  N   UNL     1       5.111   5.353  17.399  0.00  0.00    +0.000 N 
ATOM      3  C   UNL     1       5.718   6.245  16.542  0.00  0.00    +0.000 C 
ATOM      4  O   UNL     1       5.134   6.800  15.611  0.00  0.00    +0.000 OA
ATOM      5  H   UNL     1       5.691   4.843  18.059  0.00  0.00    +0.000 HD
BRANCH   2   7
ATOM      6  C   UNL     1       3.485   3.524  17.230  0.00  0.00    +0.000 C 
ATOM      7  C   UNL     1       3.693   5.037  17.330  0.00  0.00    +0.000 C 
BRANCH   7   8
ATOM      8  C   UNL     1       2.954   5.687  18.489  0.00  0.00    +0.000 A 
ATOM      9  C   UNL     1       2.459   4.876  19.527  0.00  0.00    +0.000 A 
ATOM     10  C   UNL     1       1.770   5.432  20.608  0.00  0.00    +0.000 A 
ATOM     11  C   UNL     1       1.560   6.807  20.669  0.00  0.00    +0.000 A 
ATOM     12  C   UNL     1       2.037   7.625  19.648  0.00  0.00    +0.000 A 
ATOM     13  C   UNL     1       2.722   7.069  18.563  0.00  0.00    +0.000 A 
ENDBRANCH   7   8
ENDBRANCH   2   7
ENDBRANCH   1   3
BRANCH   1  14
ATOM     14  N   UNL     1       7.549   7.824  16.999  0.00  0.00    +0.000 N 
ATOM     15  C   UNL     1       8.225   8.203  18.137  0.00  0.00    +0.000 C 
ATOM     16  O   UNL     1       8.579   7.405  18.998  0.00  0.00    +0.000 OA
ATOM     17  H   UNL     1       7.495   8.449  16.205  0.00  0.00    +0.000 HD
BRANCH  15  18
ATOM     18  C   UNL     1       8.550   9.650  18.275  0.00  0.00    +0.000 A 
ATOM     19  C   UNL     1       7.971  10.623  17.456  0.00  0.00    +0.000 A 
ATOM     20  C   UNL     1       8.295  11.961  17.654  0.00  0.00    +0.000 A 
ATOM     21  F   UNL     1       7.734  12.894  16.873  0.00  0.00    +0.000 F 
ATOM     22  C   UNL     1       9.180  12.354  18.652  0.00  0.00    +0.000 A 
ATOM     23  C   UNL     1       9.745  11.383  19.473  0.00  0.00    +0.000 A 
ATOM     24 CL   UNL     1      10.837  11.850  20.717  0.00  0.00    +0.000 Cl
ATOM     25  C   UNL     1       9.432  10.036  19.294  0.00  0.00    +0.000 A 
ENDBRANCH  15  18
ENDBRANCH   1  14
TORSDOF 5
ENDMDL
MODEL 6
REMARK VINA RESULT:      -7.6      2.226      3.561
REMARK  Name = 
REMARK  6 active torsions:
REMARK  status: ('A' for Active; 'I' for Inactive)
REMARK    1  A    between atoms: C_1  and  C_2
REMARK    2  A    between atoms: C_2  and  N_3
REMARK    3  A    between atoms: C_2  and  C_18
REMARK    4  A    between atoms: C_4  and  C_6
REMARK    5  A    between atoms: C_6  and  N_7
REMARK    6  A    between atoms: C_8  and  C_10
REMARK                            x       y       z     vdW  Elec       q    Type
REMARK                         _______ _______ _______ _____ _____    ______ ____
ROOT
ATOM      1  C   UNL     1       2.166   9.325  18.089  0.00  0.00    +0.000 C 
ENDROOT
BRANCH   1   3
ATOM      2  N   UNL     1       2.975   7.022  17.864  0.00  0.00    +0.000 N 
ATOM      3  C   UNL     1       2.370   7.937  18.698  0.00  0.00    +0.000 C 
ATOM      4  O   UNL     1       1.945   7.659  19.819  0.00  0.00    +0.000 OA
ATOM      5  H   UNL     1       3.181   7.299  16.908  0.00  0.00    +0.000 HD
BRANCH   2   7
ATOM      6  C   UNL     1       2.106   4.729  17.796  0.00  0.00    +0.000 C 
ATOM      7  C   UNL     1       3.237   5.648  18.262  0.00  0.00    +0.000 C 
BRANCH   7   8
ATOM      8  C   UNL     1       4.617   5.220  17.787  0.00  0.00    +0.000 A 
ATOM      9  C   UNL     1       5.734   5.485  18.600  0.00  0.00    +0.000 A 
ATOM     10  C   UNL     1       7.020   5.113  18.200  0.00  0.00    +0.000 A 
ATOM     11  C   UNL     1       7.212   4.472  16.979  0.00  0.00    +0.000 A 
ATOM     12  C   UNL     1       6.120   4.207  16.158  0.00  0.00    +0.000 A 
ATOM     13  C   UNL     1       4.833   4.583  16.555  0.00  0.00    +0.000 A 
ENDBRANCH   7   8
ENDBRANCH   2   7
ENDBRANCH   1   3
BRANCH   1  14
ATOM     14  N   UNL     1       0.781   9.532  17.701  0.00  0.00    +0.000 N 
ATOM     15  C   UNL     1      -0.039  10.350  18.444  0.00  0.00    +0.000 C 
ATOM     16  O   UNL     1       0.342  10.938  19.451  0.00  0.00    +0.000 OA
ATOM     17  H   UNL     1       0.523   9.269  16.759  0.00  0.00    +0.000 HD
BRANCH  15  18
ATOM     18  C   UNL     1      -1.433  10.530  17.951  0.00  0.00    +0.000 A 
ATOM     19  C   UNL     1      -1.883   9.943  16.765  0.00  0.00    +0.000 A 
ATOM     20  C   UNL     1      -3.206  10.126  16.375  0.00  0.00    +0.000 A 
ATOM     21  F   UNL     1      -3.638   9.557  15.241  0.00  0.00    +0.000 F 
ATOM     22  C   UNL     1      -4.092  10.876  17.139  0.00  0.00    +0.000 A 
ATOM     23  C   UNL     1      -3.643  11.448  18.326  0.00  0.00    +0.000 A 
ATOM     24 CL   UNL     1      -4.727  12.373  19.289  0.00  0.00    +0.000 Cl
ATOM     25  C   UNL     1      -2.322  11.275  18.739  0.00  0.00    +0.000 A 
ENDBRANCH  15  18
ENDBRANCH   1  14
TORSDOF 5
ENDMDL
MODEL 7
REMARK VINA RESULT:      -7.6      5.770      9.181
REMARK  Name = 
REMARK  6 active torsions:
REMARK  status: ('A' for Active; 'I' for Inactive)
REMARK    1  A    between atoms: C_1  and  C_2
REMARK    2  A    between atoms: C_2  and  N_3
REMARK    3  A    between atoms: C_2  and  C_18
REMARK    4  A    between atoms: C_4  and  C_6
REMARK    5  A    between atoms: C_6  and  N_7
REMARK    6  A    between atoms: C_8  and  C_10
REMARK                            x       y       z     vdW  Elec       q    Type
REMARK                         _______ _______ _______ _____ _____    ______ ____
ROOT
ATOM      1  C   UNL     1       5.497   4.434  18.122  0.00  0.00    +0.000 C 
ENDROOT
BRANCH   1   3
ATOM      2  N   UNL     1       3.637   5.752  19.022  0.00  0.00    +0.000 N 
ATOM      3  C   UNL     1       4.026   4.524  18.532  0.00  0.00    +0.000 C 
ATOM      4  O   UNL     1       3.287   3.541  18.495  0.00  0.00    +0.000 OA
ATOM      5  H   UNL     1       4.342   6.475  19.137  0.00  0.00    +0.000 HD
BRANCH   2   7
ATOM      6  C   UNL     1       2.096   5.554  20.921  0.00  0.00    +0.000 C 
ATOM      7  C   UNL     1       2.282   6.024  19.477  0.00  0.00    +0.000 C 
BRANCH   7   8
ATOM      8  C   UNL     1       1.939   7.489  19.254  0.00  0.00    +0.000 A 
ATOM      9  C   UNL     1       1.376   8.228  20.310  0.00  0.00    +0.000 A 
ATOM     10  C   UNL     1       1.041   9.575  20.147  0.00  0.00    +0.000 A 
ATOM     11  C   UNL     1       1.261  10.205  18.925  0.00  0.00    +0.000 A 
ATOM     12  C   UNL     1       1.812   9.488  17.867  0.00  0.00    +0.000 A 
ATOM     13  C   UNL     1       2.142   8.139  18.027  0.00  0.00    +0.000 A 
ENDBRANCH   7   8
ENDBRANCH   2   7
ENDBRANCH   1   3
BRANCH   1  14
ATOM     14  N   UNL     1       5.644   4.498  16.678  0.00  0.00    +0.000 N 
ATOM     15  C   UNL     1       6.893   4.489  16.100  0.00  0.00    +0.000 C 
ATOM     16  O   UNL     1       7.929   4.429  16.755  0.00  0.00    +0.000 OA
ATOM     17  H   UNL     1       4.823   4.296  16.122  0.00  0.00    +0.000 HD
BRANCH  15  18
ATOM     18  C   UNL     1       6.946   4.522  14.612  0.00  0.00    +0.000 A 
ATOM     19  C   UNL     1       7.706   5.467  13.917  0.00  0.00    +0.000 A 
ATOM     20  C   UNL     1       7.735   5.427  12.526  0.00  0.00    +0.000 A 
ATOM     21  F   UNL     1       8.469   6.329  11.861  0.00  0.00    +0.000 F 
ATOM     22  C   UNL     1       7.029   4.466  11.812  0.00  0.00    +0.000 A 
ATOM     23  C   UNL     1       6.284   3.519  12.509  0.00  0.00    +0.000 A 
ATOM     24 CL   UNL     1       5.410   2.318  11.644  0.00  0.00    +0.000 Cl
ATOM     25  C   UNL     1       6.242   3.538  13.903  0.00  0.00    +0.000 A 
ENDBRANCH  15  18
ENDBRANCH   1  14
TORSDOF 5
ENDMDL
MODEL 8
REMARK VINA RESULT:      -7.5      4.016      8.328
REMARK  Name = 
REMARK  6 active torsions:
REMARK  status: ('A' for Active; 'I' for Inactive)
REMARK    1  A    between atoms: C_1  and  C_2
REMARK    2  A    between atoms: C_2  and  N_3
REMARK    3  A    between atoms: C_2  and  C_18
REMARK    4  A    between atoms: C_4  and  C_6
REMARK    5  A    between atoms: C_6  and  N_7
REMARK    6  A    between atoms: C_8  and  C_10
REMARK                            x       y       z     vdW  Elec       q    Type
REMARK                         _______ _______ _______ _____ _____    ______ ____
ROOT
ATOM      1  C   UNL     1       2.332   8.429  17.862  0.00  0.00    +0.000 C 
ENDROOT
BRANCH   1   3
ATOM      2  N   UNL     1       0.803  10.332  18.087  0.00  0.00    +0.000 N 
ATOM      3  C   UNL     1       1.412   9.282  18.739  0.00  0.00    +0.000 C 
ATOM      4  O   UNL     1       1.304   9.075  19.947  0.00  0.00    +0.000 OA
ATOM      5  H   UNL     1       1.046  10.507  17.116  0.00  0.00    +0.000 HD
BRANCH   2   7
ATOM      6  C   UNL     1       0.402  12.699  18.592  0.00  0.00    +0.000 C 
ATOM      7  C   UNL     1      -0.093  11.261  18.759  0.00  0.00    +0.000 C 
BRANCH   7   8
ATOM      8  C   UNL     1      -1.522  11.041  18.290  0.00  0.00    +0.000 A 
ATOM      9  C   UNL     1      -2.552  11.824  18.842  0.00  0.00    +0.000 A 
ATOM     10  C   UNL     1      -3.880  11.651  18.444  0.00  0.00    +0.000 A 
ATOM     11  C   UNL     1      -4.202  10.691  17.489  0.00  0.00    +0.000 A 
ATOM     12  C   UNL     1      -3.197   9.902  16.935  0.00  0.00    +0.000 A 
ATOM     13  C   UNL     1      -1.869  10.070  17.337  0.00  0.00    +0.000 A 
ENDBRANCH   7   8
ENDBRANCH   2   7
ENDBRANCH   1   3
BRANCH   1  14
ATOM     14  N   UNL     1       2.222   7.020  18.200  0.00  0.00    +0.000 N 
ATOM     15  C   UNL     1       3.319   6.194  18.122  0.00  0.00    +0.000 C 
ATOM     16  O   UNL     1       4.426   6.589  17.772  0.00  0.00    +0.000 OA
ATOM     17  H   UNL     1       1.403   6.735  18.722  0.00  0.00    +0.000 HD
BRANCH  15  18
ATOM     18  C   UNL     1       3.120   4.772  18.521  0.00  0.00    +0.000 A 
ATOM     19  C   UNL     1       3.617   3.711  17.759  0.00  0.00    +0.000 A 
ATOM     20  C   UNL     1       3.421   2.406  18.202  0.00  0.00    +0.000 A 
ATOM     21  F   UNL     1       3.904   1.389  17.475  0.00  0.00    +0.000 F 
ATOM     22  C   UNL     1       2.745   2.134  19.385  0.00  0.00    +0.000 A 
ATOM     23  C   UNL     1       2.262   3.195  20.146  0.00  0.00    +0.000 A 
ATOM     24 CL   UNL     1       1.430   2.878  21.617  0.00  0.00    +0.000 Cl
ATOM     25  C   UNL     1       2.450   4.511  19.724  0.00  0.00    +0.000 A 
ENDBRANCH  15  18
ENDBRANCH   1  14
TORSDOF 5
ENDMDL
MODEL 9
REMARK VINA RESULT:      -7.5      6.144      8.615
REMARK  Name = 
REMARK  6 active torsions:
REMARK  status: ('A' for Active; 'I' for Inactive)
REMARK    1  A    between atoms: C_1  and  C_2
REMARK    2  A    between atoms: C_2  and  N_3
REMARK    3  A    between atoms: C_2  and  C_18
REMARK    4  A    between atoms: C_4  and  C_6
REMARK    5  A    between atoms: C_6  and  N_7
REMARK    6  A    between atoms: C_8  and  C_10
REMARK                            x       y       z     vdW  Elec       q    Type
REMARK                         _______ _______ _______ _____ _____    ______ ____
ROOT
ATOM      1  C   UNL     1       6.564   4.848  16.917  0.00  0.00    +0.000 C 
ENDROOT
BRANCH   1   3
ATOM      2  N   UNL     1       7.051   4.600  14.528  0.00  0.00    +0.000 N 
ATOM      3  C   UNL     1       6.355   5.317  15.476  0.00  0.00    +0.000 C 
ATOM      4  O   UNL     1       5.676   6.311  15.215  0.00  0.00    +0.000 OA
ATOM      5  H   UNL     1       7.688   3.872  14.841  0.00  0.00    +0.000 HD
BRANCH   2   7
ATOM      6  C   UNL     1       8.298   5.552  12.642  0.00  0.00    +0.000 C 
ATOM      7  C   UNL     1       6.991   4.907  13.107  0.00  0.00    +0.000 C 
BRANCH   7   8
ATOM      8  C   UNL     1       6.598   3.668  12.319  0.00  0.00    +0.000 A 
ATOM      9  C   UNL     1       7.607   2.863  11.760  0.00  0.00    +0.000 A 
ATOM     10  C   UNL     1       7.290   1.718  11.024  0.00  0.00    +0.000 A 
ATOM     11  C   UNL     1       5.958   1.359  10.832  0.00  0.00    +0.000 A 
ATOM     12  C   UNL     1       4.945   2.147  11.373  0.00  0.00    +0.000 A 
ATOM     13  C   UNL     1       5.261   3.295  12.105  0.00  0.00    +0.000 A 
ENDBRANCH   7   8
ENDBRANCH   2   7
ENDBRANCH   1   3
BRANCH   1  14
ATOM     14  N   UNL     1       5.295   4.683  17.605  0.00  0.00    +0.000 N 
ATOM     15  C   UNL     1       5.235   4.706  18.980  0.00  0.00    +0.000 C 
ATOM     16  O   UNL     1       6.226   4.864  19.686  0.00  0.00    +0.000 OA
ATOM     17  H   UNL     1       4.454   4.805  17.055  0.00  0.00    +0.000 HD
BRANCH  15  18
ATOM     18  C   UNL     1       3.887   4.564  19.597  0.00  0.00    +0.000 A 
ATOM     19  C   UNL     1       3.334   3.315  19.891  0.00  0.00    +0.000 A 
ATOM     20  C   UNL     1       2.081   3.251  20.493  0.00  0.00    +0.000 A 
ATOM     21  F   UNL     1       1.553   2.053  20.782  0.00  0.00    +0.000 F 
ATOM     22  C   UNL     1       1.369   4.401  20.814  0.00  0.00    +0.000 A 
ATOM     23  C   UNL     1       1.930   5.643  20.530  0.00  0.00    +0.000 A 
ATOM     24 CL   UNL     1       1.068   7.077  20.926  0.00  0.00    +0.000 Cl
ATOM     25  C   UNL     1       3.186   5.731  19.929  0.00  0.00    +0.000 A 
ENDBRANCH  15  18
ENDBRANCH   1  14
TORSDOF 5
ENDMDL
