MODEL 1
REMARK VINA RESULT:      -9.1      0.000      0.000
REMARK  Name = 
REMARK  8 active torsions:
REMARK  status: ('A' for Active; 'I' for Inactive)
REMARK    1  A    between atoms: C_1  and  C_2
REMARK    2  A    between atoms: N_4  and  C_5
REMARK    3  A    between atoms: C_11  and  C_12
REMARK    4  A    between atoms: C_13  and  C_14
REMARK    5  A    between atoms: C_14  and  C_15
REMARK    6  A    between atoms: N_17  and  C_18
REMARK    7  A    between atoms: C_18  and  C_19
REMARK    8  A    between atoms: C_26  and  C_27
REMARK                            x       y       z     vdW  Elec       q    Type
REMARK                         _______ _______ _______ _____ _____    ______ ____
ROOT
ATOM      1  C   UNL     1       0.725  10.142  18.877  0.00  0.00    +0.000 C 
ATOM      2  O   UNL     1       1.598  10.972  19.136  0.00  0.00    +0.000 OA
ATOM      3  N   UNL     1       0.977   9.030  18.073  0.00  0.00    +0.000 N 
ATOM      4  H   UNL     1       0.197   8.619  17.570  0.00  0.00    +0.000 HD
ENDROOT
BRANCH   1   5
ATOM      5  C   UNL     1      -0.650  10.233  19.498  0.00  0.00    +0.000 C 
BRANCH   5  12
ATOM      6  C   UNL     1       0.545   9.197  22.483  0.00  0.00    +0.000 C 
ATOM      7  C   UNL     1      -0.241  10.408  22.132  0.00  0.00    +0.000 A 
ATOM      8  N   UNL     1      -0.506  11.305  23.089  0.00  0.00    +0.000 NA
ATOM      9  N   UNL     1      -1.370  12.186  22.534  0.00  0.00    +0.000 N 
ATOM     10  C   UNL     1      -1.495  11.961  21.170  0.00  0.00    +0.000 A 
ATOM     11  C   UNL     1      -2.203  12.852  20.207  0.00  0.00    +0.000 C 
ATOM     12  C   UNL     1      -0.770  10.808  20.878  0.00  0.00    +0.000 A 
BRANCH   9  13
ATOM     13  C   UNL     1      -1.974  13.200  23.336  0.00  0.00    +0.000 A 
ATOM     14  C   UNL     1      -3.310  13.057  23.738  0.00  0.00    +0.000 A 
ATOM     15  C   UNL     1      -3.879  13.984  24.617  0.00  0.00    +0.000 A 
ATOM     16  C   UNL     1      -3.134  15.074  25.068  0.00  0.00    +0.000 A 
ATOM     17  C   UNL     1      -1.828  15.254  24.620  0.00  0.00    +0.000 A 
ATOM     18  C   UNL     1      -1.250  14.322  23.748  0.00  0.00    +0.000 A 
ENDBRANCH   9  13
ENDBRANCH   5  12
ENDBRANCH   1   5
BRANCH   3  19
ATOM     19  C   UNL     1       2.317   8.929  17.526  0.00  0.00    +0.000 C 
BRANCH  19  20
ATOM     20  C   UNL     1       3.276   7.821  18.008  0.00  0.00    +0.000 C 
ATOM     21  C   UNL     1       4.215   7.527  16.821  0.00  0.00    +0.000 C 
ATOM     22  C   UNL     1       4.334   6.063  16.925  0.00  0.00    +0.000 A 
ATOM     23  C   UNL     1       5.157   5.237  16.179  0.00  0.00    +0.000 A 
ATOM     24  C   UNL     1       5.123   3.884  16.459  0.00  0.00    +0.000 A 
ATOM     25  F   UNL     1       5.897   3.045  15.758  0.00  0.00    +0.000 F 
ATOM     26  C   UNL     1       4.322   3.380  17.486  0.00  0.00    +0.000 A 
ATOM     27  C   UNL     1       3.494   4.221  18.275  0.00  0.00    +0.000 A 
ATOM     28  C   UNL     1       3.471   5.573  17.904  0.00  0.00    +0.000 A 
ATOM     29  O   UNL     1       2.648   6.568  18.408  0.00  0.00    +0.000 OA
BRANCH  27  30
ATOM     30  C   UNL     1       2.815   3.661  19.466  0.00  0.00    +0.000 A 
ATOM     31  C   UNL     1       1.409   3.629  19.546  0.00  0.00    +0.000 A 
ATOM     32  C   UNL     1       0.757   3.075  20.652  0.00  0.00    +0.000 A 
ATOM     33  C   UNL     1       1.536   2.550  21.658  0.00  0.00    +0.000 A 
ATOM     34  N   UNL     1       2.884   2.549  21.636  0.00  0.00    +0.000 NA
ATOM     35  C   UNL     1       3.483   3.101  20.546  0.00  0.00    +0.000 A 
ENDBRANCH  27  30
ENDBRANCH  19  20
ENDBRANCH   3  19
TORSDOF 6
ENDMDL
MODEL 2
REMARK VINA RESULT:      -9.1      7.564     11.984
REMARK  Name = 
REMARK  8 active torsions:
REMARK  status: ('A' for Active; 'I' for Inactive)
REMARK    1  A    between atoms: C_1  and  C_2
REMARK    2  A    between atoms: N_4  and  C_5
REMARK    3  A    between atoms: C_11  and  C_12
REMARK    4  A    between atoms: C_13  and  C_14
REMARK    5  A    between atoms: C_14  and  C_15
REMARK    6  A    between atoms: N_17  and  C_18
REMARK    7  A    between atoms: C_18  and  C_19
REMARK    8  A    between atoms: C_26  and  C_27
REMARK                            x       y       z     vdW  Elec       q    Type
REMARK                         _______ _______ _______ _____ _____    ______ ____
ROOT
ATOM      1  C   UNL     1       7.806   7.627  17.758  0.00  0.00    +0.000 C 
ATOM      2  O   UNL     1       7.066   8.102  16.895  0.00  0.00    +0.000 OA
ATOM      3  N   UNL     1       8.624   8.430  18.555  0.00  0.00    +0.000 N 
ATOM      4  H   UNL     1       9.468   8.017  18.939  0.00  0.00    +0.000 HD
ENDROOT
BRANCH   1   5
ATOM      5  C   UNL     1       7.799   6.148  18.068  0.00  0.00    +0.000 C 
BRANCH   5  12
ATOM      6  C   UNL     1       7.143   4.964  14.972  0.00  0.00    +0.000 C 
ATOM      7  C   UNL     1       6.404   4.777  16.247  0.00  0.00    +0.000 A 
ATOM      8  N   UNL     1       5.331   3.979  16.260  0.00  0.00    +0.000 NA
ATOM      9  N   UNL     1       4.769   4.140  17.480  0.00  0.00    +0.000 N 
ATOM     10  C   UNL     1       5.598   4.886  18.308  0.00  0.00    +0.000 A 
ATOM     11  C   UNL     1       5.398   5.096  19.770  0.00  0.00    +0.000 C 
ATOM     12  C   UNL     1       6.673   5.315  17.532  0.00  0.00    +0.000 A 
BRANCH   9  13
ATOM     13  C   UNL     1       3.511   3.536  17.776  0.00  0.00    +0.000 A 
ATOM     14  C   UNL     1       3.467   2.192  18.171  0.00  0.00    +0.000 A 
ATOM     15  C   UNL     1       2.256   1.620  18.574  0.00  0.00    +0.000 A 
ATOM     16  C   UNL     1       1.081   2.371  18.549  0.00  0.00    +0.000 A 
ATOM     17  C   UNL     1       1.111   3.688  18.097  0.00  0.00    +0.000 A 
ATOM     18  C   UNL     1       2.323   4.268  17.702  0.00  0.00    +0.000 A 
ENDBRANCH   9  13
ENDBRANCH   5  12
ENDBRANCH   1   5
BRANCH   3  19
ATOM     19  C   UNL     1       8.582   9.854  18.280  0.00  0.00    +0.000 C 
BRANCH  19  20
ATOM     20  C   UNL     1       9.513  10.823  19.037  0.00  0.00    +0.000 C 
ATOM     21  C   UNL     1       9.148  10.685  20.528  0.00  0.00    +0.000 C 
ATOM     22  C   UNL     1       9.252  12.088  20.964  0.00  0.00    +0.000 A 
ATOM     23  C   UNL     1       9.143  12.570  22.257  0.00  0.00    +0.000 A 
ATOM     24  C   UNL     1       9.294  13.931  22.443  0.00  0.00    +0.000 A 
ATOM     25  F   UNL     1       9.191  14.445  23.676  0.00  0.00    +0.000 F 
ATOM     26  C   UNL     1       9.591  14.777  21.372  0.00  0.00    +0.000 A 
ATOM     27  C   UNL     1       9.730  14.289  20.046  0.00  0.00    +0.000 A 
ATOM     28  C   UNL     1       9.472  12.922  19.870  0.00  0.00    +0.000 A 
ATOM     29  O   UNL     1       9.396  12.229  18.672  0.00  0.00    +0.000 OA
BRANCH  27  30
ATOM     30  C   UNL     1      10.229  15.197  18.987  0.00  0.00    +0.000 A 
ATOM     31  C   UNL     1       9.484  16.329  18.599  0.00  0.00    +0.000 A 
ATOM     32  C   UNL     1       9.959  17.210  17.623  0.00  0.00    +0.000 A 
ATOM     33  C   UNL     1      11.186  16.941  17.060  0.00  0.00    +0.000 A 
ATOM     34  N   UNL     1      11.944  15.878  17.393  0.00  0.00    +0.000 NA
ATOM     35  C   UNL     1      11.447  15.040  18.343  0.00  0.00    +0.000 A 
ENDBRANCH  27  30
ENDBRANCH  19  20
ENDBRANCH   3  19
TORSDOF 6
ENDMDL
MODEL 3
REMARK VINA RESULT:      -8.6      6.744     11.107
REMARK  Name = 
REMARK  8 active torsions:
REMARK  status: ('A' for Active; 'I' for Inactive)
REMARK    1  A    between atoms: C_1  and  C_2
REMARK    2  A    between atoms: N_4  and  C_5
REMARK    3  A    between atoms: C_11  and  C_12
REMARK    4  A    between atoms: C_13  and  C_14
REMARK    5  A    between atoms: C_14  and  C_15
REMARK    6  A    between atoms: N_17  and  C_18
REMARK    7  A    between atoms: C_18  and  C_19
REMARK    8  A    between atoms: C_26  and  C_27
REMARK                            x       y       z     vdW  Elec       q    Type
REMARK                         _______ _______ _______ _____ _____    ______ ____
ROOT
ATOM      1  C   UNL     1       7.898   8.533  17.768  0.00  0.00    +0.000 C 
ATOM      2  O   UNL     1       7.195   9.467  17.381  0.00  0.00    +0.000 OA
ATOM      3  N   UNL     1       8.914   8.711  18.708  0.00  0.00    +0.000 N 
ATOM      4  H   UNL     1       9.692   8.060  18.699  0.00  0.00    +0.000 HD
ENDROOT
BRANCH   1   5
ATOM      5  C   UNL     1       7.634   7.115  17.315  0.00  0.00    +0.000 C 
BRANCH   5  12
ATOM      6  C   UNL     1       8.342   5.337  20.099  0.00  0.00    +0.000 C 
ATOM      7  C   UNL     1       7.056   5.519  19.378  0.00  0.00    +0.000 A 
ATOM      8  N   UNL     1       5.948   4.967  19.885  0.00  0.00    +0.000 NA
ATOM      9  N   UNL     1       4.991   5.139  18.945  0.00  0.00    +0.000 N 
ATOM     10  C   UNL     1       5.441   5.973  17.931  0.00  0.00    +0.000 A 
ATOM     11  C   UNL     1       4.600   6.537  16.837  0.00  0.00    +0.000 C 
ATOM     12  C   UNL     1       6.785   6.238  18.185  0.00  0.00    +0.000 A 
BRANCH   9  13
ATOM     13  C   UNL     1       3.710   4.532  19.107  0.00  0.00    +0.000 A 
ATOM     14  C   UNL     1       2.845   5.002  20.105  0.00  0.00    +0.000 A 
ATOM     15  C   UNL     1       1.545   4.495  20.201  0.00  0.00    +0.000 A 
ATOM     16  C   UNL     1       1.115   3.494  19.330  0.00  0.00    +0.000 A 
ATOM     17  C   UNL     1       1.993   2.980  18.379  0.00  0.00    +0.000 A 
ATOM     18  C   UNL     1       3.292   3.492  18.272  0.00  0.00    +0.000 A 
ENDBRANCH   9  13
ENDBRANCH   5  12
ENDBRANCH   1   5
BRANCH   3  19
ATOM     19  C   UNL     1       9.122  10.070  19.173  0.00  0.00    +0.000 C 
BRANCH  19  20
ATOM     20  C   UNL     1       9.057  11.253  18.184  0.00  0.00    +0.000 C 
ATOM     21  C   UNL     1      10.505  11.494  17.717  0.00  0.00    +0.000 C 
ATOM     22  C   UNL     1      10.533  12.966  17.668  0.00  0.00    +0.000 A 
ATOM     23  C   UNL     1      11.559  13.767  17.198  0.00  0.00    +0.000 A 
ATOM     24  C   UNL     1      11.363  15.135  17.226  0.00  0.00    +0.000 A 
ATOM     25  F   UNL     1      12.332  15.950  16.788  0.00  0.00    +0.000 F 
ATOM     26  C   UNL     1      10.157  15.682  17.670  0.00  0.00    +0.000 A 
ATOM     27  C   UNL     1       9.088  14.868  18.130  0.00  0.00    +0.000 A 
ATOM     28  C   UNL     1       9.350  13.492  18.185  0.00  0.00    +0.000 A 
ATOM     29  O   UNL     1       8.541  12.504  18.725  0.00  0.00    +0.000 OA
BRANCH  27  30
ATOM     30  C   UNL     1       7.772  15.489  18.408  0.00  0.00    +0.000 A 
ATOM     31  C   UNL     1       6.596  14.977  17.823  0.00  0.00    +0.000 A 
ATOM     32  C   UNL     1       5.345  15.535  18.102  0.00  0.00    +0.000 A 
ATOM     33  C   UNL     1       5.297  16.596  18.978  0.00  0.00    +0.000 A 
ATOM     34  N   UNL     1       6.386  17.127  19.569  0.00  0.00    +0.000 NA
ATOM     35  C   UNL     1       7.587  16.560  19.270  0.00  0.00    +0.000 A 
ENDBRANCH  27  30
ENDBRANCH  19  20
ENDBRANCH   3  19
TORSDOF 6
ENDMDL
MODEL 4
REMARK VINA RESULT:      -8.5      3.138      4.805
REMARK  Name = 
REMARK  8 active torsions:
REMARK  status: ('A' for Active; 'I' for Inactive)
REMARK    1  A    between atoms: C_1  and  C_2
REMARK    2  A    between atoms: N_4  and  C_5
REMARK    3  A    between atoms: C_11  and  C_12
REMARK    4  A    between atoms: C_13  and  C_14
REMARK    5  A    between atoms: C_14  and  C_15
REMARK    6  A    between atoms: N_17  and  C_18
REMARK    7  A    between atoms: C_18  and  C_19
REMARK    8  A    between atoms: C_26  and  C_27
REMARK                            x       y       z     vdW  Elec       q    Type
REMARK                         _______ _______ _______ _____ _____    ______ ____
ROOT
ATOM      1  C   UNL     1       0.460  10.350  18.781  0.00  0.00    +0.000 C 
ATOM      2  O   UNL     1       0.099   9.752  19.796  0.00  0.00    +0.000 OA
ATOM      3  N   UNL     1       1.570   9.946  18.039  0.00  0.00    +0.000 N 
ATOM      4  H   UNL     1       2.058  10.647  17.490  0.00  0.00    +0.000 HD
ENDROOT
BRANCH   1   5
ATOM      5  C   UNL     1      -0.342  11.506  18.227  0.00  0.00    +0.000 C 
BRANCH   5  12
ATOM      6  C   UNL     1      -2.494   9.688  16.362  0.00  0.00    +0.000 C 
ATOM      7  C   UNL     1      -2.752  10.616  17.493  0.00  0.00    +0.000 A 
ATOM      8  N   UNL     1      -4.006  10.761  17.936  0.00  0.00    +0.000 NA
ATOM      9  N   UNL     1      -3.964  11.779  18.826  0.00  0.00    +0.000 N 
ATOM     10  C   UNL     1      -2.652  12.145  19.094  0.00  0.00    +0.000 A 
ATOM     11  C   UNL     1      -2.218  13.089  20.162  0.00  0.00    +0.000 C 
ATOM     12  C   UNL     1      -1.838  11.403  18.240  0.00  0.00    +0.000 A 
BRANCH   9  13
ATOM     13  C   UNL     1      -5.172  12.294  19.383  0.00  0.00    +0.000 A 
ATOM     14  C   UNL     1      -6.006  13.102  18.597  0.00  0.00    +0.000 A 
ATOM     15  C   UNL     1      -7.246  13.518  19.092  0.00  0.00    +0.000 A 
ATOM     16  C   UNL     1      -7.643  13.165  20.382  0.00  0.00    +0.000 A 
ATOM     17  C   UNL     1      -6.789  12.418  21.189  0.00  0.00    +0.000 A 
ATOM     18  C   UNL     1      -5.551  11.989  20.694  0.00  0.00    +0.000 A 
ENDBRANCH   9  13
ENDBRANCH   5  12
ENDBRANCH   1   5
BRANCH   3  19
ATOM     19  C   UNL     1       2.300   8.803  18.555  0.00  0.00    +0.000 C 
BRANCH  19  20
ATOM     20  C   UNL     1       2.283   7.458  17.799  0.00  0.00    +0.000 C 
ATOM     21  C   UNL     1       1.553   6.463  18.721  0.00  0.00    +0.000 C 
ATOM     22  C   UNL     1       2.357   5.248  18.500  0.00  0.00    +0.000 A 
ATOM     23  C   UNL     1       2.101   3.978  18.986  0.00  0.00    +0.000 A 
ATOM     24  C   UNL     1       2.983   2.973  18.635  0.00  0.00    +0.000 A 
ATOM     25  F   UNL     1       2.780   1.728  19.088  0.00  0.00    +0.000 F 
ATOM     26  C   UNL     1       4.063   3.225  17.786  0.00  0.00    +0.000 A 
ATOM     27  C   UNL     1       4.319   4.519  17.260  0.00  0.00    +0.000 A 
ATOM     28  C   UNL     1       3.469   5.538  17.713  0.00  0.00    +0.000 A 
ATOM     29  O   UNL     1       3.589   6.899  17.472  0.00  0.00    +0.000 OA
BRANCH  27  30
ATOM     30  C   UNL     1       5.360   4.686  16.220  0.00  0.00    +0.000 A 
ATOM     31  C   UNL     1       5.230   4.063  14.963  0.00  0.00    +0.000 A 
ATOM     32  C   UNL     1       6.191   4.238  13.963  0.00  0.00    +0.000 A 
ATOM     33  C   UNL     1       7.265   5.051  14.243  0.00  0.00    +0.000 A 
ATOM     34  N   UNL     1       7.443   5.675  15.424  0.00  0.00    +0.000 NA
ATOM     35  C   UNL     1       6.489   5.477  16.375  0.00  0.00    +0.000 A 
ENDBRANCH  27  30
ENDBRANCH  19  20
ENDBRANCH   3  19
TORSDOF 6
ENDMDL
MODEL 5
REMARK VINA RESULT:      -8.4      3.233      4.970
REMARK  Name = 
REMARK  8 active torsions:
REMARK  status: ('A' for Active; 'I' for Inactive)
REMARK    1  A    between atoms: C_1  and  C_2
REMARK    2  A    between atoms: N_4  and  C_5
REMARK    3  A    between atoms: C_11  and  C_12
REMARK    4  A    between atoms: C_13  and  C_14
REMARK    5  A    between atoms: C_14  and  C_15
REMARK    6  A    between atoms: N_17  and  C_18
REMARK    7  A    between atoms: C_18  and  C_19
REMARK    8  A    between atoms: C_26  and  C_27
REMARK                            x       y       z     vdW  Elec       q    Type
REMARK                         _______ _______ _______ _____ _____    ______ ____
ROOT
ATOM      1  C   UNL     1       0.524   9.679  21.713  0.00  0.00    +0.000 C 
ATOM      2  O   UNL     1       1.592   9.850  22.301  0.00  0.00    +0.000 OA
ATOM      3  N   UNL     1       0.143   8.430  21.219  0.00  0.00    +0.000 N 
ATOM      4  H   UNL     1      -0.497   8.404  20.432  0.00  0.00    +0.000 HD
ENDROOT
BRANCH   1   5
ATOM      5  C   UNL     1      -0.483  10.798  21.577  0.00  0.00    +0.000 C 
BRANCH   5  12
ATOM      6  C   UNL     1      -1.071  10.391  18.275  0.00  0.00    +0.000 C 
ATOM      7  C   UNL     1      -0.632  11.592  19.030  0.00  0.00    +0.000 A 
ATOM      8  N   UNL     1      -0.480  12.748  18.373  0.00  0.00    +0.000 NA
ATOM      9  N   UNL     1       0.090  13.599  19.257  0.00  0.00    +0.000 N 
ATOM     10  C   UNL     1       0.114  13.043  20.530  0.00  0.00    +0.000 A 
ATOM     11  C   UNL     1       0.486  13.763  21.781  0.00  0.00    +0.000 C 
ATOM     12  C   UNL     1      -0.350  11.735  20.414  0.00  0.00    +0.000 A 
BRANCH   9  13
ATOM     13  C   UNL     1       0.525  14.889  18.832  0.00  0.00    +0.000 A 
ATOM     14  C   UNL     1      -0.421  15.902  18.621  0.00  0.00    +0.000 A 
ATOM     15  C   UNL     1      -0.001  17.200  18.315  0.00  0.00    +0.000 A 
ATOM     16  C   UNL     1       1.358  17.486  18.182  0.00  0.00    +0.000 A 
ATOM     17  C   UNL     1       2.297  16.468  18.328  0.00  0.00    +0.000 A 
ATOM     18  C   UNL     1       1.882  15.169  18.644  0.00  0.00    +0.000 A 
ENDBRANCH   9  13
ENDBRANCH   5  12
ENDBRANCH   1   5
BRANCH   3  19
ATOM     19  C   UNL     1       1.099   7.354  21.402  0.00  0.00    +0.000 C 
BRANCH  19  20
ATOM     20  C   UNL     1       1.625   6.560  20.188  0.00  0.00    +0.000 C 
ATOM     21  C   UNL     1       1.128   5.115  20.379  0.00  0.00    +0.000 C 
ATOM     22  C   UNL     1       2.302   4.359  19.910  0.00  0.00    +0.000 A 
ATOM     23  C   UNL     1       2.401   2.989  19.741  0.00  0.00    +0.000 A 
ATOM     24  C   UNL     1       3.600   2.491  19.266  0.00  0.00    +0.000 A 
ATOM     25  F   UNL     1       3.744   1.170  19.093  0.00  0.00    +0.000 F 
ATOM     26  C   UNL     1       4.653   3.345  18.930  0.00  0.00    +0.000 A 
ATOM     27  C   UNL     1       4.553   4.754  19.075  0.00  0.00    +0.000 A 
ATOM     28  C   UNL     1       3.365   5.223  19.652  0.00  0.00    +0.000 A 
ATOM     29  O   UNL     1       3.074   6.524  20.035  0.00  0.00    +0.000 OA
BRANCH  27  30
ATOM     30  C   UNL     1       5.625   5.617  18.527  0.00  0.00    +0.000 A 
ATOM     31  C   UNL     1       6.894   5.664  19.137  0.00  0.00    +0.000 A 
ATOM     32  C   UNL     1       7.923   6.452  18.610  0.00  0.00    +0.000 A 
ATOM     33  C   UNL     1       7.657   7.173  17.468  0.00  0.00    +0.000 A 
ATOM     34  N   UNL     1       6.465   7.166  16.840  0.00  0.00    +0.000 NA
ATOM     35  C   UNL     1       5.487   6.391  17.384  0.00  0.00    +0.000 A 
ENDBRANCH  27  30
ENDBRANCH  19  20
ENDBRANCH   3  19
TORSDOF 6
ENDMDL
MODEL 6
REMARK VINA RESULT:      -8.4      1.978      3.700
REMARK  Name = 
REMARK  8 active torsions:
REMARK  status: ('A' for Active; 'I' for Inactive)
REMARK    1  A    between atoms: C_1  and  C_2
REMARK    2  A    between atoms: N_4  and  C_5
REMARK    3  A    between atoms: C_11  and  C_12
REMARK    4  A    between atoms: C_13  and  C_14
REMARK    5  A    between atoms: C_14  and  C_15
REMARK    6  A    between atoms: N_17  and  C_18
REMARK    7  A    between atoms: C_18  and  C_19
REMARK    8  A    between atoms: C_26  and  C_27
REMARK                            x       y       z     vdW  Elec       q    Type
REMARK                         _______ _______ _______ _____ _____    ______ ____
ROOT
ATOM      1  C   UNL     1       1.201  10.155  18.633  0.00  0.00    +0.000 C 
ATOM      2  O   UNL     1       2.169  10.785  18.207  0.00  0.00    +0.000 OA
ATOM      3  N   UNL     1       1.260   8.781  18.873  0.00  0.00    +0.000 N 
ATOM      4  H   UNL     1       0.395   8.252  18.828  0.00  0.00    +0.000 HD
ENDROOT
BRANCH   1   5
ATOM      5  C   UNL     1      -0.084  10.855  19.012  0.00  0.00    +0.000 C 
BRANCH   5  12
ATOM      6  C   UNL     1       0.879   9.253  21.827  0.00  0.00    +0.000 C 
ATOM      7  C   UNL     1       0.095  10.503  21.654  0.00  0.00    +0.000 A 
ATOM      8  N   UNL     1      -0.273  11.189  22.743  0.00  0.00    +0.000 NA
ATOM      9  N   UNL     1      -1.109  12.156  22.300  0.00  0.00    +0.000 N 
ATOM     10  C   UNL     1      -1.112  12.207  20.912  0.00  0.00    +0.000 A 
ATOM     11  C   UNL     1      -1.757  13.267  20.086  0.00  0.00    +0.000 C 
ATOM     12  C   UNL     1      -0.335  11.141  20.462  0.00  0.00    +0.000 A 
BRANCH   9  13
ATOM     13  C   UNL     1      -1.805  12.984  23.230  0.00  0.00    +0.000 A 
ATOM     14  C   UNL     1      -1.209  14.172  23.677  0.00  0.00    +0.000 A 
ATOM     15  C   UNL     1      -1.925  15.048  24.499  0.00  0.00    +0.000 A 
ATOM     16  C   UNL     1      -3.219  14.729  24.908  0.00  0.00    +0.000 A 
ATOM     17  C   UNL     1      -3.790  13.519  24.519  0.00  0.00    +0.000 A 
ATOM     18  C   UNL     1      -3.081  12.643  23.687  0.00  0.00    +0.000 A 
ENDBRANCH   9  13
ENDBRANCH   5  12
ENDBRANCH   1   5
BRANCH   3  19
ATOM     19  C   UNL     1       2.517   8.131  18.553  0.00  0.00    +0.000 C 
BRANCH  19  20
ATOM     20  C   UNL     1       2.537   6.845  17.702  0.00  0.00    +0.000 C 
ATOM     21  C   UNL     1       1.904   5.747  18.579  0.00  0.00    +0.000 C 
ATOM     22  C   UNL     1       2.760   4.598  18.236  0.00  0.00    +0.000 A 
ATOM     23  C   UNL     1       2.595   3.285  18.639  0.00  0.00    +0.000 A 
ATOM     24  C   UNL     1       3.511   2.358  18.178  0.00  0.00    +0.000 A 
ATOM     25  F   UNL     1       3.396   1.075  18.547  0.00  0.00    +0.000 F 
ATOM     26  C   UNL     1       4.536   2.729  17.304  0.00  0.00    +0.000 A 
ATOM     27  C   UNL     1       4.699   4.070  16.865  0.00  0.00    +0.000 A 
ATOM     28  C   UNL     1       3.818   5.005  17.425  0.00  0.00    +0.000 A 
ATOM     29  O   UNL     1       3.853   6.384  17.280  0.00  0.00    +0.000 OA
BRANCH  27  30
ATOM     30  C   UNL     1       5.680   4.368  15.796  0.00  0.00    +0.000 A 
ATOM     31  C   UNL     1       5.540   3.807  14.511  0.00  0.00    +0.000 A 
ATOM     32  C   UNL     1       6.443   4.105  13.486  0.00  0.00    +0.000 A 
ATOM     33  C   UNL     1       7.469   4.977  13.771  0.00  0.00    +0.000 A 
ATOM     34  N   UNL     1       7.653   5.547  14.978  0.00  0.00    +0.000 NA
ATOM     35  C   UNL     1       6.757   5.229  15.952  0.00  0.00    +0.000 A 
ENDBRANCH  27  30
ENDBRANCH  19  20
ENDBRANCH   3  19
TORSDOF 6
ENDMDL
MODEL 7
REMARK VINA RESULT:      -8.4      4.111     11.287
REMARK  Name = 
REMARK  8 active torsions:
REMARK  status: ('A' for Active; 'I' for Inactive)
REMARK    1  A    between atoms: C_1  and  C_2
REMARK    2  A    between atoms: N_4  and  C_5
REMARK    3  A    between atoms: C_11  and  C_12
REMARK    4  A    between atoms: C_13  and  C_14
REMARK    5  A    between atoms: C_14  and  C_15
REMARK    6  A    between atoms: N_17  and  C_18
REMARK    7  A    between atoms: C_18  and  C_19
REMARK    8  A    between atoms: C_26  and  C_27
REMARK                            x       y       z     vdW  Elec       q    Type
REMARK                         _______ _______ _______ _____ _____    ______ ____
ROOT
ATOM      1  C   UNL     1       3.715   6.358  19.096  0.00  0.00    +0.000 C 
ATOM      2  O   UNL     1       3.497   7.219  18.242  0.00  0.00    +0.000 OA
ATOM      3  N   UNL     1       2.842   6.135  20.161  0.00  0.00    +0.000 N 
ATOM      4  H   UNL     1       3.223   5.740  21.015  0.00  0.00    +0.000 HD
ENDROOT
BRANCH   1   5
ATOM      5  C   UNL     1       4.900   5.426  18.982  0.00  0.00    +0.000 C 
BRANCH   5  12
ATOM      6  C   UNL     1       7.724   7.132  18.258  0.00  0.00    +0.000 C 
ATOM      7  C   UNL     1       6.947   6.169  17.436  0.00  0.00    +0.000 A 
ATOM      8  N   UNL     1       7.411   5.832  16.227  0.00  0.00    +0.000 NA
ATOM      9  N   UNL     1       6.429   5.102  15.649  0.00  0.00    +0.000 N 
ATOM     10  C   UNL     1       5.429   4.809  16.567  0.00  0.00    +0.000 A 
ATOM     11  C   UNL     1       4.296   3.867  16.341  0.00  0.00    +0.000 C 
ATOM     12  C   UNL     1       5.739   5.491  17.742  0.00  0.00    +0.000 A 
BRANCH   9  13
ATOM     13  C   UNL     1       6.540   4.703  14.284  0.00  0.00    +0.000 A 
ATOM     14  C   UNL     1       7.538   5.269  13.479  0.00  0.00    +0.000 A 
ATOM     15  C   UNL     1       7.732   4.805  12.174  0.00  0.00    +0.000 A 
ATOM     16  C   UNL     1       6.910   3.805  11.654  0.00  0.00    +0.000 A 
ATOM     17  C   UNL     1       5.876   3.286  12.430  0.00  0.00    +0.000 A 
ATOM     18  C   UNL     1       5.685   3.740  13.741  0.00  0.00    +0.000 A 
ENDBRANCH   9  13
ENDBRANCH   5  12
ENDBRANCH   1   5
BRANCH   3  19
ATOM     19  C   UNL     1       1.682   7.005  20.228  0.00  0.00    +0.000 C 
BRANCH  19  20
ATOM     20  C   UNL     1       1.733   8.313  21.044  0.00  0.00    +0.000 C 
ATOM     21  C   UNL     1       0.593   8.214  22.076  0.00  0.00    +0.000 C 
ATOM     22  C   UNL     1       0.100   9.602  22.070  0.00  0.00    +0.000 A 
ATOM     23  C   UNL     1      -0.863  10.149  22.901  0.00  0.00    +0.000 A 
ATOM     24  C   UNL     1      -1.160  11.488  22.734  0.00  0.00    +0.000 A 
ATOM     25  F   UNL     1      -2.090  12.060  23.510  0.00  0.00    +0.000 F 
ATOM     26  C   UNL     1      -0.481  12.266  21.793  0.00  0.00    +0.000 A 
ATOM     27  C   UNL     1       0.526  11.721  20.954  0.00  0.00    +0.000 A 
ATOM     28  C   UNL     1       0.736  10.340  21.075  0.00  0.00    +0.000 A 
ATOM     29  O   UNL     1       1.548   9.542  20.282  0.00  0.00    +0.000 OA
BRANCH  27  30
ATOM     30  C   UNL     1       1.340  12.629  20.113  0.00  0.00    +0.000 A 
ATOM     31  C   UNL     1       2.313  13.467  20.692  0.00  0.00    +0.000 A 
ATOM     32  C   UNL     1       3.109  14.306  19.905  0.00  0.00    +0.000 A 
ATOM     33  C   UNL     1       2.917  14.278  18.543  0.00  0.00    +0.000 A 
ATOM     34  N   UNL     1       2.004  13.496  17.932  0.00  0.00    +0.000 NA
ATOM     35  C   UNL     1       1.246  12.696  18.731  0.00  0.00    +0.000 A 
ENDBRANCH  27  30
ENDBRANCH  19  20
ENDBRANCH   3  19
TORSDOF 6
ENDMDL
MODEL 8
REMARK VINA RESULT:      -8.3      1.311      1.818
REMARK  Name = 
REMARK  8 active torsions:
REMARK  status: ('A' for Active; 'I' for Inactive)
REMARK    1  A    between atoms: C_1  and  C_2
REMARK    2  A    between atoms: N_4  and  C_5
REMARK    3  A    between atoms: C_11  and  C_12
REMARK    4  A    between atoms: C_13  and  C_14
REMARK    5  A    between atoms: C_14  and  C_15
REMARK    6  A    between atoms: N_17  and  C_18
REMARK    7  A    between atoms: C_18  and  C_19
REMARK    8  A    between atoms: C_26  and  C_27
REMARK                            x       y       z     vdW  Elec       q    Type
REMARK                         _______ _______ _______ _____ _____    ______ ____
ROOT
ATOM      1  C   UNL     1       1.053  10.193  19.855  0.00  0.00    +0.000 C 
ATOM      2  O   UNL     1       0.632   9.110  20.266  0.00  0.00    +0.000 OA
ATOM      3  N   UNL     1       1.664  10.324  18.608  0.00  0.00    +0.000 N 
ATOM      4  H   UNL     1       2.327  11.082  18.479  0.00  0.00    +0.000 HD
ENDROOT
BRANCH   1   5
ATOM      5  C   UNL     1       0.842  11.465  20.644  0.00  0.00    +0.000 C 
BRANCH   5  12
ATOM      6  C   UNL     1      -0.155   9.644  23.310  0.00  0.00    +0.000 C 
ATOM      7  C   UNL     1      -0.778  10.832  22.672  0.00  0.00    +0.000 A 
ATOM      8  N   UNL     1      -1.880  11.355  23.221  0.00  0.00    +0.000 NA
ATOM      9  N   UNL     1      -2.317  12.290  22.345  0.00  0.00    +0.000 N 
ATOM     10  C   UNL     1      -1.381  12.497  21.340  0.00  0.00    +0.000 A 
ATOM     11  C   UNL     1      -1.433  13.583  20.320  0.00  0.00    +0.000 C 
ATOM     12  C   UNL     1      -0.366  11.561  21.527  0.00  0.00    +0.000 A 
BRANCH   9  13
ATOM     13  C   UNL     1      -3.567  12.943  22.557  0.00  0.00    +0.000 A 
ATOM     14  C   UNL     1      -3.692  13.874  23.598  0.00  0.00    +0.000 A 
ATOM     15  C   UNL     1      -4.876  14.604  23.745  0.00  0.00    +0.000 A 
ATOM     16  C   UNL     1      -5.950  14.384  22.883  0.00  0.00    +0.000 A 
ATOM     17  C   UNL     1      -5.852  13.414  21.889  0.00  0.00    +0.000 A 
ATOM     18  C   UNL     1      -4.665  12.687  21.730  0.00  0.00    +0.000 A 
ENDBRANCH   9  13
ENDBRANCH   5  12
ENDBRANCH   1   5
BRANCH   3  19
ATOM     19  C   UNL     1       1.813   9.102  17.839  0.00  0.00    +0.000 C 
BRANCH  19  20
ATOM     20  C   UNL     1       2.840   8.032  18.264  0.00  0.00    +0.000 C 
ATOM     21  C   UNL     1       3.837   7.913  17.095  0.00  0.00    +0.000 C 
ATOM     22  C   UNL     1       4.067   6.458  17.081  0.00  0.00    +0.000 A 
ATOM     23  C   UNL     1       4.976   5.765  16.301  0.00  0.00    +0.000 A 
ATOM     24  C   UNL     1       5.039   4.394  16.465  0.00  0.00    +0.000 A 
ATOM     25  F   UNL     1       5.899   3.679  15.727  0.00  0.00    +0.000 F 
ATOM     26  C   UNL     1       4.246   3.743  17.414  0.00  0.00    +0.000 A 
ATOM     27  C   UNL     1       3.329   4.449  18.237  0.00  0.00    +0.000 A 
ATOM     28  C   UNL     1       3.213   5.822  17.980  0.00  0.00    +0.000 A 
ATOM     29  O   UNL     1       2.298   6.705  18.533  0.00  0.00    +0.000 OA
BRANCH  27  30
ATOM     30  C   UNL     1       2.657   3.738  19.349  0.00  0.00    +0.000 A 
ATOM     31  C   UNL     1       3.405   3.199  20.415  0.00  0.00    +0.000 A 
ATOM     32  C   UNL     1       2.779   2.553  21.486  0.00  0.00    +0.000 A 
ATOM     33  C   UNL     1       1.405   2.470  21.470  0.00  0.00    +0.000 A 
ATOM     34  N   UNL     1       0.638   2.968  20.480  0.00  0.00    +0.000 NA
ATOM     35  C   UNL     1       1.282   3.586  19.453  0.00  0.00    +0.000 A 
ENDBRANCH  27  30
ENDBRANCH  19  20
ENDBRANCH   3  19
TORSDOF 6
ENDMDL
MODEL 9
REMARK VINA RESULT:      -8.3      3.176      4.826
REMARK  Name = 
REMARK  8 active torsions:
REMARK  status: ('A' for Active; 'I' for Inactive)
REMARK    1  A    between atoms: C_1  and  C_2
REMARK    2  A    between atoms: N_4  and  C_5
REMARK    3  A    between atoms: C_11  and  C_12
REMARK    4  A    between atoms: C_13  and  C_14
REMARK    5  A    between atoms: C_14  and  C_15
REMARK    6  A    between atoms: N_17  and  C_18
REMARK    7  A    between atoms: C_18  and  C_19
REMARK    8  A    between atoms: C_26  and  C_27
REMARK                            x       y       z     vdW  Elec       q    Type
REMARK                         _______ _______ _______ _____ _____    ______ ____
ROOT
ATOM      1  C   UNL     1       0.348  10.531  19.813  0.00  0.00    +0.000 C 
ATOM      2  O   UNL     1       0.103  10.440  21.016  0.00  0.00    +0.000 OA
ATOM      3  N   UNL     1       1.174   9.618  19.154  0.00  0.00    +0.000 N 
ATOM      4  H   UNL     1       1.659   9.931  18.320  0.00  0.00    +0.000 HD
ENDROOT
BRANCH   1   5
ATOM      5  C   UNL     1      -0.314  11.587  18.957  0.00  0.00    +0.000 C 
BRANCH   5  12
ATOM      6  C   UNL     1      -1.992   9.720  16.695  0.00  0.00    +0.000 C 
ATOM      7  C   UNL     1      -2.499  10.640  17.746  0.00  0.00    +0.000 A 
ATOM      8  N   UNL     1      -3.821  10.754  17.921  0.00  0.00    +0.000 NA
ATOM      9  N   UNL     1      -3.987  11.771  18.798  0.00  0.00    +0.000 N 
ATOM     10  C   UNL     1      -2.767  12.168  19.328  0.00  0.00    +0.000 A 
ATOM     11  C   UNL     1      -2.584  13.121  20.460  0.00  0.00    +0.000 C 
ATOM     12  C   UNL     1      -1.777  11.448  18.663  0.00  0.00    +0.000 A 
BRANCH   9  13
ATOM     13  C   UNL     1      -5.296  12.256  19.094  0.00  0.00    +0.000 A 
ATOM     14  C   UNL     1      -5.817  12.091  20.385  0.00  0.00    +0.000 A 
ATOM     15  C   UNL     1      -7.049  12.661  20.720  0.00  0.00    +0.000 A 
ATOM     16  C   UNL     1      -7.783  13.363  19.763  0.00  0.00    +0.000 A 
ATOM     17  C   UNL     1      -7.298  13.474  18.463  0.00  0.00    +0.000 A 
ATOM     18  C   UNL     1      -6.059  12.914  18.125  0.00  0.00    +0.000 A 
ENDBRANCH   9  13
ENDBRANCH   5  12
ENDBRANCH   1   5
BRANCH   3  19
ATOM     19  C   UNL     1       1.761   8.579  19.980  0.00  0.00    +0.000 C 
BRANCH  19  20
ATOM     20  C   UNL     1       1.810   7.120  19.481  0.00  0.00    +0.000 C 
ATOM     21  C   UNL     1       1.298   6.256  20.650  0.00  0.00    +0.000 C 
ATOM     22  C   UNL     1       2.202   5.097  20.547  0.00  0.00    +0.000 A 
ATOM     23  C   UNL     1       2.142   3.924  21.278  0.00  0.00    +0.000 A 
ATOM     24  C   UNL     1       3.086   2.952  21.002  0.00  0.00    +0.000 A 
ATOM     25  F   UNL     1       3.071   1.802  21.689  0.00  0.00    +0.000 F 
ATOM     26  C   UNL     1       4.033   3.134  19.991  0.00  0.00    +0.000 A 
ATOM     27  C   UNL     1       4.087   4.323  19.217  0.00  0.00    +0.000 A 
ATOM     28  C   UNL     1       3.184   5.330  19.586  0.00  0.00    +0.000 A 
ATOM     29  O   UNL     1       3.126   6.626  19.096  0.00  0.00    +0.000 OA
BRANCH  27  30
ATOM     30  C   UNL     1       4.985   4.382  18.041  0.00  0.00    +0.000 A 
ATOM     31  C   UNL     1       6.355   4.674  18.193  0.00  0.00    +0.000 A 
ATOM     32  C   UNL     1       7.218   4.703  17.093  0.00  0.00    +0.000 A 
ATOM     33  C   UNL     1       6.685   4.425  15.855  0.00  0.00    +0.000 A 
ATOM     34  N   UNL     1       5.385   4.136  15.647  0.00  0.00    +0.000 NA
ATOM     35  C   UNL     1       4.575   4.122  16.741  0.00  0.00    +0.000 A 
ENDBRANCH  27  30
ENDBRANCH  19  20
ENDBRANCH   3  19
TORSDOF 6
ENDMDL
