MODEL 1
REMARK VINA RESULT:      -7.9      0.000      0.000
REMARK  Name = 
REMARK  6 active torsions:
REMARK  status: ('A' for Active; 'I' for Inactive)
REMARK    1  A    between atoms: C_1  and  C_2
REMARK    2  A    between atoms: C_5  and  C_6
REMARK    3  A    between atoms: C_6  and  S_7
REMARK    4  A    between atoms: S_7  and  C_10
REMARK    5  A    between atoms: N_12  and  C_13
REMARK    6  A    between atoms: C_13  and  C_14
REMARK                            x       y       z     vdW  Elec       q    Type
REMARK                         _______ _______ _______ _____ _____    ______ ____
ROOT
ATOM      1  C   UNL     1       4.508   5.444  19.116  0.00  0.00    +0.000 A 
ATOM      2  C   UNL     1       3.860   6.617  18.786  0.00  0.00    +0.000 A 
ATOM      3  N   UNL     1       2.574   6.535  19.251  0.00  0.00    +0.000 N 
ATOM      4  C   UNL     1       2.365   5.306  19.852  0.00  0.00    +0.000 A 
ATOM      5  C   UNL     1       1.214   4.748  20.439  0.00  0.00    +0.000 A 
ATOM      6  C   UNL     1       1.300   3.460  20.975  0.00  0.00    +0.000 A 
ATOM      7  C   UNL     1       2.490   2.746  20.927  0.00  0.00    +0.000 A 
ATOM      8  C   UNL     1       3.626   3.299  20.331  0.00  0.00    +0.000 A 
ATOM      9  C   UNL     1       3.575   4.601  19.785  0.00  0.00    +0.000 A 
ENDROOT
BRANCH   1  10
ATOM     10  S   UNL     1       6.162   5.061  18.757  0.00  0.00    +0.000 S 
ATOM     11  O   UNL     1       6.107   3.689  18.289  0.00  0.00    +0.000 OA
ATOM     12  O   UNL     1       6.875   5.443  19.961  0.00  0.00    +0.000 OA
BRANCH  10  13
ATOM     13  C   UNL     1       6.573   6.167  17.412  0.00  0.00    +0.000 C 
BRANCH  13  18
ATOM     14  C   UNL     1       5.930   3.351  12.348  0.00  0.00    +0.000 C 
ATOM     15  C   UNL     1       6.096   4.090  13.643  0.00  0.00    +0.000 A 
ATOM     16  C   UNL     1       7.357   4.518  14.067  0.00  0.00    +0.000 A 
ATOM     17  C   UNL     1       7.506   5.198  15.279  0.00  0.00    +0.000 A 
ATOM     18  C   UNL     1       6.392   5.459  16.094  0.00  0.00    +0.000 A 
ATOM     19  C   UNL     1       5.129   5.040  15.660  0.00  0.00    +0.000 A 
ATOM     20  C   UNL     1       4.983   4.361  14.447  0.00  0.00    +0.000 A 
ENDBRANCH  13  18
ENDBRANCH  10  13
ENDBRANCH   1  10
BRANCH   3  21
ATOM     21  C   UNL     1       1.553   7.559  19.037  0.00  0.00    +0.000 C 
BRANCH  21  22
ATOM     22  C   UNL     1       1.362   8.473  20.240  0.00  0.00    +0.000 C 
ATOM     23  O   UNL     1       1.484   8.057  21.395  0.00  0.00    +0.000 OA
ATOM     24  N   UNL     1       1.081   9.814  19.984  0.00  0.00    +0.000 N 
ATOM     25  C   UNL     1       0.916  10.405  18.651  0.00  0.00    +0.000 C 
ATOM     26  C   UNL     1       1.334  11.880  18.627  0.00  0.00    +0.000 C 
ATOM     27  O   UNL     1       0.684  12.628  19.662  0.00  0.00    +0.000 OA
ATOM     28  C   UNL     1       1.019  12.095  20.953  0.00  0.00    +0.000 C 
ATOM     29  C   UNL     1       0.556  10.642  21.076  0.00  0.00    +0.000 C 
ENDBRANCH  21  22
ENDBRANCH   3  21
TORSDOF 5
ENDMDL
MODEL 2
REMARK VINA RESULT:      -7.9      1.395      1.957
REMARK  Name = 
REMARK  6 active torsions:
REMARK  status: ('A' for Active; 'I' for Inactive)
REMARK    1  A    between atoms: C_1  and  C_2
REMARK    2  A    between atoms: C_5  and  C_6
REMARK    3  A    between atoms: C_6  and  S_7
REMARK    4  A    between atoms: S_7  and  C_10
REMARK    5  A    between atoms: N_12  and  C_13
REMARK    6  A    between atoms: C_13  and  C_14
REMARK                            x       y       z     vdW  Elec       q    Type
REMARK                         _______ _______ _______ _____ _____    ______ ____
ROOT
ATOM      1  C   UNL     1       4.549   5.180  19.127  0.00  0.00    +0.000 A 
ATOM      2  C   UNL     1       3.910   6.190  19.818  0.00  0.00    +0.000 A 
ATOM      3  N   UNL     1       2.602   5.822  19.992  0.00  0.00    +0.000 N 
ATOM      4  C   UNL     1       2.371   4.596  19.393  0.00  0.00    +0.000 A 
ATOM      5  C   UNL     1       1.195   3.832  19.276  0.00  0.00    +0.000 A 
ATOM      6  C   UNL     1       1.263   2.610  18.601  0.00  0.00    +0.000 A 
ATOM      7  C   UNL     1       2.459   2.160  18.057  0.00  0.00    +0.000 A 
ATOM      8  C   UNL     1       3.621   2.929  18.165  0.00  0.00    +0.000 A 
ATOM      9  C   UNL     1       3.588   4.167  18.845  0.00  0.00    +0.000 A 
ENDROOT
BRANCH   1  10
ATOM     10  S   UNL     1       6.222   5.163  18.667  0.00  0.00    +0.000 S 
ATOM     11  O   UNL     1       6.451   3.796  18.242  0.00  0.00    +0.000 OA
ATOM     12  O   UNL     1       6.900   5.746  19.809  0.00  0.00    +0.000 OA
BRANCH  10  13
ATOM     13  C   UNL     1       6.289   6.276  17.268  0.00  0.00    +0.000 C 
BRANCH  13  18
ATOM     14  C   UNL     1       6.066   3.293  12.264  0.00  0.00    +0.000 C 
ATOM     15  C   UNL     1       6.123   4.046  13.560  0.00  0.00    +0.000 A 
ATOM     16  C   UNL     1       4.958   4.311  14.286  0.00  0.00    +0.000 A 
ATOM     17  C   UNL     1       5.017   5.022  15.488  0.00  0.00    +0.000 A 
ATOM     18  C   UNL     1       6.246   5.486  15.985  0.00  0.00    +0.000 A 
ATOM     19  C   UNL     1       7.412   5.207  15.262  0.00  0.00    +0.000 A 
ATOM     20  C   UNL     1       7.350   4.496  14.060  0.00  0.00    +0.000 A 
ENDBRANCH  13  18
ENDBRANCH  10  13
ENDBRANCH   1  10
BRANCH   3  21
ATOM     21  C   UNL     1       1.587   6.662  20.624  0.00  0.00    +0.000 C 
BRANCH  21  22
ATOM     22  C   UNL     1       1.496   8.053  20.011  0.00  0.00    +0.000 C 
ATOM     23  O   UNL     1       1.765   8.257  18.825  0.00  0.00    +0.000 OA
ATOM     24  N   UNL     1       1.058   9.087  20.837  0.00  0.00    +0.000 N 
ATOM     25  C   UNL     1       0.715   8.948  22.257  0.00  0.00    +0.000 C 
ATOM     26  C   UNL     1      -0.357   9.957  22.685  0.00  0.00    +0.000 C 
ATOM     27  O   UNL     1       0.002  11.295  22.317  0.00  0.00    +0.000 OA
ATOM     28  C   UNL     1       0.164  11.399  20.893  0.00  0.00    +0.000 C 
ATOM     29  C   UNL     1       1.279  10.472  20.406  0.00  0.00    +0.000 C 
ENDBRANCH  21  22
ENDBRANCH   3  21
TORSDOF 5
ENDMDL
MODEL 3
REMARK VINA RESULT:      -7.8      0.902      1.540
REMARK  Name = 
REMARK  6 active torsions:
REMARK  status: ('A' for Active; 'I' for Inactive)
REMARK    1  A    between atoms: C_1  and  C_2
REMARK    2  A    between atoms: C_5  and  C_6
REMARK    3  A    between atoms: C_6  and  S_7
REMARK    4  A    between atoms: S_7  and  C_10
REMARK    5  A    between atoms: N_12  and  C_13
REMARK    6  A    between atoms: C_13  and  C_14
REMARK                            x       y       z     vdW  Elec       q    Type
REMARK                         _______ _______ _______ _____ _____    ______ ____
ROOT
ATOM      1  C   UNL     1       4.352   5.340  19.329  0.00  0.00    +0.000 A 
ATOM      2  C   UNL     1       3.797   6.581  19.563  0.00  0.00    +0.000 A 
ATOM      3  N   UNL     1       2.510   6.395  19.995  0.00  0.00    +0.000 N 
ATOM      4  C   UNL     1       2.208   5.044  20.013  0.00  0.00    +0.000 A 
ATOM      5  C   UNL     1       1.019   4.368  20.345  0.00  0.00    +0.000 A 
ATOM      6  C   UNL     1       1.006   2.973  20.268  0.00  0.00    +0.000 A 
ATOM      7  C   UNL     1       2.136   2.269  19.871  0.00  0.00    +0.000 A 
ATOM      8  C   UNL     1       3.310   2.947  19.530  0.00  0.00    +0.000 A 
ATOM      9  C   UNL     1       3.359   4.357  19.603  0.00  0.00    +0.000 A 
ENDROOT
BRANCH   1  10
ATOM     10  S   UNL     1       5.970   5.037  18.777  0.00  0.00    +0.000 S 
ATOM     11  O   UNL     1       5.921   3.671  18.292  0.00  0.00    +0.000 OA
ATOM     12  O   UNL     1       6.798   5.434  19.900  0.00  0.00    +0.000 OA
BRANCH  10  13
ATOM     13  C   UNL     1       6.176   6.181  17.417  0.00  0.00    +0.000 C 
BRANCH  13  18
ATOM     14  C   UNL     1       6.082   3.340  12.326  0.00  0.00    +0.000 C 
ATOM     15  C   UNL     1       6.106   4.056  13.645  0.00  0.00    +0.000 A 
ATOM     16  C   UNL     1       4.930   4.259  14.371  0.00  0.00    +0.000 A 
ATOM     17  C   UNL     1       4.957   4.936  15.594  0.00  0.00    +0.000 A 
ATOM     18  C   UNL     1       6.167   5.428  16.111  0.00  0.00    +0.000 A 
ATOM     19  C   UNL     1       7.345   5.211  15.388  0.00  0.00    +0.000 A 
ATOM     20  C   UNL     1       7.314   4.534  14.165  0.00  0.00    +0.000 A 
ENDBRANCH  13  18
ENDBRANCH  10  13
ENDBRANCH   1  10
BRANCH   3  21
ATOM     21  C   UNL     1       1.572   7.478  20.283  0.00  0.00    +0.000 C 
BRANCH  21  22
ATOM     22  C   UNL     1       1.551   8.553  19.205  0.00  0.00    +0.000 C 
ATOM     23  O   UNL     1       1.865   8.306  18.038  0.00  0.00    +0.000 OA
ATOM     24  N   UNL     1       1.123   9.825  19.581  0.00  0.00    +0.000 N 
ATOM     25  C   UNL     1       0.730  10.219  20.938  0.00  0.00    +0.000 C 
ATOM     26  C   UNL     1      -0.318  11.338  20.925  0.00  0.00    +0.000 C 
ATOM     27  O   UNL     1       0.100  12.442  20.114  0.00  0.00    +0.000 OA
ATOM     28  C   UNL     1       0.311  12.018  18.758  0.00  0.00    +0.000 C 
ATOM     29  C   UNL     1       1.407  10.954  18.687  0.00  0.00    +0.000 C 
ENDBRANCH  21  22
ENDBRANCH   3  21
TORSDOF 5
ENDMDL
MODEL 4
REMARK VINA RESULT:      -7.7      1.594      1.753
REMARK  Name = 
REMARK  6 active torsions:
REMARK  status: ('A' for Active; 'I' for Inactive)
REMARK    1  A    between atoms: C_1  and  C_2
REMARK    2  A    between atoms: C_5  and  C_6
REMARK    3  A    between atoms: C_6  and  S_7
REMARK    4  A    between atoms: S_7  and  C_10
REMARK    5  A    between atoms: N_12  and  C_13
REMARK    6  A    between atoms: C_13  and  C_14
REMARK                            x       y       z     vdW  Elec       q    Type
REMARK                         _______ _______ _______ _____ _____    ______ ____
ROOT
ATOM      1  C   UNL     1       5.094   5.688  17.462  0.00  0.00    +0.000 A 
ATOM      2  C   UNL     1       4.494   6.926  17.561  0.00  0.00    +0.000 A 
ATOM      3  N   UNL     1       3.164   6.732  17.826  0.00  0.00    +0.000 N 
ATOM      4  C   UNL     1       2.882   5.378  17.867  0.00  0.00    +0.000 A 
ATOM      5  C   UNL     1       1.669   4.693  18.069  0.00  0.00    +0.000 A 
ATOM      6  C   UNL     1       1.688   3.295  18.057  0.00  0.00    +0.000 A 
ATOM      7  C   UNL     1       2.871   2.599  17.848  0.00  0.00    +0.000 A 
ATOM      8  C   UNL     1       4.070   3.285  17.635  0.00  0.00    +0.000 A 
ATOM      9  C   UNL     1       4.087   4.697  17.647  0.00  0.00    +0.000 A 
ENDROOT
BRANCH   1  10
ATOM     10  S   UNL     1       6.775   5.394  17.145  0.00  0.00    +0.000 S 
ATOM     11  O   UNL     1       6.866   3.949  17.060  0.00  0.00    +0.000 OA
ATOM     12  O   UNL     1       7.458   6.157  18.173  0.00  0.00    +0.000 OA
BRANCH  10  13
ATOM     13  C   UNL     1       7.041   6.136  15.539  0.00  0.00    +0.000 C 
BRANCH  13  18
ATOM     14  C   UNL     1       5.595   2.316  11.379  0.00  0.00    +0.000 C 
ATOM     15  C   UNL     1       5.963   3.312  12.439  0.00  0.00    +0.000 A 
ATOM     16  C   UNL     1       7.199   3.963  12.412  0.00  0.00    +0.000 A 
ATOM     17  C   UNL     1       7.540   4.882  13.409  0.00  0.00    +0.000 A 
ATOM     18  C   UNL     1       6.648   5.164  14.456  0.00  0.00    +0.000 A 
ATOM     19  C   UNL     1       5.405   4.520  14.473  0.00  0.00    +0.000 A 
ATOM     20  C   UNL     1       5.067   3.601  13.475  0.00  0.00    +0.000 A 
ENDBRANCH  13  18
ENDBRANCH  10  13
ENDBRANCH   1  10
BRANCH   3  21
ATOM     21  C   UNL     1       2.180   7.808  17.935  0.00  0.00    +0.000 C 
BRANCH  21  22
ATOM     22  C   UNL     1       1.831   8.155  19.376  0.00  0.00    +0.000 C 
ATOM     23  O   UNL     1       2.198   7.450  20.319  0.00  0.00    +0.000 OA
ATOM     24  N   UNL     1       1.111   9.328  19.593  0.00  0.00    +0.000 N 
ATOM     25  C   UNL     1       0.629  10.232  18.542  0.00  0.00    +0.000 C 
ATOM     26  C   UNL     1       0.547  11.682  19.033  0.00  0.00    +0.000 C 
ATOM     27  O   UNL     1      -0.197  11.785  20.252  0.00  0.00    +0.000 OA
ATOM     28  C   UNL     1       0.422  11.003  21.286  0.00  0.00    +0.000 C 
ATOM     29  C   UNL     1       0.465   9.524  20.896  0.00  0.00    +0.000 C 
ENDBRANCH  21  22
ENDBRANCH   3  21
TORSDOF 5
ENDMDL
MODEL 5
REMARK VINA RESULT:      -7.6      1.987      2.473
REMARK  Name = 
REMARK  6 active torsions:
REMARK  status: ('A' for Active; 'I' for Inactive)
REMARK    1  A    between atoms: C_1  and  C_2
REMARK    2  A    between atoms: C_5  and  C_6
REMARK    3  A    between atoms: C_6  and  S_7
REMARK    4  A    between atoms: S_7  and  C_10
REMARK    5  A    between atoms: N_12  and  C_13
REMARK    6  A    between atoms: C_13  and  C_14
REMARK                            x       y       z     vdW  Elec       q    Type
REMARK                         _______ _______ _______ _____ _____    ______ ____
ROOT
ATOM      1  C   UNL     1       4.193   6.261  17.763  0.00  0.00    +0.000 A 
ATOM      2  C   UNL     1       3.693   7.150  18.693  0.00  0.00    +0.000 A 
ATOM      3  N   UNL     1       2.648   6.544  19.339  0.00  0.00    +0.000 N 
ATOM      4  C   UNL     1       2.437   5.280  18.817  0.00  0.00    +0.000 A 
ATOM      5  C   UNL     1       1.473   4.303  19.125  0.00  0.00    +0.000 A 
ATOM      6  C   UNL     1       1.502   3.097  18.419  0.00  0.00    +0.000 A 
ATOM      7  C   UNL     1       2.456   2.868  17.436  0.00  0.00    +0.000 A 
ATOM      8  C   UNL     1       3.403   3.847  17.126  0.00  0.00    +0.000 A 
ATOM      9  C   UNL     1       3.406   5.075  17.824  0.00  0.00    +0.000 A 
ENDROOT
BRANCH   1  10
ATOM     10  S   UNL     1       5.530   6.549  16.695  0.00  0.00    +0.000 S 
ATOM     11  O   UNL     1       6.393   7.436  17.450  0.00  0.00    +0.000 OA
ATOM     12  O   UNL     1       4.899   6.950  15.452  0.00  0.00    +0.000 OA
BRANCH  10  13
ATOM     13  C   UNL     1       6.287   4.938  16.517  0.00  0.00    +0.000 C 
BRANCH  13  18
ATOM     14  C   UNL     1       7.178   3.707  10.888  0.00  0.00    +0.000 C 
ATOM     15  C   UNL     1       6.940   4.038  12.332  0.00  0.00    +0.000 A 
ATOM     16  C   UNL     1       7.758   4.952  13.001  0.00  0.00    +0.000 A 
ATOM     17  C   UNL     1       7.538   5.249  14.350  0.00  0.00    +0.000 A 
ATOM     18  C   UNL     1       6.494   4.629  15.056  0.00  0.00    +0.000 A 
ATOM     19  C   UNL     1       5.668   3.724  14.379  0.00  0.00    +0.000 A 
ATOM     20  C   UNL     1       5.891   3.429  13.030  0.00  0.00    +0.000 A 
ENDBRANCH  13  18
ENDBRANCH  10  13
ENDBRANCH   1  10
BRANCH   3  21
ATOM     21  C   UNL     1       1.818   7.194  20.351  0.00  0.00    +0.000 C 
BRANCH  21  22
ATOM     22  C   UNL     1       1.370   8.592  19.949  0.00  0.00    +0.000 C 
ATOM     23  O   UNL     1       1.379   8.962  18.773  0.00  0.00    +0.000 OA
ATOM     24  N   UNL     1       0.909   9.430  20.964  0.00  0.00    +0.000 N 
ATOM     25  C   UNL     1       0.858   9.086  22.389  0.00  0.00    +0.000 C 
ATOM     26  C   UNL     1      -0.283   9.813  23.110  0.00  0.00    +0.000 C 
ATOM     27  O   UNL     1      -0.242  11.225  22.870  0.00  0.00    +0.000 OA
ATOM     28  C   UNL     1      -0.361  11.500  21.465  0.00  0.00    +0.000 C 
ATOM     29  C   UNL     1       0.796  10.867  20.689  0.00  0.00    +0.000 C 
ENDBRANCH  21  22
ENDBRANCH   3  21
TORSDOF 5
ENDMDL
MODEL 6
REMARK VINA RESULT:      -7.6      2.343      3.583
REMARK  Name = 
REMARK  6 active torsions:
REMARK  status: ('A' for Active; 'I' for Inactive)
REMARK    1  A    between atoms: C_1  and  C_2
REMARK    2  A    between atoms: C_5  and  C_6
REMARK    3  A    between atoms: C_6  and  S_7
REMARK    4  A    between atoms: S_7  and  C_10
REMARK    5  A    between atoms: N_12  and  C_13
REMARK    6  A    between atoms: C_13  and  C_14
REMARK                            x       y       z     vdW  Elec       q    Type
REMARK                         _______ _______ _______ _____ _____    ______ ____
ROOT
ATOM      1  C   UNL     1       4.096   5.256  17.316  0.00  0.00    +0.000 A 
ATOM      2  C   UNL     1       3.903   6.451  17.978  0.00  0.00    +0.000 A 
ATOM      3  N   UNL     1       2.900   6.272  18.893  0.00  0.00    +0.000 N 
ATOM      4  C   UNL     1       2.411   4.979  18.813  0.00  0.00    +0.000 A 
ATOM      5  C   UNL     1       1.372   4.340  19.513  0.00  0.00    +0.000 A 
ATOM      6  C   UNL     1       1.095   3.003  19.213  0.00  0.00    +0.000 A 
ATOM      7  C   UNL     1       1.824   2.322  18.247  0.00  0.00    +0.000 A 
ATOM      8  C   UNL     1       2.847   2.967  17.545  0.00  0.00    +0.000 A 
ATOM      9  C   UNL     1       3.156   4.316  17.827  0.00  0.00    +0.000 A 
ENDROOT
BRANCH   1  10
ATOM     10  S   UNL     1       5.264   4.961  16.066  0.00  0.00    +0.000 S 
ATOM     11  O   UNL     1       5.341   6.225  15.358  0.00  0.00    +0.000 OA
ATOM     12  O   UNL     1       4.794   3.744  15.435  0.00  0.00    +0.000 OA
BRANCH  10  13
ATOM     13  C   UNL     1       6.779   4.652  16.966  0.00  0.00    +0.000 C 
BRANCH  13  18
ATOM     14  C   UNL     1       8.992   9.628  19.049  0.00  0.00    +0.000 C 
ATOM     15  C   UNL     1       8.409   8.349  18.522  0.00  0.00    +0.000 A 
ATOM     16  C   UNL     1       8.427   7.183  19.291  0.00  0.00    +0.000 A 
ATOM     17  C   UNL     1       7.890   5.993  18.790  0.00  0.00    +0.000 A 
ATOM     18  C   UNL     1       7.328   5.949  17.503  0.00  0.00    +0.000 A 
ATOM     19  C   UNL     1       7.300   7.122  16.741  0.00  0.00    +0.000 A 
ATOM     20  C   UNL     1       7.837   8.311  17.245  0.00  0.00    +0.000 A 
ENDBRANCH  13  18
ENDBRANCH  10  13
ENDBRANCH   1  10
BRANCH   3  21
ATOM     21  C   UNL     1       2.361   7.331  19.744  0.00  0.00    +0.000 C 
BRANCH  21  22
ATOM     22  C   UNL     1       1.668   8.435  18.957  0.00  0.00    +0.000 C 
ATOM     23  O   UNL     1       1.664   8.447  17.724  0.00  0.00    +0.000 OA
ATOM     24  N   UNL     1       0.999   9.415  19.689  0.00  0.00    +0.000 N 
ATOM     25  C   UNL     1       0.945   9.490  21.153  0.00  0.00    +0.000 C 
ATOM     26  C   UNL     1      -0.352  10.145  21.642  0.00  0.00    +0.000 C 
ATOM     27  O   UNL     1      -0.578  11.407  21.002  0.00  0.00    +0.000 OA
ATOM     28  C   UNL     1      -0.677  11.239  19.579  0.00  0.00    +0.000 C 
ATOM     29  C   UNL     1       0.620  10.660  19.010  0.00  0.00    +0.000 C 
ENDBRANCH  21  22
ENDBRANCH   3  21
TORSDOF 5
ENDMDL
MODEL 7
REMARK VINA RESULT:      -7.5      1.758      2.254
REMARK  Name = 
REMARK  6 active torsions:
REMARK  status: ('A' for Active; 'I' for Inactive)
REMARK    1  A    between atoms: C_1  and  C_2
REMARK    2  A    between atoms: C_5  and  C_6
REMARK    3  A    between atoms: C_6  and  S_7
REMARK    4  A    between atoms: S_7  and  C_10
REMARK    5  A    between atoms: N_12  and  C_13
REMARK    6  A    between atoms: C_13  and  C_14
REMARK                            x       y       z     vdW  Elec       q    Type
REMARK                         _______ _______ _______ _____ _____    ______ ____
ROOT
ATOM      1  C   UNL     1       4.535   5.378  17.557  0.00  0.00    +0.000 A 
ATOM      2  C   UNL     1       4.179   6.521  18.244  0.00  0.00    +0.000 A 
ATOM      3  N   UNL     1       3.025   6.257  18.934  0.00  0.00    +0.000 N 
ATOM      4  C   UNL     1       2.605   4.963  18.678  0.00  0.00    +0.000 A 
ATOM      5  C   UNL     1       1.473   4.255  19.122  0.00  0.00    +0.000 A 
ATOM      6  C   UNL     1       1.305   2.936  18.690  0.00  0.00    +0.000 A 
ATOM      7  C   UNL     1       2.229   2.340  17.841  0.00  0.00    +0.000 A 
ATOM      8  C   UNL     1       3.344   3.053  17.393  0.00  0.00    +0.000 A 
ATOM      9  C   UNL     1       3.547   4.385  17.815  0.00  0.00    +0.000 A 
ENDROOT
BRANCH   1  10
ATOM     10  S   UNL     1       5.930   5.196  16.540  0.00  0.00    +0.000 S 
ATOM     11  O   UNL     1       6.162   3.764  16.523  0.00  0.00    +0.000 OA
ATOM     12  O   UNL     1       6.888   6.132  17.097  0.00  0.00    +0.000 OA
BRANCH  10  13
ATOM     13  C   UNL     1       5.366   5.761  14.939  0.00  0.00    +0.000 C 
BRANCH  13  18
ATOM     14  C   UNL     1       7.261   2.053  10.858  0.00  0.00    +0.000 C 
ATOM     15  C   UNL     1       6.771   3.019  11.897  0.00  0.00    +0.000 A 
ATOM     16  C   UNL     1       7.622   3.992  12.427  0.00  0.00    +0.000 A 
ATOM     17  C   UNL     1       7.162   4.883  13.402  0.00  0.00    +0.000 A 
ATOM     18  C   UNL     1       5.839   4.812  13.868  0.00  0.00    +0.000 A 
ATOM     19  C   UNL     1       4.985   3.845  13.324  0.00  0.00    +0.000 A 
ATOM     20  C   UNL     1       5.448   2.955  12.349  0.00  0.00    +0.000 A 
ENDBRANCH  13  18
ENDBRANCH  10  13
ENDBRANCH   1  10
BRANCH   3  21
ATOM     21  C   UNL     1       2.298   7.243  19.731  0.00  0.00    +0.000 C 
BRANCH  21  22
ATOM     22  C   UNL     1       1.746   8.393  18.900  0.00  0.00    +0.000 C 
ATOM     23  O   UNL     1       1.853   8.415  17.672  0.00  0.00    +0.000 OA
ATOM     24  N   UNL     1       1.077   9.409  19.581  0.00  0.00    +0.000 N 
ATOM     25  C   UNL     1       0.898   9.476  21.036  0.00  0.00    +0.000 C 
ATOM     26  C   UNL     1      -0.395  10.208  21.416  0.00  0.00    +0.000 C 
ATOM     27  O   UNL     1      -0.485  11.486  20.775  0.00  0.00    +0.000 OA
ATOM     28  C   UNL     1      -0.467  11.334  19.346  0.00  0.00    +0.000 C 
ATOM     29  C   UNL     1       0.837  10.679  18.888  0.00  0.00    +0.000 C 
ENDBRANCH  21  22
ENDBRANCH   3  21
TORSDOF 5
ENDMDL
MODEL 8
REMARK VINA RESULT:      -7.5      2.360      3.583
REMARK  Name = 
REMARK  6 active torsions:
REMARK  status: ('A' for Active; 'I' for Inactive)
REMARK    1  A    between atoms: C_1  and  C_2
REMARK    2  A    between atoms: C_5  and  C_6
REMARK    3  A    between atoms: C_6  and  S_7
REMARK    4  A    between atoms: S_7  and  C_10
REMARK    5  A    between atoms: N_12  and  C_13
REMARK    6  A    between atoms: C_13  and  C_14
REMARK                            x       y       z     vdW  Elec       q    Type
REMARK                         _______ _______ _______ _____ _____    ______ ____
ROOT
ATOM      1  C   UNL     1       3.706   5.239  17.905  0.00  0.00    +0.000 A 
ATOM      2  C   UNL     1       3.548   6.355  18.701  0.00  0.00    +0.000 A 
ATOM      3  N   UNL     1       2.584   6.078  19.633  0.00  0.00    +0.000 N 
ATOM      4  C   UNL     1       2.084   4.803  19.433  0.00  0.00    +0.000 A 
ATOM      5  C   UNL     1       1.072   4.092  20.104  0.00  0.00    +0.000 A 
ATOM      6  C   UNL     1       0.775   2.796  19.672  0.00  0.00    +0.000 A 
ATOM      7  C   UNL     1       1.458   2.224  18.607  0.00  0.00    +0.000 A 
ATOM      8  C   UNL     1       2.454   2.940  17.937  0.00  0.00    +0.000 A 
ATOM      9  C   UNL     1       2.783   4.250  18.351  0.00  0.00    +0.000 A 
ENDROOT
BRANCH   1  10
ATOM     10  S   UNL     1       4.818   5.081  16.582  0.00  0.00    +0.000 S 
ATOM     11  O   UNL     1       4.870   6.413  16.011  0.00  0.00    +0.000 OA
ATOM     12  O   UNL     1       4.317   3.938  15.844  0.00  0.00    +0.000 OA
BRANCH  10  13
ATOM     13  C   UNL     1       6.369   4.677  17.378  0.00  0.00    +0.000 C 
BRANCH  13  18
ATOM     14  C   UNL     1       9.061   9.622  18.893  0.00  0.00    +0.000 C 
ATOM     15  C   UNL     1       8.381   8.346  18.492  0.00  0.00    +0.000 A 
ATOM     16  C   UNL     1       7.621   8.277  17.322  0.00  0.00    +0.000 A 
ATOM     17  C   UNL     1       6.981   7.088  16.959  0.00  0.00    +0.000 A 
ATOM     18  C   UNL     1       7.088   5.944  17.767  0.00  0.00    +0.000 A 
ATOM     19  C   UNL     1       7.861   6.013  18.932  0.00  0.00    +0.000 A 
ATOM     20  C   UNL     1       8.500   7.204  19.292  0.00  0.00    +0.000 A 
ENDBRANCH  13  18
ENDBRANCH  10  13
ENDBRANCH   1  10
BRANCH   3  21
ATOM     21  C   UNL     1       2.088   7.039  20.616  0.00  0.00    +0.000 C 
BRANCH  21  22
ATOM     22  C   UNL     1       1.556   8.319  19.986  0.00  0.00    +0.000 C 
ATOM     23  O   UNL     1       1.549   8.485  18.764  0.00  0.00    +0.000 OA
ATOM     24  N   UNL     1       1.039   9.287  20.846  0.00  0.00    +0.000 N 
ATOM     25  C   UNL     1       1.003   9.186  22.310  0.00  0.00    +0.000 C 
ATOM     26  C   UNL     1      -0.185   9.953  22.903  0.00  0.00    +0.000 C 
ATOM     27  O   UNL     1      -0.230  11.303  22.428  0.00  0.00    +0.000 OA
ATOM     28  C   UNL     1      -0.358  11.329  20.997  0.00  0.00    +0.000 C 
ATOM     29  C   UNL     1       0.839  10.647  20.334  0.00  0.00    +0.000 C 
ENDBRANCH  21  22
ENDBRANCH   3  21
TORSDOF 5
ENDMDL
MODEL 9
REMARK VINA RESULT:      -7.4      1.653      2.119
REMARK  Name = 
REMARK  6 active torsions:
REMARK  status: ('A' for Active; 'I' for Inactive)
REMARK    1  A    between atoms: C_1  and  C_2
REMARK    2  A    between atoms: C_5  and  C_6
REMARK    3  A    between atoms: C_6  and  S_7
REMARK    4  A    between atoms: S_7  and  C_10
REMARK    5  A    between atoms: N_12  and  C_13
REMARK    6  A    between atoms: C_13  and  C_14
REMARK                            x       y       z     vdW  Elec       q    Type
REMARK                         _______ _______ _______ _____ _____    ______ ____
ROOT
ATOM      1  C   UNL     1       3.886   5.611  18.716  0.00  0.00    +0.000 A 
ATOM      2  C   UNL     1       3.390   6.656  19.469  0.00  0.00    +0.000 A 
ATOM      3  N   UNL     1       2.254   6.222  20.099  0.00  0.00    +0.000 N 
ATOM      4  C   UNL     1       1.983   4.913  19.739  0.00  0.00    +0.000 A 
ATOM      5  C   UNL     1       0.923   4.058  20.094  0.00  0.00    +0.000 A 
ATOM      6  C   UNL     1       0.910   2.764  19.565  0.00  0.00    +0.000 A 
ATOM      7  C   UNL     1       1.915   2.332  18.709  0.00  0.00    +0.000 A 
ATOM      8  C   UNL     1       2.958   3.190  18.350  0.00  0.00    +0.000 A 
ATOM      9  C   UNL     1       3.005   4.502  18.871  0.00  0.00    +0.000 A 
ENDROOT
BRANCH   1  10
ATOM     10  S   UNL     1       5.320   5.652  17.738  0.00  0.00    +0.000 S 
ATOM     11  O   UNL     1       6.395   5.772  18.703  0.00  0.00    +0.000 OA
ATOM     12  O   UNL     1       5.038   6.680  16.756  0.00  0.00    +0.000 OA
BRANCH  10  13
ATOM     13  C   UNL     1       5.350   4.040  16.961  0.00  0.00    +0.000 C 
BRANCH  13  18
ATOM     14  C   UNL     1       7.352   4.477  11.503  0.00  0.00    +0.000 C 
ATOM     15  C   UNL     1       6.830   4.380  12.907  0.00  0.00    +0.000 A 
ATOM     16  C   UNL     1       7.515   4.976  13.968  0.00  0.00    +0.000 A 
ATOM     17  C   UNL     1       7.029   4.874  15.275  0.00  0.00    +0.000 A 
ATOM     18  C   UNL     1       5.846   4.166  15.544  0.00  0.00    +0.000 A 
ATOM     19  C   UNL     1       5.155   3.581  14.476  0.00  0.00    +0.000 A 
ATOM     20  C   UNL     1       5.644   3.685  13.170  0.00  0.00    +0.000 A 
ENDBRANCH  13  18
ENDBRANCH  10  13
ENDBRANCH   1  10
BRANCH   3  21
ATOM     21  C   UNL     1       1.404   7.064  20.937  0.00  0.00    +0.000 C 
BRANCH  21  22
ATOM     22  C   UNL     1       1.227   8.472  20.385  0.00  0.00    +0.000 C 
ATOM     23  O   UNL     1       1.461   8.739  19.204  0.00  0.00    +0.000 OA
ATOM     24  N   UNL     1       0.751   9.446  21.261  0.00  0.00    +0.000 N 
ATOM     25  C   UNL     1       0.445   9.231  22.680  0.00  0.00    +0.000 C 
ATOM     26  C   UNL     1      -0.671  10.163  23.168  0.00  0.00    +0.000 C 
ATOM     27  O   UNL     1      -0.390  11.531  22.851  0.00  0.00    +0.000 OA
ATOM     28  C   UNL     1      -0.263  11.702  21.430  0.00  0.00    +0.000 C 
ATOM     29  C   UNL     1       0.890  10.857  20.885  0.00  0.00    +0.000 C 
ENDBRANCH  21  22
ENDBRANCH   3  21
TORSDOF 5
ENDMDL
