MODEL 1
REMARK VINA RESULT:      -7.2      0.000      0.000
REMARK  Name = 
REMARK  3 active torsions:
REMARK  status: ('A' for Active; 'I' for Inactive)
REMARK    1  A    between atoms: C_1  and  N_2
REMARK    2  A    between atoms: C_6  and  C_7
REMARK    3  A    between atoms: C_7  and  C_8
REMARK                            x       y       z     vdW  Elec       q    Type
REMARK                         _______ _______ _______ _____ _____    ______ ____
ROOT
ATOM      1  C   UNL     1       3.509   7.552  17.806  0.00  0.00    +0.000 C 
ATOM      2  O   UNL     1       3.807   8.715  17.500  0.00  0.00    +0.000 OA
ATOM      3  N   UNL     1       2.382   7.278  18.588  0.00  0.00    +0.000 N 
ATOM      4  C   UNL     1       1.441   8.325  18.804  0.00  0.00    +0.000 A 
ATOM      5  C   UNL     1       0.890   8.999  17.693  0.00  0.00    +0.000 A 
ATOM      6  C   UNL     1       0.018  10.075  17.864  0.00  0.00    +0.000 A 
ATOM      7  C   UNL     1      -0.287  10.526  19.145  0.00  0.00    +0.000 A 
ATOM      8  C   UNL     1       0.262   9.879  20.251  0.00  0.00    +0.000 A 
ATOM      9  C   UNL     1       1.097   8.763  20.077  0.00  0.00    +0.000 A 
ATOM     10  C   UNL     1       1.580   8.106  21.299  0.00  0.00    +0.000 C 
ATOM     11  O   UNL     1       1.858   8.769  22.293  0.00  0.00    +0.000 OA
ATOM     12  N   UNL     1       1.514   6.744  21.379  0.00  0.00    +0.000 N 
ATOM     13  C   UNL     1       1.519   5.782  20.353  0.00  0.00    +0.000 A 
ATOM     14  C   UNL     1       1.180   4.480  20.747  0.00  0.00    +0.000 A 
ATOM     15  C   UNL     1       1.333   3.420  19.866  0.00  0.00    +0.000 A 
ATOM     16  C   UNL     1       1.838   3.697  18.615  0.00  0.00    +0.000 A 
ATOM     17  N   UNL     1       2.162   4.942  18.198  0.00  0.00    +0.000 NA
ATOM     18  C   UNL     1       1.994   5.990  19.048  0.00  0.00    +0.000 A 
ATOM     19  H   UNL     1       1.525   6.413  22.335  0.00  0.00    +0.000 HD
ENDROOT
BRANCH   1  20
ATOM     20  C   UNL     1       4.448   6.405  17.449  0.00  0.00    +0.000 C 
BRANCH  20  26
ATOM     21  C   UNL     1       6.117   3.765  14.402  0.00  0.00    +0.000 C 
ATOM     22  N   UNL     1       6.094   4.556  15.633  0.00  0.00    +0.000 NA
ATOM     23  C   UNL     1       7.354   4.411  16.373  0.00  0.00    +0.000 C 
ATOM     24  C   UNL     1       7.347   5.229  17.669  0.00  0.00    +0.000 C 
ATOM     25  C   UNL     1       6.967   6.691  17.421  0.00  0.00    +0.000 C 
ATOM     26  C   UNL     1       5.673   6.811  16.593  0.00  0.00    +0.000 C 
ATOM     27  C   UNL     1       5.843   5.969  15.313  0.00  0.00    +0.000 C 
ENDBRANCH  20  26
ENDBRANCH   1  20
TORSDOF 2
ENDMDL
MODEL 2
REMARK VINA RESULT:      -7.0      4.864      9.352
REMARK  Name = 
REMARK  3 active torsions:
REMARK  status: ('A' for Active; 'I' for Inactive)
REMARK    1  A    between atoms: C_1  and  N_2
REMARK    2  A    between atoms: C_6  and  C_7
REMARK    3  A    between atoms: C_7  and  C_8
REMARK                            x       y       z     vdW  Elec       q    Type
REMARK                         _______ _______ _______ _____ _____    ______ ____
ROOT
ATOM      1  C   UNL     1      -0.355  12.805  20.698  0.00  0.00    +0.000 C 
ATOM      2  O   UNL     1       0.643  12.913  21.425  0.00  0.00    +0.000 OA
ATOM      3  N   UNL     1      -0.677  11.586  20.092  0.00  0.00    +0.000 N 
ATOM      4  C   UNL     1       0.004  10.415  20.531  0.00  0.00    +0.000 A 
ATOM      5  C   UNL     1       0.001  10.087  21.904  0.00  0.00    +0.000 A 
ATOM      6  C   UNL     1       0.713   8.987  22.382  0.00  0.00    +0.000 A 
ATOM      7  C   UNL     1       1.476   8.218  21.508  0.00  0.00    +0.000 A 
ATOM      8  C   UNL     1       1.499   8.539  20.151  0.00  0.00    +0.000 A 
ATOM      9  C   UNL     1       0.739   9.615  19.664  0.00  0.00    +0.000 A 
ATOM     10  C   UNL     1       0.775   9.842  18.214  0.00  0.00    +0.000 C 
ATOM     11  O   UNL     1       1.808   9.652  17.580  0.00  0.00    +0.000 OA
ATOM     12  N   UNL     1      -0.403  10.061  17.557  0.00  0.00    +0.000 N 
ATOM     13  C   UNL     1      -1.614  10.589  18.036  0.00  0.00    +0.000 A 
ATOM     14  C   UNL     1      -2.714  10.447  17.179  0.00  0.00    +0.000 A 
ATOM     15  C   UNL     1      -3.910  11.091  17.461  0.00  0.00    +0.000 A 
ATOM     16  C   UNL     1      -3.962  11.874  18.594  0.00  0.00    +0.000 A 
ATOM     17  N   UNL     1      -2.925  12.022  19.449  0.00  0.00    +0.000 NA
ATOM     18  C   UNL     1      -1.757  11.375  19.191  0.00  0.00    +0.000 A 
ATOM     19  H   UNL     1      -0.336   9.858  16.568  0.00  0.00    +0.000 HD
ENDROOT
BRANCH   1  20
ATOM     20  C   UNL     1      -1.175  14.039  20.340  0.00  0.00    +0.000 C 
BRANCH  20  26
ATOM     21  C   UNL     1      -3.632  12.604  23.647  0.00  0.00    +0.000 C 
ATOM     22  N   UNL     1      -3.273  13.435  22.498  0.00  0.00    +0.000 NA
ATOM     23  C   UNL     1      -4.357  14.370  22.169  0.00  0.00    +0.000 C 
ATOM     24  C   UNL     1      -4.001  15.247  20.964  0.00  0.00    +0.000 C 
ATOM     25  C   UNL     1      -2.649  15.941  21.139  0.00  0.00    +0.000 C 
ATOM     26  C   UNL     1      -1.544  14.944  21.540  0.00  0.00    +0.000 C 
ATOM     27  C   UNL     1      -2.029  14.166  22.779  0.00  0.00    +0.000 C 
ENDBRANCH  20  26
ENDBRANCH   1  20
TORSDOF 2
ENDMDL
MODEL 3
REMARK VINA RESULT:      -7.0      4.864      9.494
REMARK  Name = 
REMARK  3 active torsions:
REMARK  status: ('A' for Active; 'I' for Inactive)
REMARK    1  A    between atoms: C_1  and  N_2
REMARK    2  A    between atoms: C_6  and  C_7
REMARK    3  A    between atoms: C_7  and  C_8
REMARK                            x       y       z     vdW  Elec       q    Type
REMARK                         _______ _______ _______ _____ _____    ______ ____
ROOT
ATOM      1  C   UNL     1      -2.523  10.766  18.558  0.00  0.00    +0.000 C 
ATOM      2  O   UNL     1      -2.518   9.759  17.834  0.00  0.00    +0.000 OA
ATOM      3  N   UNL     1      -1.497  10.994  19.481  0.00  0.00    +0.000 N 
ATOM      4  C   UNL     1      -0.321  10.197  19.392  0.00  0.00    +0.000 A 
ATOM      5  C   UNL     1       0.377  10.127  18.167  0.00  0.00    +0.000 A 
ATOM      6  C   UNL     1       1.493   9.304  18.020  0.00  0.00    +0.000 A 
ATOM      7  C   UNL     1       1.911   8.502  19.080  0.00  0.00    +0.000 A 
ATOM      8  C   UNL     1       1.222   8.550  20.291  0.00  0.00    +0.000 A 
ATOM      9  C   UNL     1       0.131   9.420  20.452  0.00  0.00    +0.000 A 
ATOM     10  C   UNL     1      -0.496   9.449  21.780  0.00  0.00    +0.000 C 
ATOM     11  O   UNL     1      -0.590   8.423  22.446  0.00  0.00    +0.000 OA
ATOM     12  N   UNL     1      -0.775  10.662  22.344  0.00  0.00    +0.000 N 
ATOM     13  C   UNL     1      -1.030  11.901  21.730  0.00  0.00    +0.000 A 
ATOM     14  C   UNL     1      -1.029  13.009  22.588  0.00  0.00    +0.000 A 
ATOM     15  C   UNL     1      -1.451  14.249  22.131  0.00  0.00    +0.000 A 
ATOM     16  C   UNL     1      -1.877  14.337  20.823  0.00  0.00    +0.000 A 
ATOM     17  N   UNL     1      -1.878  13.291  19.966  0.00  0.00    +0.000 NA
ATOM     18  C   UNL     1      -1.445  12.078  20.400  0.00  0.00    +0.000 A 
ATOM     19  H   UNL     1      -0.864  10.608  23.350  0.00  0.00    +0.000 HD
ENDROOT
BRANCH   1  20
ATOM     20  C   UNL     1      -3.724  11.705  18.550  0.00  0.00    +0.000 C 
BRANCH  20  26
ATOM     21  C   UNL     1      -6.858  14.423  17.200  0.00  0.00    +0.000 C 
ATOM     22  N   UNL     1      -6.275  13.293  17.925  0.00  0.00    +0.000 NA
ATOM     23  C   UNL     1      -7.287  12.619  18.747  0.00  0.00    +0.000 C 
ATOM     24  C   UNL     1      -6.694  11.435  19.517  0.00  0.00    +0.000 C 
ATOM     25  C   UNL     1      -5.939  10.474  18.597  0.00  0.00    +0.000 C 
ATOM     26  C   UNL     1      -4.925  11.217  17.705  0.00  0.00    +0.000 C 
ATOM     27  C   UNL     1      -5.671  12.349  16.973  0.00  0.00    +0.000 C 
ENDBRANCH  20  26
ENDBRANCH   1  20
TORSDOF 2
ENDMDL
MODEL 4
REMARK VINA RESULT:      -6.9      4.719      8.429
REMARK  Name = 
REMARK  3 active torsions:
REMARK  status: ('A' for Active; 'I' for Inactive)
REMARK    1  A    between atoms: C_1  and  N_2
REMARK    2  A    between atoms: C_6  and  C_7
REMARK    3  A    between atoms: C_7  and  C_8
REMARK                            x       y       z     vdW  Elec       q    Type
REMARK                         _______ _______ _______ _____ _____    ______ ____
ROOT
ATOM      1  C   UNL     1       0.159  12.773  20.576  0.00  0.00    +0.000 C 
ATOM      2  O   UNL     1       1.193  12.811  21.258  0.00  0.00    +0.000 OA
ATOM      3  N   UNL     1      -0.293  11.572  20.019  0.00  0.00    +0.000 N 
ATOM      4  C   UNL     1       0.302  10.357  20.463  0.00  0.00    +0.000 A 
ATOM      5  C   UNL     1       0.330  10.066  21.844  0.00  0.00    +0.000 A 
ATOM      6  C   UNL     1       0.964   8.919  22.324  0.00  0.00    +0.000 A 
ATOM      7  C   UNL     1       1.619   8.064  21.442  0.00  0.00    +0.000 A 
ATOM      8  C   UNL     1       1.611   8.348  20.077  0.00  0.00    +0.000 A 
ATOM      9  C   UNL     1       0.926   9.474  19.591  0.00  0.00    +0.000 A 
ATOM     10  C   UNL     1       0.920   9.661  18.134  0.00  0.00    +0.000 C 
ATOM     11  O   UNL     1       1.904   9.365  17.464  0.00  0.00    +0.000 OA
ATOM     12  N   UNL     1      -0.262   9.966  17.519  0.00  0.00    +0.000 N 
ATOM     13  C   UNL     1      -1.401  10.610  18.033  0.00  0.00    +0.000 A 
ATOM     14  C   UNL     1      -2.545  10.544  17.225  0.00  0.00    +0.000 A 
ATOM     15  C   UNL     1      -3.667  11.297  17.537  0.00  0.00    +0.000 A 
ATOM     16  C   UNL     1      -3.602  12.109  18.648  0.00  0.00    +0.000 A 
ATOM     17  N   UNL     1      -2.521  12.187  19.456  0.00  0.00    +0.000 NA
ATOM     18  C   UNL     1      -1.425  11.435  19.169  0.00  0.00    +0.000 A 
ATOM     19  H   UNL     1      -0.256   9.733  16.535  0.00  0.00    +0.000 HD
ENDROOT
BRANCH   1  20
ATOM     20  C   UNL     1      -0.566  14.065  20.217  0.00  0.00    +0.000 C 
BRANCH  20  26
ATOM     21  C   UNL     1       3.492  15.613  19.805  0.00  0.00    +0.000 C 
ATOM     22  N   UNL     1       2.031  15.663  19.865  0.00  0.00    +0.000 NA
ATOM     23  C   UNL     1       1.549  17.046  19.752  0.00  0.00    +0.000 C 
ATOM     24  C   UNL     1       0.020  17.120  19.817  0.00  0.00    +0.000 C 
ATOM     25  C   UNL     1      -0.642  16.175  18.813  0.00  0.00    +0.000 C 
ATOM     26  C   UNL     1      -0.076  14.745  18.916  0.00  0.00    +0.000 C 
ATOM     27  C   UNL     1       1.459  14.829  18.798  0.00  0.00    +0.000 C 
ENDBRANCH  20  26
ENDBRANCH   1  20
TORSDOF 2
ENDMDL
MODEL 5
REMARK VINA RESULT:      -6.9      4.874      9.308
REMARK  Name = 
REMARK  3 active torsions:
REMARK  status: ('A' for Active; 'I' for Inactive)
REMARK    1  A    between atoms: C_1  and  N_2
REMARK    2  A    between atoms: C_6  and  C_7
REMARK    3  A    between atoms: C_7  and  C_8
REMARK                            x       y       z     vdW  Elec       q    Type
REMARK                         _______ _______ _______ _____ _____    ______ ____
ROOT
ATOM      1  C   UNL     1      -0.297  12.838  20.674  0.00  0.00    +0.000 C 
ATOM      2  O   UNL     1       0.697  12.935  21.407  0.00  0.00    +0.000 OA
ATOM      3  N   UNL     1      -0.637  11.619  20.079  0.00  0.00    +0.000 N 
ATOM      4  C   UNL     1       0.018  10.440  20.536  0.00  0.00    +0.000 A 
ATOM      5  C   UNL     1      -0.001  10.128  21.912  0.00  0.00    +0.000 A 
ATOM      6  C   UNL     1       0.687   9.020  22.409  0.00  0.00    +0.000 A 
ATOM      7  C   UNL     1       1.441   8.227  21.548  0.00  0.00    +0.000 A 
ATOM      8  C   UNL     1       1.480   8.532  20.189  0.00  0.00    +0.000 A 
ATOM      9  C   UNL     1       0.744   9.617  19.684  0.00  0.00    +0.000 A 
ATOM     10  C   UNL     1       0.796   9.827  18.231  0.00  0.00    +0.000 C 
ATOM     11  O   UNL     1       1.830   9.611  17.608  0.00  0.00    +0.000 OA
ATOM     12  N   UNL     1      -0.373  10.060  17.563  0.00  0.00    +0.000 N 
ATOM     13  C   UNL     1      -1.578  10.617  18.028  0.00  0.00    +0.000 A 
ATOM     14  C   UNL     1      -2.674  10.486  17.163  0.00  0.00    +0.000 A 
ATOM     15  C   UNL     1      -3.859  11.155  17.429  0.00  0.00    +0.000 A 
ATOM     16  C   UNL     1      -3.905  11.951  18.552  0.00  0.00    +0.000 A 
ATOM     17  N   UNL     1      -2.872  12.089  19.414  0.00  0.00    +0.000 NA
ATOM     18  C   UNL     1      -1.714  11.418  19.172  0.00  0.00    +0.000 A 
ATOM     19  H   UNL     1      -0.303   9.845  16.577  0.00  0.00    +0.000 HD
ENDROOT
BRANCH   1  20
ATOM     20  C   UNL     1      -1.091  14.084  20.296  0.00  0.00    +0.000 C 
BRANCH  20  26
ATOM     21  C   UNL     1      -3.430  17.760  20.514  0.00  0.00    +0.000 C 
ATOM     22  N   UNL     1      -2.364  16.867  20.060  0.00  0.00    +0.000 NA
ATOM     23  C   UNL     1      -1.548  17.510  19.022  0.00  0.00    +0.000 C 
ATOM     24  C   UNL     1      -0.428  16.588  18.530  0.00  0.00    +0.000 C 
ATOM     25  C   UNL     1       0.408  16.035  19.686  0.00  0.00    +0.000 C 
ATOM     26  C   UNL     1      -0.478  15.418  20.786  0.00  0.00    +0.000 C 
ATOM     27  C   UNL     1      -1.527  16.468  21.201  0.00  0.00    +0.000 C 
ENDBRANCH  20  26
ENDBRANCH   1  20
TORSDOF 2
ENDMDL
MODEL 6
REMARK VINA RESULT:      -6.8      6.793     10.158
REMARK  Name = 
REMARK  3 active torsions:
REMARK  status: ('A' for Active; 'I' for Inactive)
REMARK    1  A    between atoms: C_1  and  N_2
REMARK    2  A    between atoms: C_6  and  C_7
REMARK    3  A    between atoms: C_7  and  C_8
REMARK                            x       y       z     vdW  Elec       q    Type
REMARK                         _______ _______ _______ _____ _____    ______ ____
ROOT
ATOM      1  C   UNL     1      -3.507  13.120  22.318  0.00  0.00    +0.000 C 
ATOM      2  O   UNL     1      -3.278  13.677  23.401  0.00  0.00    +0.000 OA
ATOM      3  N   UNL     1      -4.800  13.078  21.788  0.00  0.00    +0.000 N 
ATOM      4  C   UNL     1      -5.797  13.909  22.378  0.00  0.00    +0.000 A 
ATOM      5  C   UNL     1      -5.558  15.294  22.501  0.00  0.00    +0.000 A 
ATOM      6  C   UNL     1      -6.479  16.129  23.134  0.00  0.00    +0.000 A 
ATOM      7  C   UNL     1      -7.636  15.592  23.694  0.00  0.00    +0.000 A 
ATOM      8  C   UNL     1      -7.877  14.223  23.591  0.00  0.00    +0.000 A 
ATOM      9  C   UNL     1      -6.973  13.393  22.907  0.00  0.00    +0.000 A 
ATOM     10  C   UNL     1      -7.339  11.975  22.796  0.00  0.00    +0.000 C 
ATOM     11  O   UNL     1      -7.916  11.407  23.719  0.00  0.00    +0.000 OA
ATOM     12  N   UNL     1      -7.216  11.361  21.582  0.00  0.00    +0.000 N 
ATOM     13  C   UNL     1      -6.364  11.663  20.505  0.00  0.00    +0.000 A 
ATOM     14  C   UNL     1      -6.660  11.007  19.302  0.00  0.00    +0.000 A 
ATOM     15  C   UNL     1      -5.782  11.081  18.231  0.00  0.00    +0.000 A 
ATOM     16  C   UNL     1      -4.622  11.803  18.404  0.00  0.00    +0.000 A 
ATOM     17  N   UNL     1      -4.312  12.458  19.545  0.00  0.00    +0.000 NA
ATOM     18  C   UNL     1      -5.178  12.409  20.592  0.00  0.00    +0.000 A 
ATOM     19  H   UNL     1      -7.797  10.536  21.506  0.00  0.00    +0.000 HD
ENDROOT
BRANCH   1  20
ATOM     20  C   UNL     1      -2.400  12.348  21.608  0.00  0.00    +0.000 C 
BRANCH  20  26
ATOM     21  C   UNL     1       1.440  12.315  19.538  0.00  0.00    +0.000 C 
ATOM     22  N   UNL     1       0.365  11.807  20.391  0.00  0.00    +0.000 NA
ATOM     23  C   UNL     1       0.669  10.450  20.864  0.00  0.00    +0.000 C 
ATOM     24  C   UNL     1      -0.447   9.899  21.757  0.00  0.00    +0.000 C 
ATOM     25  C   UNL     1      -0.799  10.860  22.894  0.00  0.00    +0.000 C 
ATOM     26  C   UNL     1      -1.056  12.288  22.374  0.00  0.00    +0.000 C 
ATOM     27  C   UNL     1       0.160  12.716  21.529  0.00  0.00    +0.000 C 
ENDBRANCH  20  26
ENDBRANCH   1  20
TORSDOF 2
ENDMDL
MODEL 7
REMARK VINA RESULT:      -6.7      5.636     10.228
REMARK  Name = 
REMARK  3 active torsions:
REMARK  status: ('A' for Active; 'I' for Inactive)
REMARK    1  A    between atoms: C_1  and  N_2
REMARK    2  A    between atoms: C_6  and  C_7
REMARK    3  A    between atoms: C_7  and  C_8
REMARK                            x       y       z     vdW  Elec       q    Type
REMARK                         _______ _______ _______ _____ _____    ______ ____
ROOT
ATOM      1  C   UNL     1      -1.046  13.361  21.878  0.00  0.00    +0.000 C 
ATOM      2  O   UNL     1      -0.069  13.420  22.638  0.00  0.00    +0.000 OA
ATOM      3  N   UNL     1      -1.278  12.230  21.089  0.00  0.00    +0.000 N 
ATOM      4  C   UNL     1      -0.528  11.051  21.366  0.00  0.00    +0.000 A 
ATOM      5  C   UNL     1      -0.531  10.521  22.673  0.00  0.00    +0.000 A 
ATOM      6  C   UNL     1       0.244   9.407  23.000  0.00  0.00    +0.000 A 
ATOM      7  C   UNL     1       1.070   8.828  22.040  0.00  0.00    +0.000 A 
ATOM      8  C   UNL     1       1.093   9.351  20.748  0.00  0.00    +0.000 A 
ATOM      9  C   UNL     1       0.271  10.438  20.408  0.00  0.00    +0.000 A 
ATOM     10  C   UNL     1       0.315  10.883  19.009  0.00  0.00    +0.000 C 
ATOM     11  O   UNL     1       1.369  10.856  18.381  0.00  0.00    +0.000 OA
ATOM     12  N   UNL     1      -0.864  11.124  18.362  0.00  0.00    +0.000 N 
ATOM     13  C   UNL     1      -2.115  11.497  18.884  0.00  0.00    +0.000 A 
ATOM     14  C   UNL     1      -3.189  11.417  17.987  0.00  0.00    +0.000 A 
ATOM     15  C   UNL     1      -4.429  11.935  18.332  0.00  0.00    +0.000 A 
ATOM     16  C   UNL     1      -4.550  12.533  19.567  0.00  0.00    +0.000 A 
ATOM     17  N   UNL     1      -3.539  12.615  20.461  0.00  0.00    +0.000 NA
ATOM     18  C   UNL     1      -2.327  12.090  20.139  0.00  0.00    +0.000 A 
ATOM     19  H   UNL     1      -0.768  11.077  17.356  0.00  0.00    +0.000 HD
ENDROOT
BRANCH   1  20
ATOM     20  C   UNL     1      -1.940  14.582  21.688  0.00  0.00    +0.000 C 
BRANCH  20  26
ATOM     21  C   UNL     1      -4.371  12.486  24.643  0.00  0.00    +0.000 C 
ATOM     22  N   UNL     1      -4.044  13.509  23.650  0.00  0.00    +0.000 NA
ATOM     23  C   UNL     1      -5.181  14.412  23.432  0.00  0.00    +0.000 C 
ATOM     24  C   UNL     1      -4.859  15.489  22.391  0.00  0.00    +0.000 C 
ATOM     25  C   UNL     1      -3.563  16.233  22.720  0.00  0.00    +0.000 C 
ATOM     26  C   UNL     1      -2.401  15.260  23.000  0.00  0.00    +0.000 C 
ATOM     27  C   UNL     1      -2.861  14.266  24.085  0.00  0.00    +0.000 C 
ENDBRANCH  20  26
ENDBRANCH   1  20
TORSDOF 2
ENDMDL
MODEL 8
REMARK VINA RESULT:      -6.7      4.866      9.547
REMARK  Name = 
REMARK  3 active torsions:
REMARK  status: ('A' for Active; 'I' for Inactive)
REMARK    1  A    between atoms: C_1  and  N_2
REMARK    2  A    between atoms: C_6  and  C_7
REMARK    3  A    between atoms: C_7  and  C_8
REMARK                            x       y       z     vdW  Elec       q    Type
REMARK                         _______ _______ _______ _____ _____    ______ ____
ROOT
ATOM      1  C   UNL     1      -0.380  12.790  20.697  0.00  0.00    +0.000 C 
ATOM      2  O   UNL     1       0.610  12.896  21.436  0.00  0.00    +0.000 OA
ATOM      3  N   UNL     1      -0.696  11.573  20.085  0.00  0.00    +0.000 N 
ATOM      4  C   UNL     1      -0.021  10.400  20.530  0.00  0.00    +0.000 A 
ATOM      5  C   UNL     1      -0.039  10.070  21.901  0.00  0.00    +0.000 A 
ATOM      6  C   UNL     1       0.667   8.968  22.385  0.00  0.00    +0.000 A 
ATOM      7  C   UNL     1       1.439   8.200  21.517  0.00  0.00    +0.000 A 
ATOM      8  C   UNL     1       1.477   8.524  20.162  0.00  0.00    +0.000 A 
ATOM      9  C   UNL     1       0.723   9.602  19.669  0.00  0.00    +0.000 A 
ATOM     10  C   UNL     1       0.775   9.832  18.220  0.00  0.00    +0.000 C 
ATOM     11  O   UNL     1       1.815   9.643  17.597  0.00  0.00    +0.000 OA
ATOM     12  N   UNL     1      -0.395  10.053  17.550  0.00  0.00    +0.000 N 
ATOM     13  C   UNL     1      -1.612  10.581  18.018  0.00  0.00    +0.000 A 
ATOM     14  C   UNL     1      -2.702  10.442  17.147  0.00  0.00    +0.000 A 
ATOM     15  C   UNL     1      -3.900  11.086  17.418  0.00  0.00    +0.000 A 
ATOM     16  C   UNL     1      -3.964  11.866  18.551  0.00  0.00    +0.000 A 
ATOM     17  N   UNL     1      -2.937  12.011  19.418  0.00  0.00    +0.000 NA
ATOM     18  C   UNL     1      -1.766  11.365  19.172  0.00  0.00    +0.000 A 
ATOM     19  H   UNL     1      -0.318   9.852  16.562  0.00  0.00    +0.000 HD
ENDROOT
BRANCH   1  20
ATOM     20  C   UNL     1      -1.196  14.026  20.334  0.00  0.00    +0.000 C 
BRANCH  20  26
ATOM     21  C   UNL     1      -5.331  15.037  21.289  0.00  0.00    +0.000 C 
ATOM     22  N   UNL     1      -3.942  15.277  20.895  0.00  0.00    +0.000 NA
ATOM     23  C   UNL     1      -3.721  16.696  20.592  0.00  0.00    +0.000 C 
ATOM     24  C   UNL     1      -2.272  16.967  20.173  0.00  0.00    +0.000 C 
ATOM     25  C   UNL     1      -1.270  16.412  21.187  0.00  0.00    +0.000 C 
ATOM     26  C   UNL     1      -1.562  14.938  21.529  0.00  0.00    +0.000 C 
ATOM     27  C   UNL     1      -3.036  14.831  21.964  0.00  0.00    +0.000 C 
ENDBRANCH  20  26
ENDBRANCH   1  20
TORSDOF 2
ENDMDL
MODEL 9
REMARK VINA RESULT:      -6.7      8.693     11.135
REMARK  Name = 
REMARK  3 active torsions:
REMARK  status: ('A' for Active; 'I' for Inactive)
REMARK    1  A    between atoms: C_1  and  N_2
REMARK    2  A    between atoms: C_6  and  C_7
REMARK    3  A    between atoms: C_7  and  C_8
REMARK                            x       y       z     vdW  Elec       q    Type
REMARK                         _______ _______ _______ _____ _____    ______ ____
ROOT
ATOM      1  C   UNL     1       7.381  14.131  17.889  0.00  0.00    +0.000 C 
ATOM      2  O   UNL     1       7.372  13.130  17.157  0.00  0.00    +0.000 OA
ATOM      3  N   UNL     1       8.348  14.287  18.887  0.00  0.00    +0.000 N 
ATOM      4  C   UNL     1       9.473  13.413  18.876  0.00  0.00    +0.000 A 
ATOM      5  C   UNL     1      10.252  13.304  17.705  0.00  0.00    +0.000 A 
ATOM      6  C   UNL     1      11.321  12.409  17.633  0.00  0.00    +0.000 A 
ATOM      7  C   UNL     1      11.605  11.576  18.712  0.00  0.00    +0.000 A 
ATOM      8  C   UNL     1      10.833  11.664  19.870  0.00  0.00    +0.000 A 
ATOM      9  C   UNL     1       9.792  12.603  19.959  0.00  0.00    +0.000 A 
ATOM     10  C   UNL     1       9.073  12.667  21.238  0.00  0.00    +0.000 C 
ATOM     11  O   UNL     1       8.862  11.646  21.885  0.00  0.00    +0.000 OA
ATOM     12  N   UNL     1       8.832  13.893  21.791  0.00  0.00    +0.000 N 
ATOM     13  C   UNL     1       8.706  15.149  21.172  0.00  0.00    +0.000 A 
ATOM     14  C   UNL     1       8.716  16.251  22.040  0.00  0.00    +0.000 A 
ATOM     15  C   UNL     1       8.412  17.518  21.564  0.00  0.00    +0.000 A 
ATOM     16  C   UNL     1       8.091  17.640  20.231  0.00  0.00    +0.000 A 
ATOM     17  N   UNL     1       8.084  16.601  19.365  0.00  0.00    +0.000 NA
ATOM     18  C   UNL     1       8.403  15.360  19.818  0.00  0.00    +0.000 A 
ATOM     19  H   UNL     1       8.666  13.840  22.788  0.00  0.00    +0.000 HD
ENDROOT
BRANCH   1  20
ATOM     20  C   UNL     1       6.248  15.148  17.802  0.00  0.00    +0.000 C 
BRANCH  20  26
ATOM     21  C   UNL     1       2.546  17.338  17.068  0.00  0.00    +0.000 C 
ATOM     22  N   UNL     1       3.623  16.738  17.857  0.00  0.00    +0.000 NA
ATOM     23  C   UNL     1       3.440  17.014  19.288  0.00  0.00    +0.000 C 
ATOM     24  C   UNL     1       4.560  16.397  20.131  0.00  0.00    +0.000 C 
ATOM     25  C   UNL     1       4.749  14.908  19.832  0.00  0.00    +0.000 C 
ATOM     26  C   UNL     1       4.880  14.643  18.319  0.00  0.00    +0.000 C 
ATOM     27  C   UNL     1       3.671  15.288  17.614  0.00  0.00    +0.000 C 
ENDBRANCH  20  26
ENDBRANCH   1  20
TORSDOF 2
ENDMDL
