MODEL 1
REMARK VINA RESULT:      -6.0      0.000      0.000
REMARK  Name = 
REMARK  5 active torsions:
REMARK  status: ('A' for Active; 'I' for Inactive)
REMARK    1  A    between atoms: C_1  and  C_2
REMARK    2  A    between atoms: C_2  and  C_3
REMARK    3  A    between atoms: C_3  and  C_4
REMARK    4  A    between atoms: C_4  and  C_5
REMARK    5  A    between atoms: C_5  and  C_6
REMARK                            x       y       z     vdW  Elec       q    Type
REMARK                         _______ _______ _______ _____ _____    ______ ____
ROOT
ATOM      1  C   UNL     1       3.016   4.376  18.174  0.00  0.00    +0.000 A 
ATOM      2  C   UNL     1       4.026   3.460  18.411  0.00  0.00    +0.000 A 
ATOM      3 CL   UNL     1       3.843   1.764  18.173  0.00  0.00    +0.000 Cl
ATOM      4  N   UNL     1       5.269   3.764  18.813  0.00  0.00    +0.000 NA
ATOM      5  C   UNL     1       5.509   5.059  18.973  0.00  0.00    +0.000 A 
ATOM      6 CL   UNL     1       7.073   5.490  19.487  0.00  0.00    +0.000 Cl
ATOM      7  N   UNL     1       4.653   6.057  18.760  0.00  0.00    +0.000 NA
ATOM      8  C   UNL     1       3.428   5.680  18.365  0.00  0.00    +0.000 A 
ATOM      9 CL   UNL     1       2.408   7.040  18.091  0.00  0.00    +0.000 Cl
ENDROOT
BRANCH   1  10
ATOM     10  C   UNL     1       1.625   3.985  17.751  0.00  0.00    +0.000 C 
BRANCH  10  11
ATOM     11  C   UNL     1       0.889   3.157  18.811  0.00  0.00    +0.000 C 
BRANCH  11  12
ATOM     12  C   UNL     1       0.896   3.848  20.174  0.00  0.00    +0.000 C 
BRANCH  12  14
ATOM     13  C   UNL     1       2.655   2.747  21.599  0.00  0.00    +0.000 C 
ATOM     14  C   UNL     1       1.171   2.838  21.286  0.00  0.00    +0.000 C 
ENDBRANCH  12  14
ENDBRANCH  11  12
ENDBRANCH  10  11
ENDBRANCH   1  10
TORSDOF 4
ENDMDL
MODEL 2
REMARK VINA RESULT:      -5.9      1.545      1.589
REMARK  Name = 
REMARK  5 active torsions:
REMARK  status: ('A' for Active; 'I' for Inactive)
REMARK    1  A    between atoms: C_1  and  C_2
REMARK    2  A    between atoms: C_2  and  C_3
REMARK    3  A    between atoms: C_3  and  C_4
REMARK    4  A    between atoms: C_4  and  C_5
REMARK    5  A    between atoms: C_5  and  C_6
REMARK                            x       y       z     vdW  Elec       q    Type
REMARK                         _______ _______ _______ _____ _____    ______ ____
ROOT
ATOM      1  C   UNL     1       3.090   4.821  17.767  0.00  0.00    +0.000 A 
ATOM      2  C   UNL     1       3.700   3.618  17.457  0.00  0.00    +0.000 A 
ATOM      3 CL   UNL     1       2.922   2.091  17.624  0.00  0.00    +0.000 Cl
ATOM      4  N   UNL     1       4.938   3.483  16.959  0.00  0.00    +0.000 NA
ATOM      5  C   UNL     1       5.590   4.620  16.754  0.00  0.00    +0.000 A 
ATOM      6 CL   UNL     1       7.168   4.495  16.128  0.00  0.00    +0.000 Cl
ATOM      7  N   UNL     1       5.130   5.851  16.975  0.00  0.00    +0.000 NA
ATOM      8  C   UNL     1       3.889   5.910  17.478  0.00  0.00    +0.000 A 
ATOM      9 CL   UNL     1       3.377   7.540  17.703  0.00  0.00    +0.000 Cl
ENDROOT
BRANCH   1  10
ATOM     10  C   UNL     1       1.707   4.923  18.352  0.00  0.00    +0.000 C 
BRANCH  10  11
ATOM     11  C   UNL     1       1.683   4.709  19.870  0.00  0.00    +0.000 C 
BRANCH  11  12
ATOM     12  C   UNL     1       0.815   3.514  20.259  0.00  0.00    +0.000 C 
BRANCH  12  14
ATOM     13  C   UNL     1       2.895   2.571  21.316  0.00  0.00    +0.000 C 
ATOM     14  C   UNL     1       1.401   2.797  21.474  0.00  0.00    +0.000 C 
ENDBRANCH  12  14
ENDBRANCH  11  12
ENDBRANCH  10  11
ENDBRANCH   1  10
TORSDOF 4
ENDMDL
MODEL 3
REMARK VINA RESULT:      -5.9      1.719      2.033
REMARK  Name = 
REMARK  5 active torsions:
REMARK  status: ('A' for Active; 'I' for Inactive)
REMARK    1  A    between atoms: C_1  and  C_2
REMARK    2  A    between atoms: C_2  and  C_3
REMARK    3  A    between atoms: C_3  and  C_4
REMARK    4  A    between atoms: C_4  and  C_5
REMARK    5  A    between atoms: C_5  and  C_6
REMARK                            x       y       z     vdW  Elec       q    Type
REMARK                         _______ _______ _______ _____ _____    ______ ____
ROOT
ATOM      1  C   UNL     1       4.567   4.097  17.641  0.00  0.00    +0.000 A 
ATOM      2  C   UNL     1       5.108   3.861  18.893  0.00  0.00    +0.000 A 
ATOM      3 CL   UNL     1       4.474   2.698  19.995  0.00  0.00    +0.000 Cl
ATOM      4  N   UNL     1       6.196   4.464  19.393  0.00  0.00    +0.000 NA
ATOM      5  C   UNL     1       6.776   5.341  18.584  0.00  0.00    +0.000 A 
ATOM      6 CL   UNL     1       8.158   6.135  19.180  0.00  0.00    +0.000 Cl
ATOM      7  N   UNL     1       6.393   5.656  17.347  0.00  0.00    +0.000 NA
ATOM      8  C   UNL     1       5.295   5.019  16.915  0.00  0.00    +0.000 A 
ATOM      9 CL   UNL     1       4.899   5.472  15.301  0.00  0.00    +0.000 Cl
ENDROOT
BRANCH   1  10
ATOM     10  C   UNL     1       3.325   3.416  17.132  0.00  0.00    +0.000 C 
BRANCH  10  11
ATOM     11  C   UNL     1       2.035   4.111  17.585  0.00  0.00    +0.000 C 
BRANCH  11  12
ATOM     12  C   UNL     1       1.241   3.248  18.563  0.00  0.00    +0.000 C 
BRANCH  12  14
ATOM     13  C   UNL     1       1.160   2.959  21.062  0.00  0.00    +0.000 C 
ATOM     14  C   UNL     1       1.106   3.951  19.913  0.00  0.00    +0.000 C 
ENDBRANCH  12  14
ENDBRANCH  11  12
ENDBRANCH  10  11
ENDBRANCH   1  10
TORSDOF 4
ENDMDL
MODEL 4
REMARK VINA RESULT:      -5.8      1.702      2.933
REMARK  Name = 
REMARK  5 active torsions:
REMARK  status: ('A' for Active; 'I' for Inactive)
REMARK    1  A    between atoms: C_1  and  C_2
REMARK    2  A    between atoms: C_2  and  C_3
REMARK    3  A    between atoms: C_3  and  C_4
REMARK    4  A    between atoms: C_4  and  C_5
REMARK    5  A    between atoms: C_5  and  C_6
REMARK                            x       y       z     vdW  Elec       q    Type
REMARK                         _______ _______ _______ _____ _____    ______ ____
ROOT
ATOM      1  C   UNL     1       3.217   4.835  17.668  0.00  0.00    +0.000 A 
ATOM      2  C   UNL     1       3.981   5.931  17.309  0.00  0.00    +0.000 A 
ATOM      3 CL   UNL     1       3.526   7.557  17.654  0.00  0.00    +0.000 Cl
ATOM      4  N   UNL     1       5.171   5.879  16.694  0.00  0.00    +0.000 NA
ATOM      5  C   UNL     1       5.619   4.656  16.436  0.00  0.00    +0.000 A 
ATOM      6 CL   UNL     1       7.124   4.543  15.650  0.00  0.00    +0.000 Cl
ATOM      7  N   UNL     1       5.016   3.509  16.742  0.00  0.00    +0.000 NA
ATOM      8  C   UNL     1       3.828   3.637  17.351  0.00  0.00    +0.000 A 
ATOM      9 CL   UNL     1       3.144   2.102  17.728  0.00  0.00    +0.000 Cl
ENDROOT
BRANCH   1  10
ATOM     10  C   UNL     1       1.871   4.943  18.334  0.00  0.00    +0.000 C 
BRANCH  10  11
ATOM     11  C   UNL     1       1.943   4.779  19.856  0.00  0.00    +0.000 C 
BRANCH  11  12
ATOM     12  C   UNL     1       0.793   3.925  20.388  0.00  0.00    +0.000 C 
BRANCH  12  14
ATOM     13  C   UNL     1       2.827   2.808  21.365  0.00  0.00    +0.000 C 
ATOM     14  C   UNL     1       1.330   2.699  21.124  0.00  0.00    +0.000 C 
ENDBRANCH  12  14
ENDBRANCH  11  12
ENDBRANCH  10  11
ENDBRANCH   1  10
TORSDOF 4
ENDMDL
MODEL 5
REMARK VINA RESULT:      -5.7      1.563      2.752
REMARK  Name = 
REMARK  5 active torsions:
REMARK  status: ('A' for Active; 'I' for Inactive)
REMARK    1  A    between atoms: C_1  and  C_2
REMARK    2  A    between atoms: C_2  and  C_3
REMARK    3  A    between atoms: C_3  and  C_4
REMARK    4  A    between atoms: C_4  and  C_5
REMARK    5  A    between atoms: C_5  and  C_6
REMARK                            x       y       z     vdW  Elec       q    Type
REMARK                         _______ _______ _______ _____ _____    ______ ____
ROOT
ATOM      1  C   UNL     1       4.430   4.619  17.766  0.00  0.00    +0.000 A 
ATOM      2  C   UNL     1       5.094   5.751  17.325  0.00  0.00    +0.000 A 
ATOM      3 CL   UNL     1       4.486   6.784  16.088  0.00  0.00    +0.000 Cl
ATOM      4  N   UNL     1       6.255   6.209  17.815  0.00  0.00    +0.000 NA
ATOM      5  C   UNL     1       6.767   5.495  18.810  0.00  0.00    +0.000 A 
ATOM      6 CL   UNL     1       8.244   6.037  19.459  0.00  0.00    +0.000 Cl
ATOM      7  N   UNL     1       6.237   4.404  19.360  0.00  0.00    +0.000 NA
ATOM      8  C   UNL     1       5.079   4.000  18.816  0.00  0.00    +0.000 A 
ATOM      9 CL   UNL     1       4.463   2.602  19.612  0.00  0.00    +0.000 Cl
ENDROOT
BRANCH   1  10
ATOM     10  C   UNL     1       3.141   4.127  17.165  0.00  0.00    +0.000 C 
BRANCH  10  11
ATOM     11  C   UNL     1       1.902   4.625  17.918  0.00  0.00    +0.000 C 
BRANCH  11  12
ATOM     12  C   UNL     1       1.298   3.533  18.798  0.00  0.00    +0.000 C 
BRANCH  12  14
ATOM     13  C   UNL     1       2.037   4.871  20.798  0.00  0.00    +0.000 C 
ATOM     14  C   UNL     1       0.894   4.101  20.157  0.00  0.00    +0.000 C 
ENDBRANCH  12  14
ENDBRANCH  11  12
ENDBRANCH  10  11
ENDBRANCH   1  10
TORSDOF 4
ENDMDL
MODEL 6
REMARK VINA RESULT:      -5.7      2.244      3.192
REMARK  Name = 
REMARK  5 active torsions:
REMARK  status: ('A' for Active; 'I' for Inactive)
REMARK    1  A    between atoms: C_1  and  C_2
REMARK    2  A    between atoms: C_2  and  C_3
REMARK    3  A    between atoms: C_3  and  C_4
REMARK    4  A    between atoms: C_4  and  C_5
REMARK    5  A    between atoms: C_5  and  C_6
REMARK                            x       y       z     vdW  Elec       q    Type
REMARK                         _______ _______ _______ _____ _____    ______ ____
ROOT
ATOM      1  C   UNL     1       4.850   4.598  18.285  0.00  0.00    +0.000 A 
ATOM      2  C   UNL     1       6.142   5.062  18.101  0.00  0.00    +0.000 A 
ATOM      3 CL   UNL     1       7.127   5.652  19.385  0.00  0.00    +0.000 Cl
ATOM      4  N   UNL     1       6.801   5.079  16.934  0.00  0.00    +0.000 NA
ATOM      5  C   UNL     1       6.128   4.593  15.899  0.00  0.00    +0.000 A 
ATOM      6 CL   UNL     1       6.925   4.600  14.396  0.00  0.00    +0.000 Cl
ATOM      7  N   UNL     1       4.895   4.087  15.920  0.00  0.00    +0.000 NA
ATOM      8  C   UNL     1       4.294   4.107  17.119  0.00  0.00    +0.000 A 
ATOM      9 CL   UNL     1       2.721   3.410  17.047  0.00  0.00    +0.000 Cl
ENDROOT
BRANCH   1  10
ATOM     10  C   UNL     1       4.139   4.625  19.611  0.00  0.00    +0.000 C 
BRANCH  10  11
ATOM     11  C   UNL     1       2.973   5.620  19.643  0.00  0.00    +0.000 C 
BRANCH  11  12
ATOM     12  C   UNL     1       1.946   5.253  20.712  0.00  0.00    +0.000 C 
BRANCH  12  14
ATOM     13  C   UNL     1       1.305   2.864  21.179  0.00  0.00    +0.000 C 
ATOM     14  C   UNL     1       1.106   4.059  20.262  0.00  0.00    +0.000 C 
ENDBRANCH  12  14
ENDBRANCH  11  12
ENDBRANCH  10  11
ENDBRANCH   1  10
TORSDOF 4
ENDMDL
MODEL 7
REMARK VINA RESULT:      -5.7      1.397      1.590
REMARK  Name = 
REMARK  5 active torsions:
REMARK  status: ('A' for Active; 'I' for Inactive)
REMARK    1  A    between atoms: C_1  and  C_2
REMARK    2  A    between atoms: C_2  and  C_3
REMARK    3  A    between atoms: C_3  and  C_4
REMARK    4  A    between atoms: C_4  and  C_5
REMARK    5  A    between atoms: C_5  and  C_6
REMARK                            x       y       z     vdW  Elec       q    Type
REMARK                         _______ _______ _______ _____ _____    ______ ____
ROOT
ATOM      1  C   UNL     1       3.536   5.548  18.532  0.00  0.00    +0.000 A 
ATOM      2  C   UNL     1       4.661   4.753  18.671  0.00  0.00    +0.000 A 
ATOM      3 CL   UNL     1       4.629   3.183  19.380  0.00  0.00    +0.000 Cl
ATOM      4  N   UNL     1       5.893   5.071  18.248  0.00  0.00    +0.000 NA
ATOM      5  C   UNL     1       5.994   6.248  17.644  0.00  0.00    +0.000 A 
ATOM      6 CL   UNL     1       7.542   6.696  17.096  0.00  0.00    +0.000 Cl
ATOM      7  N   UNL     1       5.005   7.109  17.411  0.00  0.00    +0.000 NA
ATOM      8  C   UNL     1       3.802   6.728  17.866  0.00  0.00    +0.000 A 
ATOM      9 CL   UNL     1       2.589   7.893  17.493  0.00  0.00    +0.000 Cl
ENDROOT
BRANCH   1  10
ATOM     10  C   UNL     1       2.177   5.160  19.048  0.00  0.00    +0.000 C 
BRANCH  10  11
ATOM     11  C   UNL     1       1.537   4.019  18.248  0.00  0.00    +0.000 C 
BRANCH  11  12
ATOM     12  C   UNL     1       1.025   2.906  19.160  0.00  0.00    +0.000 C 
BRANCH  12  14
ATOM     13  C   UNL     1       1.740   2.551  21.547  0.00  0.00    +0.000 C 
ATOM     14  C   UNL     1       0.911   3.402  20.601  0.00  0.00    +0.000 C 
ENDBRANCH  12  14
ENDBRANCH  11  12
ENDBRANCH  10  11
ENDBRANCH   1  10
TORSDOF 4
ENDMDL
MODEL 8
REMARK VINA RESULT:      -5.6      2.221      2.947
REMARK  Name = 
REMARK  5 active torsions:
REMARK  status: ('A' for Active; 'I' for Inactive)
REMARK    1  A    between atoms: C_1  and  C_2
REMARK    2  A    between atoms: C_2  and  C_3
REMARK    3  A    between atoms: C_3  and  C_4
REMARK    4  A    between atoms: C_4  and  C_5
REMARK    5  A    between atoms: C_5  and  C_6
REMARK                            x       y       z     vdW  Elec       q    Type
REMARK                         _______ _______ _______ _____ _____    ______ ____
ROOT
ATOM      1  C   UNL     1       4.726   4.392  18.308  0.00  0.00    +0.000 A 
ATOM      2  C   UNL     1       4.182   3.966  17.108  0.00  0.00    +0.000 A 
ATOM      3 CL   UNL     1       2.575   3.364  16.959  0.00  0.00    +0.000 Cl
ATOM      4  N   UNL     1       4.802   3.999  15.920  0.00  0.00    +0.000 NA
ATOM      5  C   UNL     1       6.032   4.498  15.940  0.00  0.00    +0.000 A 
ATOM      6 CL   UNL     1       6.859   4.554  14.454  0.00  0.00    +0.000 Cl
ATOM      7  N   UNL     1       6.680   4.971  17.004  0.00  0.00    +0.000 NA
ATOM      8  C   UNL     1       6.001   4.902  18.158  0.00  0.00    +0.000 A 
ATOM      9 CL   UNL     1       6.911   5.561  19.464  0.00  0.00    +0.000 Cl
ENDROOT
BRANCH   1  10
ATOM     10  C   UNL     1       4.001   4.309  19.624  0.00  0.00    +0.000 C 
BRANCH  10  11
ATOM     11  C   UNL     1       3.048   5.487  19.856  0.00  0.00    +0.000 C 
BRANCH  11  12
ATOM     12  C   UNL     1       1.840   5.080  20.698  0.00  0.00    +0.000 C 
BRANCH  12  14
ATOM     13  C   UNL     1       1.379   2.763  21.568  0.00  0.00    +0.000 C 
ATOM     14  C   UNL     1       1.391   3.664  20.344  0.00  0.00    +0.000 C 
ENDBRANCH  12  14
ENDBRANCH  11  12
ENDBRANCH  10  11
ENDBRANCH   1  10
TORSDOF 4
ENDMDL
MODEL 9
REMARK VINA RESULT:      -5.6      1.755      2.042
REMARK  Name = 
REMARK  5 active torsions:
REMARK  status: ('A' for Active; 'I' for Inactive)
REMARK    1  A    between atoms: C_1  and  C_2
REMARK    2  A    between atoms: C_2  and  C_3
REMARK    3  A    between atoms: C_3  and  C_4
REMARK    4  A    between atoms: C_4  and  C_5
REMARK    5  A    between atoms: C_5  and  C_6
REMARK                            x       y       z     vdW  Elec       q    Type
REMARK                         _______ _______ _______ _____ _____    ______ ____
ROOT
ATOM      1  C   UNL     1       4.258   4.474  17.847  0.00  0.00    +0.000 A 
ATOM      2  C   UNL     1       5.452   4.293  17.171  0.00  0.00    +0.000 A 
ATOM      3 CL   UNL     1       5.556   3.578  15.607  0.00  0.00    +0.000 Cl
ATOM      4  N   UNL     1       6.660   4.674  17.613  0.00  0.00    +0.000 NA
ATOM      5  C   UNL     1       6.661   5.280  18.794  0.00  0.00    +0.000 A 
ATOM      6 CL   UNL     1       8.173   5.777  19.397  0.00  0.00    +0.000 Cl
ATOM      7  N   UNL     1       5.598   5.551  19.549  0.00  0.00    +0.000 NA
ATOM      8  C   UNL     1       4.425   5.136  19.048  0.00  0.00    +0.000 A 
ATOM      9 CL   UNL     1       3.114   5.556  20.083  0.00  0.00    +0.000 Cl
ENDROOT
BRANCH   1  10
ATOM     10  C   UNL     1       2.928   4.003  17.323  0.00  0.00    +0.000 C 
BRANCH  10  11
ATOM     11  C   UNL     1       2.742   2.486  17.445  0.00  0.00    +0.000 C 
BRANCH  11  12
ATOM     12  C   UNL     1       2.351   2.076  18.863  0.00  0.00    +0.000 C 
BRANCH  12  14
ATOM     13  C   UNL     1       0.963   3.037  20.730  0.00  0.00    +0.000 C 
ATOM     14  C   UNL     1       1.009   2.695  19.250  0.00  0.00    +0.000 C 
ENDBRANCH  12  14
ENDBRANCH  11  12
ENDBRANCH  10  11
ENDBRANCH   1  10
TORSDOF 4
ENDMDL
