MODEL 1
REMARK VINA RESULT:      -9.0      0.000      0.000
REMARK  Name = 
REMARK  5 active torsions:
REMARK  status: ('A' for Active; 'I' for Inactive)
REMARK    1  A    between atoms: N_15  and  C_16
REMARK    2  A    between atoms: C_16  and  C_17
REMARK    3  A    between atoms: C_17  and  C_18
REMARK    4  A    between atoms: C_18  and  N_19
REMARK    5  A    between atoms: N_22  and  C_23
REMARK                            x       y       z     vdW  Elec       q    Type
REMARK                         _______ _______ _______ _____ _____    ______ ____
ROOT
ATOM      1  O   UNL     1       2.303   8.827  17.481  0.00  0.00    +0.000 OA
ATOM      2  C   UNL     1       1.937   8.609  18.626  0.00  0.00    +0.000 A 
ATOM      3  C   UNL     1       1.194   9.588  19.314  0.00  0.00    +0.000 A 
ATOM      4  C   UNL     1       0.887  10.832  18.736  0.00  0.00    +0.000 A 
ATOM      5  N   UNL     1       0.156  11.747  19.422  0.00  0.00    +0.000 NA
ATOM      6  C   UNL     1      -0.317  11.502  20.670  0.00  0.00    +0.000 A 
ATOM      7  C   UNL     1      -1.084  12.479  21.317  0.00  0.00    +0.000 A 
ATOM      8  C   UNL     1      -1.597  12.236  22.592  0.00  0.00    +0.000 A 
ATOM      9  C   UNL     1      -1.343  11.020  23.229  0.00  0.00    +0.000 A 
ATOM     10  C   UNL     1      -0.566  10.038  22.598  0.00  0.00    +0.000 A 
ATOM     11  C   UNL     1      -0.041  10.266  21.308  0.00  0.00    +0.000 A 
ATOM     12  C   UNL     1       0.739   9.306  20.615  0.00  0.00    +0.000 A 
ATOM     13  N   UNL     1       1.050   8.106  21.174  0.00  0.00    +0.000 NA
ATOM     14  C   UNL     1       1.787   7.172  20.510  0.00  0.00    +0.000 A 
ATOM     15  N   UNL     1       2.235   7.400  19.235  0.00  0.00    +0.000 N 
ENDROOT
BRANCH  15  16
ATOM     16  C   UNL     1       2.998   6.342  18.520  0.00  0.00    +0.000 C 
BRANCH  16  17
ATOM     17  C   UNL     1       3.836   5.470  19.479  0.00  0.00    +0.000 C 
BRANCH  17  18
ATOM     18  C   UNL     1       5.366   5.575  19.257  0.00  0.00    +0.000 C 
BRANCH  18  19
ATOM     19  N   UNL     1       5.985   4.379  18.624  0.00  0.00    +0.000 NA
ATOM     20  C   UNL     1       5.118   3.673  17.651  0.00  0.00    +0.000 C 
ATOM     21  C   UNL     1       4.860   4.520  16.394  0.00  0.00    +0.000 C 
ATOM     22  N   UNL     1       6.145   4.872  15.803  0.00  0.00    +0.000 N 
ATOM     23  C   UNL     1       7.103   5.527  16.690  0.00  0.00    +0.000 C 
ATOM     24  C   UNL     1       7.289   4.697  17.975  0.00  0.00    +0.000 C 
BRANCH  22  25
ATOM     25  C   UNL     1       6.431   4.598  14.419  0.00  0.00    +0.000 A 
ATOM     26  C   UNL     1       7.495   5.265  13.769  0.00  0.00    +0.000 A 
ATOM     27  C   UNL     1       7.810   4.990  12.437  0.00  0.00    +0.000 A 
ATOM     28  C   UNL     1       7.064   4.056  11.720  0.00  0.00    +0.000 A 
ATOM     29  C   UNL     1       6.005   3.390  12.339  0.00  0.00    +0.000 A 
ATOM     30  C   UNL     1       5.692   3.648  13.679  0.00  0.00    +0.000 A 
ENDBRANCH  22  25
ENDBRANCH  18  19
ENDBRANCH  17  18
ENDBRANCH  16  17
ENDBRANCH  15  16
TORSDOF 5
ENDMDL
MODEL 2
REMARK VINA RESULT:      -8.0      2.214     11.057
REMARK  Name = 
REMARK  5 active torsions:
REMARK  status: ('A' for Active; 'I' for Inactive)
REMARK    1  A    between atoms: N_15  and  C_16
REMARK    2  A    between atoms: C_16  and  C_17
REMARK    3  A    between atoms: C_17  and  C_18
REMARK    4  A    between atoms: C_18  and  N_19
REMARK    5  A    between atoms: N_22  and  C_23
REMARK                            x       y       z     vdW  Elec       q    Type
REMARK                         _______ _______ _______ _____ _____    ______ ____
ROOT
ATOM      1  O   UNL     1       1.515   7.346  20.792  0.00  0.00    +0.000 OA
ATOM      2  C   UNL     1       2.003   7.639  19.711  0.00  0.00    +0.000 A 
ATOM      3  C   UNL     1       2.941   6.771  19.118  0.00  0.00    +0.000 A 
ATOM      4  C   UNL     1       3.365   5.588  19.748  0.00  0.00    +0.000 A 
ATOM      5  N   UNL     1       4.258   4.768  19.141  0.00  0.00    +0.000 NA
ATOM      6  C   UNL     1       4.766   5.039  17.912  0.00  0.00    +0.000 A 
ATOM      7  C   UNL     1       5.668   4.142  17.329  0.00  0.00    +0.000 A 
ATOM      8  C   UNL     1       6.184   4.392  16.056  0.00  0.00    +0.000 A 
ATOM      9  C   UNL     1       5.804   5.543  15.361  0.00  0.00    +0.000 A 
ATOM     10  C   UNL     1       4.910   6.456  15.939  0.00  0.00    +0.000 A 
ATOM     11  C   UNL     1       4.378   6.217  17.224  0.00  0.00    +0.000 A 
ATOM     12  C   UNL     1       3.461   7.097  17.852  0.00  0.00    +0.000 A 
ATOM     13  N   UNL     1       3.058   8.250  17.252  0.00  0.00    +0.000 NA
ATOM     14  C   UNL     1       2.165   9.093  17.842  0.00  0.00    +0.000 A 
ATOM     15  N   UNL     1       1.623   8.806  19.067  0.00  0.00    +0.000 N 
ENDROOT
BRANCH  15  16
ATOM     16  C   UNL     1       0.617   9.725  19.663  0.00  0.00    +0.000 C 
BRANCH  16  17
ATOM     17  C   UNL     1       0.895  11.204  19.322  0.00  0.00    +0.000 C 
BRANCH  17  18
ATOM     18  C   UNL     1       1.096  12.113  20.561  0.00  0.00    +0.000 C 
BRANCH  18  19
ATOM     19  N   UNL     1       0.180  13.285  20.626  0.00  0.00    +0.000 NA
ATOM     20  C   UNL     1      -1.123  13.093  19.947  0.00  0.00    +0.000 C 
ATOM     21  C   UNL     1      -1.994  12.050  20.667  0.00  0.00    +0.000 C 
ATOM     22  N   UNL     1      -2.173  12.472  22.050  0.00  0.00    +0.000 N 
ATOM     23  C   UNL     1      -0.951  12.744  22.802  0.00  0.00    +0.000 C 
ATOM     24  C   UNL     1      -0.060  13.734  22.027  0.00  0.00    +0.000 C 
BRANCH  22  25
ATOM     25  C   UNL     1      -3.484  12.594  22.631  0.00  0.00    +0.000 A 
ATOM     26  C   UNL     1      -4.609  12.821  21.803  0.00  0.00    +0.000 A 
ATOM     27  C   UNL     1      -5.894  12.910  22.343  0.00  0.00    +0.000 A 
ATOM     28  C   UNL     1      -6.085  12.789  23.717  0.00  0.00    +0.000 A 
ATOM     29  C   UNL     1      -4.989  12.571  24.555  0.00  0.00    +0.000 A 
ATOM     30  C   UNL     1      -3.700  12.464  24.021  0.00  0.00    +0.000 A 
ENDBRANCH  22  25
ENDBRANCH  18  19
ENDBRANCH  17  18
ENDBRANCH  16  17
ENDBRANCH  15  16
TORSDOF 5
ENDMDL
MODEL 3
REMARK VINA RESULT:      -8.0      0.635      1.383
REMARK  Name = 
REMARK  5 active torsions:
REMARK  status: ('A' for Active; 'I' for Inactive)
REMARK    1  A    between atoms: N_15  and  C_16
REMARK    2  A    between atoms: C_16  and  C_17
REMARK    3  A    between atoms: C_17  and  C_18
REMARK    4  A    between atoms: C_18  and  N_19
REMARK    5  A    between atoms: N_22  and  C_23
REMARK                            x       y       z     vdW  Elec       q    Type
REMARK                         _______ _______ _______ _____ _____    ______ ____
ROOT
ATOM      1  O   UNL     1       2.301   8.422  17.619  0.00  0.00    +0.000 OA
ATOM      2  C   UNL     1       1.909   8.336  18.773  0.00  0.00    +0.000 A 
ATOM      3  C   UNL     1       1.206   9.414  19.346  0.00  0.00    +0.000 A 
ATOM      4  C   UNL     1       0.969  10.608  18.643  0.00  0.00    +0.000 A 
ATOM      5  N   UNL     1       0.275  11.620  19.221  0.00  0.00    +0.000 NA
ATOM      6  C   UNL     1      -0.226  11.524  20.479  0.00  0.00    +0.000 A 
ATOM      7  C   UNL     1      -0.952  12.596  21.012  0.00  0.00    +0.000 A 
ATOM      8  C   UNL     1      -1.494  12.507  22.295  0.00  0.00    +0.000 A 
ATOM      9  C   UNL     1      -1.309  11.349  23.054  0.00  0.00    +0.000 A 
ATOM     10  C   UNL     1      -0.573  10.273  22.537  0.00  0.00    +0.000 A 
ATOM     11  C   UNL     1      -0.021  10.346  21.241  0.00  0.00    +0.000 A 
ATOM     12  C   UNL     1       0.720   9.286  20.661  0.00  0.00    +0.000 A 
ATOM     13  N   UNL     1       0.964   8.133  21.341  0.00  0.00    +0.000 NA
ATOM     14  C   UNL     1       1.662   7.103  20.786  0.00  0.00    +0.000 A 
ATOM     15  N   UNL     1       2.139   7.182  19.504  0.00  0.00    +0.000 N 
ENDROOT
BRANCH  15  16
ATOM     16  C   UNL     1       2.857   6.022  18.911  0.00  0.00    +0.000 C 
BRANCH  16  17
ATOM     17  C   UNL     1       3.953   5.467  19.846  0.00  0.00    +0.000 C 
BRANCH  17  18
ATOM     18  C   UNL     1       5.244   5.021  19.115  0.00  0.00    +0.000 C 
BRANCH  18  19
ATOM     19  N   UNL     1       5.793   6.021  18.159  0.00  0.00    +0.000 NA
ATOM     20  C   UNL     1       7.148   5.711  17.645  0.00  0.00    +0.000 C 
ATOM     21  C   UNL     1       7.146   4.470  16.738  0.00  0.00    +0.000 C 
ATOM     22  N   UNL     1       6.203   4.695  15.650  0.00  0.00    +0.000 N 
ATOM     23  C   UNL     1       4.845   5.061  16.041  0.00  0.00    +0.000 C 
ATOM     24  C   UNL     1       4.877   6.261  17.008  0.00  0.00    +0.000 C 
BRANCH  22  25
ATOM     25  C   UNL     1       6.600   4.544  14.275  0.00  0.00    +0.000 A 
ATOM     26  C   UNL     1       5.961   3.588  13.452  0.00  0.00    +0.000 A 
ATOM     27  C   UNL     1       6.308   3.448  12.107  0.00  0.00    +0.000 A 
ATOM     28  C   UNL     1       7.308   4.246  11.556  0.00  0.00    +0.000 A 
ATOM     29  C   UNL     1       7.958   5.193  12.350  0.00  0.00    +0.000 A 
ATOM     30  C   UNL     1       7.605   5.351  13.695  0.00  0.00    +0.000 A 
ENDBRANCH  22  25
ENDBRANCH  18  19
ENDBRANCH  17  18
ENDBRANCH  16  17
ENDBRANCH  15  16
TORSDOF 5
ENDMDL
MODEL 4
REMARK VINA RESULT:      -8.0      0.915      1.486
REMARK  Name = 
REMARK  5 active torsions:
REMARK  status: ('A' for Active; 'I' for Inactive)
REMARK    1  A    between atoms: N_15  and  C_16
REMARK    2  A    between atoms: C_16  and  C_17
REMARK    3  A    between atoms: C_17  and  C_18
REMARK    4  A    between atoms: C_18  and  N_19
REMARK    5  A    between atoms: N_22  and  C_23
REMARK                            x       y       z     vdW  Elec       q    Type
REMARK                         _______ _______ _______ _____ _____    ______ ____
ROOT
ATOM      1  O   UNL     1       2.943   7.091  17.544  0.00  0.00    +0.000 OA
ATOM      2  C   UNL     1       2.424   7.343  18.621  0.00  0.00    +0.000 A 
ATOM      3  C   UNL     1       1.938   8.643  18.867  0.00  0.00    +0.000 A 
ATOM      4  C   UNL     1       2.063   9.676  17.922  0.00  0.00    +0.000 A 
ATOM      5  N   UNL     1       1.571  10.912  18.187  0.00  0.00    +0.000 NA
ATOM      6  C   UNL     1       0.933  11.201  19.350  0.00  0.00    +0.000 A 
ATOM      7  C   UNL     1       0.428  12.490  19.554  0.00  0.00    +0.000 A 
ATOM      8  C   UNL     1      -0.250  12.799  20.734  0.00  0.00    +0.000 A 
ATOM      9  C   UNL     1      -0.423  11.823  21.718  0.00  0.00    +0.000 A 
ATOM     10  C   UNL     1       0.089  10.530  21.531  0.00  0.00    +0.000 A 
ATOM     11  C   UNL     1       0.775  10.201  20.343  0.00  0.00    +0.000 A 
ATOM     12  C   UNL     1       1.302   8.909  20.093  0.00  0.00    +0.000 A 
ATOM     13  N   UNL     1       1.196   7.908  21.009  0.00  0.00    +0.000 NA
ATOM     14  C   UNL     1       1.686   6.660  20.770  0.00  0.00    +0.000 A 
ATOM     15  N   UNL     1       2.298   6.354  19.583  0.00  0.00    +0.000 N 
ENDROOT
BRANCH  15  16
ATOM     16  C   UNL     1       2.781   4.970  19.337  0.00  0.00    +0.000 C 
BRANCH  16  17
ATOM     17  C   UNL     1       4.141   4.691  20.011  0.00  0.00    +0.000 C 
BRANCH  17  18
ATOM     18  C   UNL     1       5.358   5.278  19.251  0.00  0.00    +0.000 C 
BRANCH  18  19
ATOM     19  N   UNL     1       6.232   4.264  18.601  0.00  0.00    +0.000 NA
ATOM     20  C   UNL     1       5.538   3.365  17.649  0.00  0.00    +0.000 C 
ATOM     21  C   UNL     1       5.054   4.119  16.400  0.00  0.00    +0.000 C 
ATOM     22  N   UNL     1       6.202   4.768  15.779  0.00  0.00    +0.000 N 
ATOM     23  C   UNL     1       6.994   5.639  16.643  0.00  0.00    +0.000 C 
ATOM     24  C   UNL     1       7.405   4.884  17.922  0.00  0.00    +0.000 C 
BRANCH  22  25
ATOM     25  C   UNL     1       6.513   4.565  14.388  0.00  0.00    +0.000 A 
ATOM     26  C   UNL     1       5.809   3.594  13.638  0.00  0.00    +0.000 A 
ATOM     27  C   UNL     1       6.072   3.404  12.280  0.00  0.00    +0.000 A 
ATOM     28  C   UNL     1       7.051   4.165  11.644  0.00  0.00    +0.000 A 
ATOM     29  C   UNL     1       7.763   5.125  12.365  0.00  0.00    +0.000 A 
ATOM     30  C   UNL     1       7.494   5.334  13.723  0.00  0.00    +0.000 A 
ENDBRANCH  22  25
ENDBRANCH  18  19
ENDBRANCH  17  18
ENDBRANCH  16  17
ENDBRANCH  15  16
TORSDOF 5
ENDMDL
MODEL 5
REMARK VINA RESULT:      -8.0      2.798      9.463
REMARK  Name = 
REMARK  5 active torsions:
REMARK  status: ('A' for Active; 'I' for Inactive)
REMARK    1  A    between atoms: N_15  and  C_16
REMARK    2  A    between atoms: C_16  and  C_17
REMARK    3  A    between atoms: C_17  and  C_18
REMARK    4  A    between atoms: C_18  and  N_19
REMARK    5  A    between atoms: N_22  and  C_23
REMARK                            x       y       z     vdW  Elec       q    Type
REMARK                         _______ _______ _______ _____ _____    ______ ____
ROOT
ATOM      1  O   UNL     1       2.146   5.000  21.036  0.00  0.00    +0.000 OA
ATOM      2  C   UNL     1       2.508   5.725  20.122  0.00  0.00    +0.000 A 
ATOM      3  C   UNL     1       3.341   5.204  19.113  0.00  0.00    +0.000 A 
ATOM      4  C   UNL     1       3.804   3.877  19.141  0.00  0.00    +0.000 A 
ATOM      5  N   UNL     1       4.593   3.404  18.144  0.00  0.00    +0.000 NA
ATOM      6  C   UNL     1       4.956   4.171  17.085  0.00  0.00    +0.000 A 
ATOM      7  C   UNL     1       5.755   3.618  16.078  0.00  0.00    +0.000 A 
ATOM      8  C   UNL     1       6.119   4.385  14.970  0.00  0.00    +0.000 A 
ATOM      9  C   UNL     1       5.691   5.710  14.866  0.00  0.00    +0.000 A 
ATOM     10  C   UNL     1       4.901   6.281  15.874  0.00  0.00    +0.000 A 
ATOM     11  C   UNL     1       4.522   5.518  16.999  0.00  0.00    +0.000 A 
ATOM     12  C   UNL     1       3.714   6.037  18.042  0.00  0.00    +0.000 A 
ATOM     13  N   UNL     1       3.274   7.324  18.028  0.00  0.00    +0.000 NA
ATOM     14  C   UNL     1       2.484   7.826  19.018  0.00  0.00    +0.000 A 
ATOM     15  N   UNL     1       2.086   7.045  20.070  0.00  0.00    +0.000 N 
ENDROOT
BRANCH  15  16
ATOM     16  C   UNL     1       1.187   7.610  21.111  0.00  0.00    +0.000 C 
BRANCH  16  17
ATOM     17  C   UNL     1       0.336   8.784  20.581  0.00  0.00    +0.000 C 
BRANCH  17  18
ATOM     18  C   UNL     1       0.719  10.163  21.173  0.00  0.00    +0.000 C 
BRANCH  18  19
ATOM     19  N   UNL     1      -0.072  11.308  20.643  0.00  0.00    +0.000 NA
ATOM     20  C   UNL     1       0.244  12.619  21.259  0.00  0.00    +0.000 C 
ATOM     21  C   UNL     1       1.658  13.097  20.892  0.00  0.00    +0.000 C 
ATOM     22  N   UNL     1       1.765  13.152  19.439  0.00  0.00    +0.000 N 
ATOM     23  C   UNL     1       1.423  11.927  18.722  0.00  0.00    +0.000 C 
ATOM     24  C   UNL     1       0.033  11.425  19.161  0.00  0.00    +0.000 C 
BRANCH  22  25
ATOM     25  C   UNL     1       2.199  14.348  18.767  0.00  0.00    +0.000 A 
ATOM     26  C   UNL     1       1.422  15.528  18.844  0.00  0.00    +0.000 A 
ATOM     27  C   UNL     1       1.841  16.708  18.227  0.00  0.00    +0.000 A 
ATOM     28  C   UNL     1       3.034  16.735  17.508  0.00  0.00    +0.000 A 
ATOM     29  C   UNL     1       3.815  15.582  17.412  0.00  0.00    +0.000 A 
ATOM     30  C   UNL     1       3.410  14.399  18.042  0.00  0.00    +0.000 A 
ENDBRANCH  22  25
ENDBRANCH  18  19
ENDBRANCH  17  18
ENDBRANCH  16  17
ENDBRANCH  15  16
TORSDOF 5
ENDMDL
MODEL 6
REMARK VINA RESULT:      -8.0      6.697      9.635
REMARK  Name = 
REMARK  5 active torsions:
REMARK  status: ('A' for Active; 'I' for Inactive)
REMARK    1  A    between atoms: N_15  and  C_16
REMARK    2  A    between atoms: C_16  and  C_17
REMARK    3  A    between atoms: C_17  and  C_18
REMARK    4  A    between atoms: C_18  and  N_19
REMARK    5  A    between atoms: N_22  and  C_23
REMARK                            x       y       z     vdW  Elec       q    Type
REMARK                         _______ _______ _______ _____ _____    ______ ____
ROOT
ATOM      1  O   UNL     1       8.041   5.594  19.210  0.00  0.00    +0.000 OA
ATOM      2  C   UNL     1       7.023   5.822  18.574  0.00  0.00    +0.000 A 
ATOM      3  C   UNL     1       5.898   4.993  18.750  0.00  0.00    +0.000 A 
ATOM      4  C   UNL     1       5.917   3.882  19.611  0.00  0.00    +0.000 A 
ATOM      5  N   UNL     1       4.810   3.114  19.768  0.00  0.00    +0.000 NA
ATOM      6  C   UNL     1       3.648   3.384  19.122  0.00  0.00    +0.000 A 
ATOM      7  C   UNL     1       2.534   2.566  19.342  0.00  0.00    +0.000 A 
ATOM      8  C   UNL     1       1.324   2.841  18.703  0.00  0.00    +0.000 A 
ATOM      9  C   UNL     1       1.222   3.933  17.838  0.00  0.00    +0.000 A 
ATOM     10  C   UNL     1       2.333   4.754  17.599  0.00  0.00    +0.000 A 
ATOM     11  C   UNL     1       3.564   4.490  18.238  0.00  0.00    +0.000 A 
ATOM     12  C   UNL     1       4.717   5.292  18.046  0.00  0.00    +0.000 A 
ATOM     13  N   UNL     1       4.707   6.360  17.203  0.00  0.00    +0.000 NA
ATOM     14  C   UNL     1       5.806   7.145  17.024  0.00  0.00    +0.000 A 
ATOM     15  N   UNL     1       6.971   6.898  17.702  0.00  0.00    +0.000 N 
ENDROOT
BRANCH  15  16
ATOM     16  C   UNL     1       8.138   7.801  17.518  0.00  0.00    +0.000 C 
BRANCH  16  17
ATOM     17  C   UNL     1       7.838   9.249  17.960  0.00  0.00    +0.000 C 
BRANCH  17  18
ATOM     18  C   UNL     1       8.966   9.903  18.798  0.00  0.00    +0.000 C 
BRANCH  18  19
ATOM     19  N   UNL     1       9.716  10.979  18.094  0.00  0.00    +0.000 NA
ATOM     20  C   UNL     1       9.027  12.290  18.049  0.00  0.00    +0.000 C 
ATOM     21  C   UNL     1       8.919  12.928  19.444  0.00  0.00    +0.000 C 
ATOM     22  N   UNL     1      10.261  13.051  20.000  0.00  0.00    +0.000 N 
ATOM     23  C   UNL     1      11.055  11.826  20.043  0.00  0.00    +0.000 C 
ATOM     24  C   UNL     1      11.087  11.166  18.650  0.00  0.00    +0.000 C 
BRANCH  22  25
ATOM     25  C   UNL     1      10.754  14.312  20.490  0.00  0.00    +0.000 A 
ATOM     26  C   UNL     1      10.186  14.895  21.647  0.00  0.00    +0.000 A 
ATOM     27  C   UNL     1      10.671  16.100  22.157  0.00  0.00    +0.000 A 
ATOM     28  C   UNL     1      11.720  16.759  21.519  0.00  0.00    +0.000 A 
ATOM     29  C   UNL     1      12.292  16.206  20.371  0.00  0.00    +0.000 A 
ATOM     30  C   UNL     1      11.823  14.989  19.862  0.00  0.00    +0.000 A 
ENDBRANCH  22  25
ENDBRANCH  18  19
ENDBRANCH  17  18
ENDBRANCH  16  17
ENDBRANCH  15  16
TORSDOF 5
ENDMDL
MODEL 7
REMARK VINA RESULT:      -8.0      2.893     10.053
REMARK  Name = 
REMARK  5 active torsions:
REMARK  status: ('A' for Active; 'I' for Inactive)
REMARK    1  A    between atoms: N_15  and  C_16
REMARK    2  A    between atoms: C_16  and  C_17
REMARK    3  A    between atoms: C_17  and  C_18
REMARK    4  A    between atoms: C_18  and  N_19
REMARK    5  A    between atoms: N_22  and  C_23
REMARK                            x       y       z     vdW  Elec       q    Type
REMARK                         _______ _______ _______ _____ _____    ______ ____
ROOT
ATOM      1  O   UNL     1       1.858   5.408  20.928  0.00  0.00    +0.000 OA
ATOM      2  C   UNL     1       2.328   6.054  20.003  0.00  0.00    +0.000 A 
ATOM      3  C   UNL     1       3.160   5.414  19.065  0.00  0.00    +0.000 A 
ATOM      4  C   UNL     1       3.500   4.054  19.176  0.00  0.00    +0.000 A 
ATOM      5  N   UNL     1       4.292   3.465  18.245  0.00  0.00    +0.000 NA
ATOM      6  C   UNL     1       4.774   4.146  17.174  0.00  0.00    +0.000 A 
ATOM      7  C   UNL     1       5.569   3.476  16.236  0.00  0.00    +0.000 A 
ATOM      8  C   UNL     1       6.054   4.154  15.117  0.00  0.00    +0.000 A 
ATOM      9  C   UNL     1       5.753   5.504  14.931  0.00  0.00    +0.000 A 
ATOM     10  C   UNL     1       4.968   6.191  15.869  0.00  0.00    +0.000 A 
ATOM     11  C   UNL     1       4.467   5.520  17.005  0.00  0.00    +0.000 A 
ATOM     12  C   UNL     1       3.658   6.157  17.979  0.00  0.00    +0.000 A 
ATOM     13  N   UNL     1       3.336   7.476  17.884  0.00  0.00    +0.000 NA
ATOM     14  C   UNL     1       2.547   8.093  18.807  0.00  0.00    +0.000 A 
ATOM     15  N   UNL     1       2.029   7.401  19.871  0.00  0.00    +0.000 N 
ENDROOT
BRANCH  15  16
ATOM     16  C   UNL     1       1.133   8.093  20.835  0.00  0.00    +0.000 C 
BRANCH  16  17
ATOM     17  C   UNL     1       0.511   9.376  20.246  0.00  0.00    +0.000 C 
BRANCH  17  18
ATOM     18  C   UNL     1       0.742  10.645  21.104  0.00  0.00    +0.000 C 
BRANCH  18  19
ATOM     19  N   UNL     1      -0.315  11.686  20.970  0.00  0.00    +0.000 NA
ATOM     20  C   UNL     1      -0.001  12.978  21.625  0.00  0.00    +0.000 C 
ATOM     21  C   UNL     1       1.160  13.705  20.928  0.00  0.00    +0.000 C 
ATOM     22  N   UNL     1       0.813  13.890  19.525  0.00  0.00    +0.000 N 
ATOM     23  C   UNL     1       0.432  12.687  18.791  0.00  0.00    +0.000 C 
ATOM     24  C   UNL     1      -0.681  11.935  19.547  0.00  0.00    +0.000 C 
BRANCH  22  25
ATOM     25  C   UNL     1       0.863  15.190  18.908  0.00  0.00    +0.000 A 
ATOM     26  C   UNL     1      -0.331  15.911  18.673  0.00  0.00    +0.000 A 
ATOM     27  C   UNL     1      -0.303  17.187  18.107  0.00  0.00    +0.000 A 
ATOM     28  C   UNL     1       0.913  17.766  17.749  0.00  0.00    +0.000 A 
ATOM     29  C   UNL     1       2.105  17.071  17.965  0.00  0.00    +0.000 A 
ATOM     30  C   UNL     1       2.086  15.798  18.547  0.00  0.00    +0.000 A 
ENDBRANCH  22  25
ENDBRANCH  18  19
ENDBRANCH  17  18
ENDBRANCH  16  17
ENDBRANCH  15  16
TORSDOF 5
ENDMDL
MODEL 8
REMARK VINA RESULT:      -8.0      3.087     10.773
REMARK  Name = 
REMARK  5 active torsions:
REMARK  status: ('A' for Active; 'I' for Inactive)
REMARK    1  A    between atoms: N_15  and  C_16
REMARK    2  A    between atoms: C_16  and  C_17
REMARK    3  A    between atoms: C_17  and  C_18
REMARK    4  A    between atoms: C_18  and  N_19
REMARK    5  A    between atoms: N_22  and  C_23
REMARK                            x       y       z     vdW  Elec       q    Type
REMARK                         _______ _______ _______ _____ _____    ______ ____
ROOT
ATOM      1  O   UNL     1       1.642   6.610  20.744  0.00  0.00    +0.000 OA
ATOM      2  C   UNL     1       2.164   7.035  19.724  0.00  0.00    +0.000 A 
ATOM      3  C   UNL     1       3.045   6.208  19.001  0.00  0.00    +0.000 A 
ATOM      4  C   UNL     1       3.376   4.912  19.434  0.00  0.00    +0.000 A 
ATOM      5  N   UNL     1       4.216   4.136  18.705  0.00  0.00    +0.000 NA
ATOM      6  C   UNL     1       4.758   4.562  17.536  0.00  0.00    +0.000 A 
ATOM      7  C   UNL     1       5.602   3.707  16.818  0.00  0.00    +0.000 A 
ATOM      8  C   UNL     1       6.151   4.119  15.603  0.00  0.00    +0.000 A 
ATOM      9  C   UNL     1       5.863   5.390  15.101  0.00  0.00    +0.000 A 
ATOM     10  C   UNL     1       5.029   6.262  15.815  0.00  0.00    +0.000 A 
ATOM     11  C   UNL     1       4.465   5.860  17.045  0.00  0.00    +0.000 A 
ATOM     12  C   UNL     1       3.605   6.692  17.804  0.00  0.00    +0.000 A 
ATOM     13  N   UNL     1       3.292   7.952  17.397  0.00  0.00    +0.000 NA
ATOM     14  C   UNL     1       2.455   8.753  18.113  0.00  0.00    +0.000 A 
ATOM     15  N   UNL     1       1.877   8.314  19.275  0.00  0.00    +0.000 N 
ENDROOT
BRANCH  15  16
ATOM     16  C   UNL     1       0.931   9.197  20.008  0.00  0.00    +0.000 C 
BRANCH  16  17
ATOM     17  C   UNL     1       0.783  10.583  19.345  0.00  0.00    +0.000 C 
BRANCH  17  18
ATOM     18  C   UNL     1       0.015  11.618  20.205  0.00  0.00    +0.000 C 
BRANCH  18  19
ATOM     19  N   UNL     1      -0.665  12.689  19.426  0.00  0.00    +0.000 NA
ATOM     20  C   UNL     1      -1.394  12.215  18.225  0.00  0.00    +0.000 C 
ATOM     21  C   UNL     1      -2.616  11.359  18.599  0.00  0.00    +0.000 C 
ATOM     22  N   UNL     1      -3.480  12.144  19.471  0.00  0.00    +0.000 N 
ATOM     23  C   UNL     1      -2.851  12.708  20.662  0.00  0.00    +0.000 C 
ATOM     24  C   UNL     1      -1.588  13.500  20.270  0.00  0.00    +0.000 C 
BRANCH  22  25
ATOM     25  C   UNL     1      -4.876  12.329  19.169  0.00  0.00    +0.000 A 
ATOM     26  C   UNL     1      -5.574  13.442  19.693  0.00  0.00    +0.000 A 
ATOM     27  C   UNL     1      -6.918  13.658  19.386  0.00  0.00    +0.000 A 
ATOM     28  C   UNL     1      -7.601  12.763  18.565  0.00  0.00    +0.000 A 
ATOM     29  C   UNL     1      -6.935  11.653  18.041  0.00  0.00    +0.000 A 
ATOM     30  C   UNL     1      -5.582  11.438  18.330  0.00  0.00    +0.000 A 
ENDBRANCH  22  25
ENDBRANCH  18  19
ENDBRANCH  17  18
ENDBRANCH  16  17
ENDBRANCH  15  16
TORSDOF 5
ENDMDL
MODEL 9
REMARK VINA RESULT:      -7.9      1.841      9.283
REMARK  Name = 
REMARK  5 active torsions:
REMARK  status: ('A' for Active; 'I' for Inactive)
REMARK    1  A    between atoms: N_15  and  C_16
REMARK    2  A    between atoms: C_16  and  C_17
REMARK    3  A    between atoms: C_17  and  C_18
REMARK    4  A    between atoms: C_18  and  N_19
REMARK    5  A    between atoms: N_22  and  C_23
REMARK                            x       y       z     vdW  Elec       q    Type
REMARK                         _______ _______ _______ _____ _____    ______ ____
ROOT
ATOM      1  O   UNL     1       5.707   5.703  19.530  0.00  0.00    +0.000 OA
ATOM      2  C   UNL     1       5.134   5.158  18.598  0.00  0.00    +0.000 A 
ATOM      3  C   UNL     1       5.750   5.123  17.332  0.00  0.00    +0.000 A 
ATOM      4  C   UNL     1       6.996   5.729  17.093  0.00  0.00    +0.000 A 
ATOM      5  N   UNL     1       7.568   5.663  15.865  0.00  0.00    +0.000 NA
ATOM      6  C   UNL     1       6.982   5.008  14.831  0.00  0.00    +0.000 A 
ATOM      7  C   UNL     1       7.633   4.957  13.593  0.00  0.00    +0.000 A 
ATOM      8  C   UNL     1       7.055   4.269  12.524  0.00  0.00    +0.000 A 
ATOM      9  C   UNL     1       5.823   3.633  12.686  0.00  0.00    +0.000 A 
ATOM     10  C   UNL     1       5.154   3.686  13.917  0.00  0.00    +0.000 A 
ATOM     11  C   UNL     1       5.725   4.376  15.008  0.00  0.00    +0.000 A 
ATOM     12  C   UNL     1       5.102   4.453  16.279  0.00  0.00    +0.000 A 
ATOM     13  N   UNL     1       3.890   3.879  16.513  0.00  0.00    +0.000 NA
ATOM     14  C   UNL     1       3.292   3.935  17.736  0.00  0.00    +0.000 A 
ATOM     15  N   UNL     1       3.897   4.564  18.792  0.00  0.00    +0.000 N 
ENDROOT
BRANCH  15  16
ATOM     16  C   UNL     1       3.238   4.567  20.125  0.00  0.00    +0.000 C 
BRANCH  16  17
ATOM     17  C   UNL     1       1.698   4.606  20.021  0.00  0.00    +0.000 C 
BRANCH  17  18
ATOM     18  C   UNL     1       1.084   6.015  20.217  0.00  0.00    +0.000 C 
BRANCH  18  19
ATOM     19  N   UNL     1       2.080   7.117  20.313  0.00  0.00    +0.000 NA
ATOM     20  C   UNL     1       2.424   7.758  19.021  0.00  0.00    +0.000 C 
ATOM     21  C   UNL     1       1.237   8.540  18.437  0.00  0.00    +0.000 C 
ATOM     22  N   UNL     1       0.803   9.524  19.420  0.00  0.00    +0.000 N 
ATOM     23  C   UNL     1       0.488   9.010  20.750  0.00  0.00    +0.000 C 
ATOM     24  C   UNL     1       1.664   8.168  21.284  0.00  0.00    +0.000 C 
BRANCH  22  25
ATOM     25  C   UNL     1       0.681  10.917  19.079  0.00  0.00    +0.000 A 
ATOM     26  C   UNL     1      -0.576  11.561  19.160  0.00  0.00    +0.000 A 
ATOM     27  C   UNL     1      -0.709  12.919  18.865  0.00  0.00    +0.000 A 
ATOM     28  C   UNL     1       0.401  13.662  18.469  0.00  0.00    +0.000 A 
ATOM     29  C   UNL     1       1.651  13.047  18.375  0.00  0.00    +0.000 A 
ATOM     30  C   UNL     1       1.797  11.689  18.684  0.00  0.00    +0.000 A 
ENDBRANCH  22  25
ENDBRANCH  18  19
ENDBRANCH  17  18
ENDBRANCH  16  17
ENDBRANCH  15  16
TORSDOF 5
ENDMDL
