MODEL 1
REMARK VINA RESULT:      -6.9      0.000      0.000
REMARK  Name = 
REMARK  7 active torsions:
REMARK  status: ('A' for Active; 'I' for Inactive)
REMARK    1  A    between atoms: C_1  and  C_2
REMARK    2  A    between atoms: C_4  and  C_5
REMARK    3  A    between atoms: C_10  and  S_11
REMARK    4  A    between atoms: S_11  and  C_12
REMARK    5  A    between atoms: C_12  and  C_13
REMARK    6  A    between atoms: C_13  and  C_14
REMARK    7  A    between atoms: C_14  and  O_16
REMARK                            x       y       z     vdW  Elec       q    Type
REMARK                         _______ _______ _______ _____ _____    ______ ____
ROOT
ATOM      1  C   UNL     1      -0.391  12.265  18.633  0.00  0.00    +0.000 C 
ATOM      2  C   UNL     1       0.113  10.999  19.266  0.00  0.00    +0.000 A 
ATOM      3  C   UNL     1      -0.279  10.656  20.564  0.00  0.00    +0.000 A 
ATOM      4  C   UNL     1       0.168   9.484  21.199  0.00  0.00    +0.000 A 
ATOM      5  C   UNL     1      -0.280   9.161  22.595  0.00  0.00    +0.000 C 
ATOM      6  C   UNL     1       1.041   8.666  20.458  0.00  0.00    +0.000 A 
ATOM      7  N   UNL     1       1.639   7.471  20.805  0.00  0.00    +0.000 N 
ATOM      8  C   UNL     1       2.424   7.014  19.787  0.00  0.00    +0.000 A 
ATOM      9  N   UNL     1       3.142   5.881  19.800  0.00  0.00    +0.000 NA
ATOM     10  C   UNL     1       3.806   5.713  18.637  0.00  0.00    +0.000 A 
ATOM     11  N   UNL     1       3.772   6.561  17.574  0.00  0.00    +0.000 NA
ATOM     12  N   UNL     1       3.039   7.691  17.604  0.00  0.00    +0.000 NA
ATOM     13  C   UNL     1       2.339   7.920  18.747  0.00  0.00    +0.000 A 
ATOM     14  C   UNL     1       1.463   8.970  19.156  0.00  0.00    +0.000 A 
ATOM     15  C   UNL     1       0.986  10.155  18.556  0.00  0.00    +0.000 A 
ATOM     16  H   UNL     1       1.523   6.992  21.685  0.00  0.00    +0.000 HD
ENDROOT
BRANCH  10  17
ATOM     17  S   UNL     1       4.700   4.173  18.505  0.00  0.00    +0.000 S 
BRANCH  17  18
ATOM     18  C   UNL     1       6.272   4.715  17.752  0.00  0.00    +0.000 C 
BRANCH  18  19
ATOM     19  C   UNL     1       6.326   4.179  16.320  0.00  0.00    +0.000 C 
BRANCH  19  20
ATOM     20  C   UNL     1       6.619   5.278  15.335  0.00  0.00    +0.000 C 
ATOM     21  O   UNL     1       7.594   5.323  14.601  0.00  0.00    +0.000 OA
BRANCH  20  22
ATOM     22  O   UNL     1       5.668   6.244  15.331  0.00  0.00    +0.000 OA
ATOM     23  H   UNL     1       4.773   5.925  15.552  0.00  0.00    +0.000 HD
ENDBRANCH  20  22
ENDBRANCH  19  20
ENDBRANCH  18  19
ENDBRANCH  17  18
ENDBRANCH  10  17
TORSDOF 5
ENDMDL
MODEL 2
REMARK VINA RESULT:      -6.9      3.172      4.644
REMARK  Name = 
REMARK  7 active torsions:
REMARK  status: ('A' for Active; 'I' for Inactive)
REMARK    1  A    between atoms: C_1  and  C_2
REMARK    2  A    between atoms: C_4  and  C_5
REMARK    3  A    between atoms: C_10  and  S_11
REMARK    4  A    between atoms: S_11  and  C_12
REMARK    5  A    between atoms: C_12  and  C_13
REMARK    6  A    between atoms: C_13  and  C_14
REMARK    7  A    between atoms: C_14  and  O_16
REMARK                            x       y       z     vdW  Elec       q    Type
REMARK                         _______ _______ _______ _____ _____    ______ ____
ROOT
ATOM      1  C   UNL     1       1.079   7.856  21.183  0.00  0.00    +0.000 C 
ATOM      2  C   UNL     1       1.737   6.738  20.424  0.00  0.00    +0.000 A 
ATOM      3  C   UNL     1       1.505   5.409  20.788  0.00  0.00    +0.000 A 
ATOM      4  C   UNL     1       2.100   4.329  20.110  0.00  0.00    +0.000 A 
ATOM      5  C   UNL     1       1.822   2.919  20.541  0.00  0.00    +0.000 C 
ATOM      6  C   UNL     1       2.950   4.658  19.037  0.00  0.00    +0.000 A 
ATOM      7  N   UNL     1       3.668   3.832  18.194  0.00  0.00    +0.000 N 
ATOM      8  C   UNL     1       4.376   4.568  17.291  0.00  0.00    +0.000 A 
ATOM      9  N   UNL     1       5.173   4.074  16.331  0.00  0.00    +0.000 NA
ATOM     10  C   UNL     1       5.725   5.065  15.600  0.00  0.00    +0.000 A 
ATOM     11  N   UNL     1       5.521   6.397  15.786  0.00  0.00    +0.000 NA
ATOM     12  N   UNL     1       4.713   6.850  16.764  0.00  0.00    +0.000 NA
ATOM     13  C   UNL     1       4.118   5.903  17.536  0.00  0.00    +0.000 A 
ATOM     14  C   UNL     1       3.214   5.976  18.639  0.00  0.00    +0.000 A 
ATOM     15  C   UNL     1       2.592   7.028  19.345  0.00  0.00    +0.000 A 
ATOM     16  H   UNL     1       3.678   2.825  18.232  0.00  0.00    +0.000 HD
ENDROOT
BRANCH  10  17
ATOM     17  S   UNL     1       6.713   4.511  14.220  0.00  0.00    +0.000 S 
BRANCH  17  18
ATOM     18  C   UNL     1       5.500   3.546  13.254  0.00  0.00    +0.000 C 
BRANCH  18  19
ATOM     19  C   UNL     1       5.968   3.511  11.797  0.00  0.00    +0.000 C 
BRANCH  19  20
ATOM     20  C   UNL     1       6.583   2.183  11.452  0.00  0.00    +0.000 C 
ATOM     21  O   UNL     1       7.734   2.016  11.082  0.00  0.00    +0.000 OA
BRANCH  20  22
ATOM     22  O   UNL     1       5.715   1.151  11.597  0.00  0.00    +0.000 OA
ATOM     23  H   UNL     1       5.122   1.017  10.834  0.00  0.00    +0.000 HD
ENDBRANCH  20  22
ENDBRANCH  19  20
ENDBRANCH  18  19
ENDBRANCH  17  18
ENDBRANCH  10  17
TORSDOF 5
ENDMDL
MODEL 3
REMARK VINA RESULT:      -6.8      1.932      3.176
REMARK  Name = 
REMARK  7 active torsions:
REMARK  status: ('A' for Active; 'I' for Inactive)
REMARK    1  A    between atoms: C_1  and  C_2
REMARK    2  A    between atoms: C_4  and  C_5
REMARK    3  A    between atoms: C_10  and  S_11
REMARK    4  A    between atoms: S_11  and  C_12
REMARK    5  A    between atoms: C_12  and  C_13
REMARK    6  A    between atoms: C_13  and  C_14
REMARK    7  A    between atoms: C_14  and  O_16
REMARK                            x       y       z     vdW  Elec       q    Type
REMARK                         _______ _______ _______ _____ _____    ______ ____
ROOT
ATOM      1  C   UNL     1       0.027   8.610  22.406  0.00  0.00    +0.000 C 
ATOM      2  C   UNL     1       0.798   8.509  21.121  0.00  0.00    +0.000 A 
ATOM      3  C   UNL     1       0.832   9.588  20.233  0.00  0.00    +0.000 A 
ATOM      4  C   UNL     1       1.537   9.539  19.017  0.00  0.00    +0.000 A 
ATOM      5  C   UNL     1       1.541  10.725  18.096  0.00  0.00    +0.000 C 
ATOM      6  C   UNL     1       2.214   8.338  18.735  0.00  0.00    +0.000 A 
ATOM      7  N   UNL     1       2.979   7.992  17.639  0.00  0.00    +0.000 N 
ATOM      8  C   UNL     1       3.446   6.717  17.764  0.00  0.00    +0.000 A 
ATOM      9  N   UNL     1       4.221   6.076  16.875  0.00  0.00    +0.000 NA
ATOM     10  C   UNL     1       4.515   4.827  17.297  0.00  0.00    +0.000 A 
ATOM     11  N   UNL     1       4.095   4.265  18.462  0.00  0.00    +0.000 NA
ATOM     12  N   UNL     1       3.316   4.944  19.326  0.00  0.00    +0.000 NA
ATOM     13  C   UNL     1       2.986   6.212  18.965  0.00  0.00    +0.000 A 
ATOM     14  C   UNL     1       2.206   7.229  19.593  0.00  0.00    +0.000 A 
ATOM     15  C   UNL     1       1.488   7.324  20.805  0.00  0.00    +0.000 A 
ATOM     16  H   UNL     1       3.173   8.587  16.849  0.00  0.00    +0.000 HD
ENDROOT
BRANCH  10  17
ATOM     17  S   UNL     1       5.639   3.930  16.241  0.00  0.00    +0.000 S 
BRANCH  17  18
ATOM     18  C   UNL     1       7.182   4.886  16.437  0.00  0.00    +0.000 C 
BRANCH  18  19
ATOM     19  C   UNL     1       7.771   4.567  17.813  0.00  0.00    +0.000 C 
BRANCH  19  20
ATOM     20  C   UNL     1       7.538   5.694  18.782  0.00  0.00    +0.000 C 
ATOM     21  O   UNL     1       8.028   6.808  18.696  0.00  0.00    +0.000 OA
BRANCH  20  22
ATOM     22  O   UNL     1       6.701   5.350  19.791  0.00  0.00    +0.000 OA
ATOM     23  H   UNL     1       5.865   4.941  19.497  0.00  0.00    +0.000 HD
ENDBRANCH  20  22
ENDBRANCH  19  20
ENDBRANCH  18  19
ENDBRANCH  17  18
ENDBRANCH  10  17
TORSDOF 5
ENDMDL
MODEL 4
REMARK VINA RESULT:      -6.7      1.211      2.551
REMARK  Name = 
REMARK  7 active torsions:
REMARK  status: ('A' for Active; 'I' for Inactive)
REMARK    1  A    between atoms: C_1  and  C_2
REMARK    2  A    between atoms: C_4  and  C_5
REMARK    3  A    between atoms: C_10  and  S_11
REMARK    4  A    between atoms: S_11  and  C_12
REMARK    5  A    between atoms: C_12  and  C_13
REMARK    6  A    between atoms: C_13  and  C_14
REMARK    7  A    between atoms: C_14  and  O_16
REMARK                            x       y       z     vdW  Elec       q    Type
REMARK                         _______ _______ _______ _____ _____    ______ ____
ROOT
ATOM      1  C   UNL     1      -0.445   9.607  23.063  0.00  0.00    +0.000 C 
ATOM      2  C   UNL     1       0.282   9.342  21.775  0.00  0.00    +0.000 A 
ATOM      3  C   UNL     1       0.335  10.325  20.782  0.00  0.00    +0.000 A 
ATOM      4  C   UNL     1       1.001  10.123  19.560  0.00  0.00    +0.000 A 
ATOM      5  C   UNL     1       1.027  11.209  18.524  0.00  0.00    +0.000 C 
ATOM      6  C   UNL     1       1.615   8.869  19.382  0.00  0.00    +0.000 A 
ATOM      7  N   UNL     1       2.331   8.380  18.308  0.00  0.00    +0.000 N 
ATOM      8  C   UNL     1       2.745   7.104  18.548  0.00  0.00    +0.000 A 
ATOM      9  N   UNL     1       3.464   6.343  17.709  0.00  0.00    +0.000 NA
ATOM     10  C   UNL     1       3.716   5.130  18.247  0.00  0.00    +0.000 A 
ATOM     11  N   UNL     1       3.308   4.707  19.473  0.00  0.00    +0.000 NA
ATOM     12  N   UNL     1       2.586   5.503  20.284  0.00  0.00    +0.000 NA
ATOM     13  C   UNL     1       2.301   6.743  19.806  0.00  0.00    +0.000 A 
ATOM     14  C   UNL     1       1.585   7.853  20.348  0.00  0.00    +0.000 A 
ATOM     15  C   UNL     1       0.909   8.101  21.562  0.00  0.00    +0.000 A 
ATOM     16  H   UNL     1       2.526   8.885  17.457  0.00  0.00    +0.000 HD
ENDROOT
BRANCH  10  17
ATOM     17  S   UNL     1       4.768   4.081  17.257  0.00  0.00    +0.000 S 
BRANCH  17  18
ATOM     18  C   UNL     1       5.874   5.297  16.465  0.00  0.00    +0.000 C 
BRANCH  18  19
ATOM     19  C   UNL     1       5.596   5.288  14.960  0.00  0.00    +0.000 C 
BRANCH  19  20
ATOM     20  C   UNL     1       6.764   4.735  14.191  0.00  0.00    +0.000 C 
ATOM     21  O   UNL     1       7.844   5.288  14.059  0.00  0.00    +0.000 OA
BRANCH  20  22
ATOM     22  O   UNL     1       6.502   3.523  13.643  0.00  0.00    +0.000 OA
ATOM     23  H   UNL     1       5.709   3.084  14.004  0.00  0.00    +0.000 HD
ENDBRANCH  20  22
ENDBRANCH  19  20
ENDBRANCH  18  19
ENDBRANCH  17  18
ENDBRANCH  10  17
TORSDOF 5
ENDMDL
MODEL 5
REMARK VINA RESULT:      -6.7      1.599      2.829
REMARK  Name = 
REMARK  7 active torsions:
REMARK  status: ('A' for Active; 'I' for Inactive)
REMARK    1  A    between atoms: C_1  and  C_2
REMARK    2  A    between atoms: C_4  and  C_5
REMARK    3  A    between atoms: C_10  and  S_11
REMARK    4  A    between atoms: S_11  and  C_12
REMARK    5  A    between atoms: C_12  and  C_13
REMARK    6  A    between atoms: C_13  and  C_14
REMARK    7  A    between atoms: C_14  and  O_16
REMARK                            x       y       z     vdW  Elec       q    Type
REMARK                         _______ _______ _______ _____ _____    ______ ____
ROOT
ATOM      1  C   UNL     1      -0.191   9.614  23.134  0.00  0.00    +0.000 C 
ATOM      2  C   UNL     1       0.450   9.382  21.796  0.00  0.00    +0.000 A 
ATOM      3  C   UNL     1       0.406  10.375  20.812  0.00  0.00    +0.000 A 
ATOM      4  C   UNL     1       0.989  10.202  19.544  0.00  0.00    +0.000 A 
ATOM      5  C   UNL     1       0.912  11.298  18.520  0.00  0.00    +0.000 C 
ATOM      6  C   UNL     1       1.624   8.968  19.310  0.00  0.00    +0.000 A 
ATOM      7  N   UNL     1       2.276   8.510  18.183  0.00  0.00    +0.000 N 
ATOM      8  C   UNL     1       2.742   7.244  18.380  0.00  0.00    +0.000 A 
ATOM      9  N   UNL     1       3.421   6.511  17.484  0.00  0.00    +0.000 NA
ATOM     10  C   UNL     1       3.744   5.301  17.990  0.00  0.00    +0.000 A 
ATOM     11  N   UNL     1       3.436   4.856  19.237  0.00  0.00    +0.000 NA
ATOM     12  N   UNL     1       2.750   5.624  20.105  0.00  0.00    +0.000 NA
ATOM     13  C   UNL     1       2.398   6.860  19.662  0.00  0.00    +0.000 A 
ATOM     14  C   UNL     1       1.691   7.943  20.265  0.00  0.00    +0.000 A 
ATOM     15  C   UNL     1       1.095   8.161  21.526  0.00  0.00    +0.000 A 
ATOM     16  H   UNL     1       2.397   9.027  17.326  0.00  0.00    +0.000 HD
ENDROOT
BRANCH  10  17
ATOM     17  S   UNL     1       4.753   4.291  16.918  0.00  0.00    +0.000 S 
BRANCH  17  18
ATOM     18  C   UNL     1       6.156   5.404  16.564  0.00  0.00    +0.000 C 
BRANCH  18  19
ATOM     19  C   UNL     1       6.937   5.618  17.862  0.00  0.00    +0.000 C 
BRANCH  19  20
ATOM     20  C   UNL     1       7.679   6.926  17.846  0.00  0.00    +0.000 C 
ATOM     21  O   UNL     1       7.629   7.752  16.948  0.00  0.00    +0.000 OA
BRANCH  20  22
ATOM     22  O   UNL     1       8.431   7.114  18.958  0.00  0.00    +0.000 OA
ATOM     23  H   UNL     1       9.384   6.947  18.830  0.00  0.00    +0.000 HD
ENDBRANCH  20  22
ENDBRANCH  19  20
ENDBRANCH  18  19
ENDBRANCH  17  18
ENDBRANCH  10  17
TORSDOF 5
ENDMDL
MODEL 6
REMARK VINA RESULT:      -6.6      2.339      2.766
REMARK  Name = 
REMARK  7 active torsions:
REMARK  status: ('A' for Active; 'I' for Inactive)
REMARK    1  A    between atoms: C_1  and  C_2
REMARK    2  A    between atoms: C_4  and  C_5
REMARK    3  A    between atoms: C_10  and  S_11
REMARK    4  A    between atoms: S_11  and  C_12
REMARK    5  A    between atoms: C_12  and  C_13
REMARK    6  A    between atoms: C_13  and  C_14
REMARK    7  A    between atoms: C_14  and  O_16
REMARK                            x       y       z     vdW  Elec       q    Type
REMARK                         _______ _______ _______ _____ _____    ______ ____
ROOT
ATOM      1  C   UNL     1      -0.404  11.901  18.338  0.00  0.00    +0.000 C 
ATOM      2  C   UNL     1       0.148  10.687  19.031  0.00  0.00    +0.000 A 
ATOM      3  C   UNL     1      -0.246  10.382  20.337  0.00  0.00    +0.000 A 
ATOM      4  C   UNL     1       0.246   9.259  21.027  0.00  0.00    +0.000 A 
ATOM      5  C   UNL     1      -0.207   8.975  22.430  0.00  0.00    +0.000 C 
ATOM      6  C   UNL     1       1.165   8.451  20.331  0.00  0.00    +0.000 A 
ATOM      7  N   UNL     1       1.812   7.301  20.736  0.00  0.00    +0.000 N 
ATOM      8  C   UNL     1       2.630   6.838  19.748  0.00  0.00    +0.000 A 
ATOM      9  N   UNL     1       3.399   5.741  19.818  0.00  0.00    +0.000 NA
ATOM     10  C   UNL     1       4.086   5.554  18.671  0.00  0.00    +0.000 A 
ATOM     11  N   UNL     1       4.028   6.355  17.573  0.00  0.00    +0.000 NA
ATOM     12  N   UNL     1       3.244   7.450  17.546  0.00  0.00    +0.000 NA
ATOM     13  C   UNL     1       2.518   7.694  18.669  0.00  0.00    +0.000 A 
ATOM     14  C   UNL     1       1.590   8.720  19.023  0.00  0.00    +0.000 A 
ATOM     15  C   UNL     1       1.068   9.855  18.367  0.00  0.00    +0.000 A 
ATOM     16  H   UNL     1       1.706   6.855  21.634  0.00  0.00    +0.000 HD
ENDROOT
BRANCH  10  17
ATOM     17  S   UNL     1       5.051   4.054  18.616  0.00  0.00    +0.000 S 
BRANCH  17  18
ATOM     18  C   UNL     1       4.011   2.903  19.579  0.00  0.00    +0.000 C 
BRANCH  18  19
ATOM     19  C   UNL     1       3.340   1.934  18.603  0.00  0.00    +0.000 C 
BRANCH  19  20
ATOM     20  C   UNL     1       2.066   2.510  18.049  0.00  0.00    +0.000 C 
ATOM     21  O   UNL     1       1.973   3.141  17.008  0.00  0.00    +0.000 OA
BRANCH  20  22
ATOM     22  O   UNL     1       0.991   2.252  18.835  0.00  0.00    +0.000 OA
ATOM     23  H   UNL     1       0.370   3.000  18.920  0.00  0.00    +0.000 HD
ENDBRANCH  20  22
ENDBRANCH  19  20
ENDBRANCH  18  19
ENDBRANCH  17  18
ENDBRANCH  10  17
TORSDOF 5
ENDMDL
MODEL 7
REMARK VINA RESULT:      -6.6      2.772      3.095
REMARK  Name = 
REMARK  7 active torsions:
REMARK  status: ('A' for Active; 'I' for Inactive)
REMARK    1  A    between atoms: C_1  and  C_2
REMARK    2  A    between atoms: C_4  and  C_5
REMARK    3  A    between atoms: C_10  and  S_11
REMARK    4  A    between atoms: S_11  and  C_12
REMARK    5  A    between atoms: C_12  and  C_13
REMARK    6  A    between atoms: C_13  and  C_14
REMARK    7  A    between atoms: C_14  and  O_16
REMARK                            x       y       z     vdW  Elec       q    Type
REMARK                         _______ _______ _______ _____ _____    ______ ____
ROOT
ATOM      1  C   UNL     1      -0.753  12.621  19.063  0.00  0.00    +0.000 C 
ATOM      2  C   UNL     1      -0.204  11.358  19.663  0.00  0.00    +0.000 A 
ATOM      3  C   UNL     1      -0.493  11.025  20.990  0.00  0.00    +0.000 A 
ATOM      4  C   UNL     1      -0.000   9.856  21.596  0.00  0.00    +0.000 A 
ATOM      5  C   UNL     1      -0.338   9.544  23.026  0.00  0.00    +0.000 C 
ATOM      6  C   UNL     1       0.808   9.029  20.794  0.00  0.00    +0.000 A 
ATOM      7  N   UNL     1       1.428   7.834  21.101  0.00  0.00    +0.000 N 
ATOM      8  C   UNL     1       2.128   7.368  20.028  0.00  0.00    +0.000 A 
ATOM      9  N   UNL     1       2.841   6.231  19.992  0.00  0.00    +0.000 NA
ATOM     10  C   UNL     1       3.410   6.053  18.780  0.00  0.00    +0.000 A 
ATOM     11  N   UNL     1       3.295   6.895  17.718  0.00  0.00    +0.000 NA
ATOM     12  N   UNL     1       2.570   8.027  17.798  0.00  0.00    +0.000 NA
ATOM     13  C   UNL     1       1.963   8.266  18.991  0.00  0.00    +0.000 A 
ATOM     14  C   UNL     1       1.126   9.323  19.461  0.00  0.00    +0.000 A 
ATOM     15  C   UNL     1       0.607  10.506  18.892  0.00  0.00    +0.000 A 
ATOM     16  H   UNL     1       1.381   7.362  21.991  0.00  0.00    +0.000 HD
ENDROOT
BRANCH  10  17
ATOM     17  S   UNL     1       4.286   4.510  18.590  0.00  0.00    +0.000 S 
BRANCH  17  18
ATOM     18  C   UNL     1       3.262   3.647  17.349  0.00  0.00    +0.000 C 
BRANCH  18  19
ATOM     19  C   UNL     1       1.792   3.835  17.728  0.00  0.00    +0.000 C 
BRANCH  19  20
ATOM     20  C   UNL     1       1.439   3.046  18.959  0.00  0.00    +0.000 C 
ATOM     21  O   UNL     1       1.676   1.861  19.126  0.00  0.00    +0.000 OA
BRANCH  20  22
ATOM     22  O   UNL     1       0.817   3.797  19.901  0.00  0.00    +0.000 OA
ATOM     23  H   UNL     1       1.404   4.111  20.614  0.00  0.00    +0.000 HD
ENDBRANCH  20  22
ENDBRANCH  19  20
ENDBRANCH  18  19
ENDBRANCH  17  18
ENDBRANCH  10  17
TORSDOF 5
ENDMDL
MODEL 8
REMARK VINA RESULT:      -6.6      1.237      1.454
REMARK  Name = 
REMARK  7 active torsions:
REMARK  status: ('A' for Active; 'I' for Inactive)
REMARK    1  A    between atoms: C_1  and  C_2
REMARK    2  A    between atoms: C_4  and  C_5
REMARK    3  A    between atoms: C_10  and  S_11
REMARK    4  A    between atoms: S_11  and  C_12
REMARK    5  A    between atoms: C_12  and  C_13
REMARK    6  A    between atoms: C_13  and  C_14
REMARK    7  A    between atoms: C_14  and  O_16
REMARK                            x       y       z     vdW  Elec       q    Type
REMARK                         _______ _______ _______ _____ _____    ______ ____
ROOT
ATOM      1  C   UNL     1      -0.188  12.489  18.920  0.00  0.00    +0.000 C 
ATOM      2  C   UNL     1       0.252  11.173  19.494  0.00  0.00    +0.000 A 
ATOM      3  C   UNL     1      -0.147  10.797  20.780  0.00  0.00    +0.000 A 
ATOM      4  C   UNL     1       0.243   9.577  21.361  0.00  0.00    +0.000 A 
ATOM      5  C   UNL     1      -0.211   9.220  22.747  0.00  0.00    +0.000 C 
ATOM      6  C   UNL     1       1.064   8.745  20.577  0.00  0.00    +0.000 A 
ATOM      7  N   UNL     1       1.600   7.507  20.868  0.00  0.00    +0.000 N 
ATOM      8  C   UNL     1       2.350   7.052  19.824  0.00  0.00    +0.000 A 
ATOM      9  N   UNL     1       3.007   5.882  19.782  0.00  0.00    +0.000 NA
ATOM     10  C   UNL     1       3.651   5.728  18.605  0.00  0.00    +0.000 A 
ATOM     11  N   UNL     1       3.653   6.622  17.580  0.00  0.00    +0.000 NA
ATOM     12  N   UNL     1       2.982   7.786  17.665  0.00  0.00    +0.000 NA
ATOM     13  C   UNL     1       2.305   8.004  18.823  0.00  0.00    +0.000 A 
ATOM     14  C   UNL     1       1.490   9.081  19.285  0.00  0.00    +0.000 A 
ATOM     15  C   UNL     1       1.072  10.315  18.740  0.00  0.00    +0.000 A 
ATOM     16  H   UNL     1       1.466   6.998  21.728  0.00  0.00    +0.000 HD
ENDROOT
BRANCH  10  17
ATOM     17  S   UNL     1       4.460   4.150  18.400  0.00  0.00    +0.000 S 
BRANCH  17  18
ATOM     18  C   UNL     1       6.075   4.644  17.708  0.00  0.00    +0.000 C 
BRANCH  18  19
ATOM     19  C   UNL     1       6.763   5.570  18.713  0.00  0.00    +0.000 C 
BRANCH  19  20
ATOM     20  C   UNL     1       7.595   6.612  18.016  0.00  0.00    +0.000 C 
ATOM     21  O   UNL     1       8.315   7.425  18.574  0.00  0.00    +0.000 OA
BRANCH  20  22
ATOM     22  O   UNL     1       7.473   6.562  16.667  0.00  0.00    +0.000 OA
ATOM     23  H   UNL     1       7.029   7.337  16.276  0.00  0.00    +0.000 HD
ENDBRANCH  20  22
ENDBRANCH  19  20
ENDBRANCH  18  19
ENDBRANCH  17  18
ENDBRANCH  10  17
TORSDOF 5
ENDMDL
MODEL 9
REMARK VINA RESULT:      -6.5      2.967      3.489
REMARK  Name = 
REMARK  7 active torsions:
REMARK  status: ('A' for Active; 'I' for Inactive)
REMARK    1  A    between atoms: C_1  and  C_2
REMARK    2  A    between atoms: C_4  and  C_5
REMARK    3  A    between atoms: C_10  and  S_11
REMARK    4  A    between atoms: S_11  and  C_12
REMARK    5  A    between atoms: C_12  and  C_13
REMARK    6  A    between atoms: C_13  and  C_14
REMARK    7  A    between atoms: C_14  and  O_16
REMARK                            x       y       z     vdW  Elec       q    Type
REMARK                         _______ _______ _______ _____ _____    ______ ____
ROOT
ATOM      1  C   UNL     1      -0.004  12.399  18.606  0.00  0.00    +0.000 C 
ATOM      2  C   UNL     1       0.409  11.092  19.221  0.00  0.00    +0.000 A 
ATOM      3  C   UNL     1      -0.036  10.744  20.500  0.00  0.00    +0.000 A 
ATOM      4  C   UNL     1       0.327   9.534  21.118  0.00  0.00    +0.000 A 
ATOM      5  C   UNL     1      -0.175   9.207  22.495  0.00  0.00    +0.000 C 
ATOM      6  C   UNL     1       1.170   8.683  20.379  0.00  0.00    +0.000 A 
ATOM      7  N   UNL     1       1.690   7.448  20.713  0.00  0.00    +0.000 N 
ATOM      8  C   UNL     1       2.473   6.970  19.704  0.00  0.00    +0.000 A 
ATOM      9  N   UNL     1       3.125   5.796  19.708  0.00  0.00    +0.000 NA
ATOM     10  C   UNL     1       3.808   5.616  18.558  0.00  0.00    +0.000 A 
ATOM     11  N   UNL     1       3.850   6.489  17.516  0.00  0.00    +0.000 NA
ATOM     12  N   UNL     1       3.183   7.658  17.554  0.00  0.00    +0.000 NA
ATOM     13  C   UNL     1       2.467   7.901  18.684  0.00  0.00    +0.000 A 
ATOM     14  C   UNL     1       1.643   8.992  19.096  0.00  0.00    +0.000 A 
ATOM     15  C   UNL     1       1.251  10.215  18.513  0.00  0.00    +0.000 A 
ATOM     16  H   UNL     1       1.524   6.958  21.578  0.00  0.00    +0.000 HD
ENDROOT
BRANCH  10  17
ATOM     17  S   UNL     1       4.615   4.031  18.412  0.00  0.00    +0.000 S 
BRANCH  17  18
ATOM     18  C   UNL     1       3.247   2.877  18.771  0.00  0.00    +0.000 C 
BRANCH  18  19
ATOM     19  C   UNL     1       3.358   2.443  20.234  0.00  0.00    +0.000 C 
BRANCH  19  20
ATOM     20  C   UNL     1       2.106   2.771  21.000  0.00  0.00    +0.000 C 
ATOM     21  O   UNL     1       0.989   2.864  20.515  0.00  0.00    +0.000 OA
BRANCH  20  22
ATOM     22  O   UNL     1       2.336   2.956  22.323  0.00  0.00    +0.000 OA
ATOM     23  H   UNL     1       3.192   2.607  22.633  0.00  0.00    +0.000 HD
ENDBRANCH  20  22
ENDBRANCH  19  20
ENDBRANCH  18  19
ENDBRANCH  17  18
ENDBRANCH  10  17
TORSDOF 5
ENDMDL
