MODEL 1
REMARK VINA RESULT:      -6.6      0.000      0.000
REMARK  Name = 
REMARK  5 active torsions:
REMARK  status: ('A' for Active; 'I' for Inactive)
REMARK    1  A    between atoms: C_1  and  C_2
REMARK    2  A    between atoms: C_5  and  O_6
REMARK    3  A    between atoms: C_7  and  C_8
REMARK    4  A    between atoms: C_8  and  N_9
REMARK    5  A    between atoms: N_9  and  N_10
REMARK                            x       y       z     vdW  Elec       q    Type
REMARK                         _______ _______ _______ _____ _____    ______ ____
ROOT
ATOM      1  C   UNL     1       1.508   2.646  21.390  0.00  0.00    +0.000 C 
ATOM      2  C   UNL     1       2.015   3.698  20.450  0.00  0.00    +0.000 A 
ATOM      3  C   UNL     1       1.828   5.057  20.728  0.00  0.00    +0.000 A 
ATOM      4  C   UNL     1       2.296   6.029  19.844  0.00  0.00    +0.000 A 
ATOM      5  C   UNL     1       2.942   5.644  18.670  0.00  0.00    +0.000 A 
ATOM      6  C   UNL     1       3.133   4.295  18.357  0.00  0.00    +0.000 A 
ATOM      7  C   UNL     1       2.674   3.328  19.269  0.00  0.00    +0.000 A 
ENDROOT
BRANCH   5   8
ATOM      8  O   UNL     1       3.384   6.595  17.791  0.00  0.00    +0.000 OA
ATOM      9  H   UNL     1       3.209   6.290  16.886  0.00  0.00    +0.000 HD
ENDBRANCH   5   8
BRANCH   6  10
ATOM     10  C   UNL     1       3.784   3.870  17.064  0.00  0.00    +0.000 C 
BRANCH  10  11
ATOM     11  N   UNL     1       5.190   3.499  17.243  0.00  0.00    +0.000 N 
ATOM     12  H   UNL     1       5.328   2.525  16.988  0.00  0.00    +0.000 HD
BRANCH  11  13
ATOM     13  N   UNL     1       6.067   4.377  16.533  0.00  0.00    +0.000 N 
ATOM     14  C   UNL     1       6.570   4.249  15.269  0.00  0.00    +0.000 A 
ATOM     15  N   UNL     1       7.376   5.252  15.007  0.00  0.00    +0.000 NA
ATOM     16  N   UNL     1       7.421   6.051  16.128  0.00  0.00    +0.000 NA
ATOM     17  C   UNL     1       6.635   5.509  17.034  0.00  0.00    +0.000 A 
ENDBRANCH  11  13
ENDBRANCH  10  11
ENDBRANCH   6  10
TORSDOF 4
ENDMDL
MODEL 2
REMARK VINA RESULT:      -6.5      1.505      2.714
REMARK  Name = 
REMARK  5 active torsions:
REMARK  status: ('A' for Active; 'I' for Inactive)
REMARK    1  A    between atoms: C_1  and  C_2
REMARK    2  A    between atoms: C_5  and  O_6
REMARK    3  A    between atoms: C_7  and  C_8
REMARK    4  A    between atoms: C_8  and  N_9
REMARK    5  A    between atoms: N_9  and  N_10
REMARK                            x       y       z     vdW  Elec       q    Type
REMARK                         _______ _______ _______ _____ _____    ______ ____
ROOT
ATOM      1  C   UNL     1       2.361   8.478  17.899  0.00  0.00    +0.000 C 
ATOM      2  C   UNL     1       2.593   7.106  18.458  0.00  0.00    +0.000 A 
ATOM      3  C   UNL     1       2.224   6.795  19.771  0.00  0.00    +0.000 A 
ATOM      4  C   UNL     1       2.451   5.519  20.286  0.00  0.00    +0.000 A 
ATOM      5  C   UNL     1       3.062   4.551  19.490  0.00  0.00    +0.000 A 
ATOM      6  C   UNL     1       3.455   4.833  18.179  0.00  0.00    +0.000 A 
ATOM      7  C   UNL     1       3.200   6.118  17.669  0.00  0.00    +0.000 A 
ENDROOT
BRANCH   5   8
ATOM      8  O   UNL     1       3.305   3.304  19.999  0.00  0.00    +0.000 OA
ATOM      9  H   UNL     1       4.129   2.964  19.613  0.00  0.00    +0.000 HD
ENDBRANCH   5   8
BRANCH   6  10
ATOM     10  C   UNL     1       4.164   3.807  17.329  0.00  0.00    +0.000 C 
BRANCH  10  11
ATOM     11  N   UNL     1       5.585   3.693  17.664  0.00  0.00    +0.000 N 
ATOM     12  H   UNL     1       5.883   2.725  17.589  0.00  0.00    +0.000 HD
BRANCH  11  13
ATOM     13  N   UNL     1       6.391   4.572  16.875  0.00  0.00    +0.000 N 
ATOM     14  C   UNL     1       6.935   5.777  17.220  0.00  0.00    +0.000 A 
ATOM     15  N   UNL     1       7.573   6.288  16.191  0.00  0.00    +0.000 NA
ATOM     16  N   UNL     1       7.432   5.410  15.139  0.00  0.00    +0.000 NA
ATOM     17  C   UNL     1       6.718   4.390  15.565  0.00  0.00    +0.000 A 
ENDBRANCH  11  13
ENDBRANCH  10  11
ENDBRANCH   6  10
TORSDOF 4
ENDMDL
MODEL 3
REMARK VINA RESULT:      -6.5      1.743      2.444
REMARK  Name = 
REMARK  5 active torsions:
REMARK  status: ('A' for Active; 'I' for Inactive)
REMARK    1  A    between atoms: C_1  and  C_2
REMARK    2  A    between atoms: C_5  and  O_6
REMARK    3  A    between atoms: C_7  and  C_8
REMARK    4  A    between atoms: C_8  and  N_9
REMARK    5  A    between atoms: N_9  and  N_10
REMARK                            x       y       z     vdW  Elec       q    Type
REMARK                         _______ _______ _______ _____ _____    ______ ____
ROOT
ATOM      1  C   UNL     1       1.419   6.367  20.894  0.00  0.00    +0.000 C 
ATOM      2  C   UNL     1       1.801   5.055  20.275  0.00  0.00    +0.000 A 
ATOM      3  C   UNL     1       0.877   4.007  20.191  0.00  0.00    +0.000 A 
ATOM      4  C   UNL     1       1.243   2.788  19.622  0.00  0.00    +0.000 A 
ATOM      5  C   UNL     1       2.541   2.609  19.145  0.00  0.00    +0.000 A 
ATOM      6  C   UNL     1       3.491   3.631  19.226  0.00  0.00    +0.000 A 
ATOM      7  C   UNL     1       3.099   4.861  19.784  0.00  0.00    +0.000 A 
ENDROOT
BRANCH   5   8
ATOM      8  O   UNL     1       2.909   1.406  18.604  0.00  0.00    +0.000 OA
ATOM      9  H   UNL     1       2.296   0.721  18.918  0.00  0.00    +0.000 HD
ENDBRANCH   5   8
BRANCH   6  10
ATOM     10  C   UNL     1       4.911   3.427  18.761  0.00  0.00    +0.000 C 
BRANCH  10  11
ATOM     11  N   UNL     1       5.029   3.446  17.301  0.00  0.00    +0.000 N 
ATOM     12  H   UNL     1       4.106   3.417  16.878  0.00  0.00    +0.000 HD
BRANCH  11  13
ATOM     13  N   UNL     1       5.803   4.557  16.843  0.00  0.00    +0.000 N 
ATOM     14  C   UNL     1       5.569   5.892  17.011  0.00  0.00    +0.000 A 
ATOM     15  N   UNL     1       6.499   6.588  16.396  0.00  0.00    +0.000 NA
ATOM     16  N   UNL     1       7.354   5.693  15.793  0.00  0.00    +0.000 NA
ATOM     17  C   UNL     1       6.920   4.481  16.067  0.00  0.00    +0.000 A 
ENDBRANCH  11  13
ENDBRANCH  10  11
ENDBRANCH   6  10
TORSDOF 4
ENDMDL
MODEL 4
REMARK VINA RESULT:      -6.4      1.494      2.321
REMARK  Name = 
REMARK  5 active torsions:
REMARK  status: ('A' for Active; 'I' for Inactive)
REMARK    1  A    between atoms: C_1  and  C_2
REMARK    2  A    between atoms: C_5  and  O_6
REMARK    3  A    between atoms: C_7  and  C_8
REMARK    4  A    between atoms: C_8  and  N_9
REMARK    5  A    between atoms: N_9  and  N_10
REMARK                            x       y       z     vdW  Elec       q    Type
REMARK                         _______ _______ _______ _____ _____    ______ ____
ROOT
ATOM      1  C   UNL     1       1.217   6.252  20.831  0.00  0.00    +0.000 C 
ATOM      2  C   UNL     1       2.020   5.066  20.388  0.00  0.00    +0.000 A 
ATOM      3  C   UNL     1       2.164   3.948  21.219  0.00  0.00    +0.000 A 
ATOM      4  C   UNL     1       2.920   2.853  20.802  0.00  0.00    +0.000 A 
ATOM      5  C   UNL     1       3.546   2.877  19.556  0.00  0.00    +0.000 A 
ATOM      6  C   UNL     1       3.432   3.983  18.709  0.00  0.00    +0.000 A 
ATOM      7  C   UNL     1       2.649   5.070  19.136  0.00  0.00    +0.000 A 
ENDROOT
BRANCH   5   8
ATOM      8  O   UNL     1       4.305   1.812  19.153  0.00  0.00    +0.000 OA
ATOM      9  H   UNL     1       4.797   1.471  19.919  0.00  0.00    +0.000 HD
ENDBRANCH   5   8
BRANCH   6  10
ATOM     10  C   UNL     1       4.149   4.038  17.383  0.00  0.00    +0.000 C 
BRANCH  10  11
ATOM     11  N   UNL     1       5.576   3.735  17.508  0.00  0.00    +0.000 N 
ATOM     12  H   UNL     1       5.755   2.778  17.219  0.00  0.00    +0.000 HD
BRANCH  11  13
ATOM     13  N   UNL     1       6.386   4.678  16.799  0.00  0.00    +0.000 N 
ATOM     14  C   UNL     1       6.821   5.908  17.202  0.00  0.00    +0.000 A 
ATOM     15  N   UNL     1       7.506   6.476  16.236  0.00  0.00    +0.000 NA
ATOM     16  N   UNL     1       7.507   5.610  15.165  0.00  0.00    +0.000 NA
ATOM     17  C   UNL     1       6.828   4.540  15.518  0.00  0.00    +0.000 A 
ENDBRANCH  11  13
ENDBRANCH  10  11
ENDBRANCH   6  10
TORSDOF 4
ENDMDL
MODEL 5
REMARK VINA RESULT:      -6.4      3.367      5.237
REMARK  Name = 
REMARK  5 active torsions:
REMARK  status: ('A' for Active; 'I' for Inactive)
REMARK    1  A    between atoms: C_1  and  C_2
REMARK    2  A    between atoms: C_5  and  O_6
REMARK    3  A    between atoms: C_7  and  C_8
REMARK    4  A    between atoms: C_8  and  N_9
REMARK    5  A    between atoms: N_9  and  N_10
REMARK                            x       y       z     vdW  Elec       q    Type
REMARK                         _______ _______ _______ _____ _____    ______ ____
ROOT
ATOM      1  C   UNL     1       2.382   7.933  18.202  0.00  0.00    +0.000 C 
ATOM      2  C   UNL     1       3.057   6.628  17.903  0.00  0.00    +0.000 A 
ATOM      3  C   UNL     1       4.418   6.583  17.580  0.00  0.00    +0.000 A 
ATOM      4  C   UNL     1       5.036   5.366  17.294  0.00  0.00    +0.000 A 
ATOM      5  C   UNL     1       4.289   4.189  17.318  0.00  0.00    +0.000 A 
ATOM      6  C   UNL     1       2.926   4.201  17.624  0.00  0.00    +0.000 A 
ATOM      7  C   UNL     1       2.323   5.434  17.929  0.00  0.00    +0.000 A 
ENDROOT
BRANCH   5   8
ATOM      8  O   UNL     1       4.889   2.995  17.018  0.00  0.00    +0.000 OA
ATOM      9  H   UNL     1       4.420   2.589  16.270  0.00  0.00    +0.000 HD
ENDBRANCH   5   8
BRANCH   6  10
ATOM     10  C   UNL     1       2.100   2.938  17.599  0.00  0.00    +0.000 C 
BRANCH  10  11
ATOM     11  N   UNL     1       2.613   1.919  18.517  0.00  0.00    +0.000 N 
ATOM     12  H   UNL     1       3.586   1.718  18.304  0.00  0.00    +0.000 HD
BRANCH  11  13
ATOM     13  N   UNL     1       2.420   2.287  19.885  0.00  0.00    +0.000 N 
ATOM     14  C   UNL     1       3.351   2.429  20.874  0.00  0.00    +0.000 A 
ATOM     15  N   UNL     1       2.756   2.736  22.005  0.00  0.00    +0.000 NA
ATOM     16  N   UNL     1       1.401   2.780  21.761  0.00  0.00    +0.000 NA
ATOM     17  C   UNL     1       1.217   2.504  20.487  0.00  0.00    +0.000 A 
ENDBRANCH  11  13
ENDBRANCH  10  11
ENDBRANCH   6  10
TORSDOF 4
ENDMDL
MODEL 6
REMARK VINA RESULT:      -6.4      1.465      1.828
REMARK  Name = 
REMARK  5 active torsions:
REMARK  status: ('A' for Active; 'I' for Inactive)
REMARK    1  A    between atoms: C_1  and  C_2
REMARK    2  A    between atoms: C_5  and  O_6
REMARK    3  A    between atoms: C_7  and  C_8
REMARK    4  A    between atoms: C_8  and  N_9
REMARK    5  A    between atoms: N_9  and  N_10
REMARK                            x       y       z     vdW  Elec       q    Type
REMARK                         _______ _______ _______ _____ _____    ______ ____
ROOT
ATOM      1  C   UNL     1       0.723   2.028  18.755  0.00  0.00    +0.000 C 
ATOM      2  C   UNL     1       1.308   3.362  19.113  0.00  0.00    +0.000 A 
ATOM      3  C   UNL     1       0.941   4.009  20.299  0.00  0.00    +0.000 A 
ATOM      4  C   UNL     1       1.484   5.253  20.620  0.00  0.00    +0.000 A 
ATOM      5  C   UNL     1       2.386   5.861  19.749  0.00  0.00    +0.000 A 
ATOM      6  C   UNL     1       2.762   5.247  18.551  0.00  0.00    +0.000 A 
ATOM      7  C   UNL     1       2.222   3.984  18.252  0.00  0.00    +0.000 A 
ENDROOT
BRANCH   5   8
ATOM      8  O   UNL     1       2.904   7.091  20.052  0.00  0.00    +0.000 OA
ATOM      9  H   UNL     1       2.760   7.267  20.997  0.00  0.00    +0.000 HD
ENDBRANCH   5   8
BRANCH   6  10
ATOM     10  C   UNL     1       3.696   5.922  17.577  0.00  0.00    +0.000 C 
BRANCH  10  11
ATOM     11  N   UNL     1       5.030   6.137  18.142  0.00  0.00    +0.000 N 
ATOM     12  H   UNL     1       5.068   5.776  19.091  0.00  0.00    +0.000 HD
BRANCH  11  13
ATOM     13  N   UNL     1       6.056   5.590  17.310  0.00  0.00    +0.000 N 
ATOM     14  C   UNL     1       7.041   4.702  17.636  0.00  0.00    +0.000 A 
ATOM     15  N   UNL     1       7.810   4.487  16.593  0.00  0.00    +0.000 NA
ATOM     16  N   UNL     1       7.333   5.264  15.560  0.00  0.00    +0.000 NA
ATOM     17  C   UNL     1       6.285   5.921  16.009  0.00  0.00    +0.000 A 
ENDBRANCH  11  13
ENDBRANCH  10  11
ENDBRANCH   6  10
TORSDOF 4
ENDMDL
MODEL 7
REMARK VINA RESULT:      -6.4      2.002      2.957
REMARK  Name = 
REMARK  5 active torsions:
REMARK  status: ('A' for Active; 'I' for Inactive)
REMARK    1  A    between atoms: C_1  and  C_2
REMARK    2  A    between atoms: C_5  and  O_6
REMARK    3  A    between atoms: C_7  and  C_8
REMARK    4  A    between atoms: C_8  and  N_9
REMARK    5  A    between atoms: N_9  and  N_10
REMARK                            x       y       z     vdW  Elec       q    Type
REMARK                         _______ _______ _______ _____ _____    ______ ____
ROOT
ATOM      1  C   UNL     1       2.060   8.014  18.056  0.00  0.00    +0.000 C 
ATOM      2  C   UNL     1       2.489   6.583  18.180  0.00  0.00    +0.000 A 
ATOM      3  C   UNL     1       1.622   5.542  17.829  0.00  0.00    +0.000 A 
ATOM      4  C   UNL     1       2.026   4.213  17.956  0.00  0.00    +0.000 A 
ATOM      5  C   UNL     1       3.298   3.921  18.446  0.00  0.00    +0.000 A 
ATOM      6  C   UNL     1       4.183   4.936  18.817  0.00  0.00    +0.000 A 
ATOM      7  C   UNL     1       3.767   6.271  18.664  0.00  0.00    +0.000 A 
ENDROOT
BRANCH   5   8
ATOM      8  O   UNL     1       3.690   2.617  18.590  0.00  0.00    +0.000 OA
ATOM      9  H   UNL     1       3.989   2.480  19.504  0.00  0.00    +0.000 HD
ENDBRANCH   5   8
BRANCH   6  10
ATOM     10  C   UNL     1       5.541   4.627  19.398  0.00  0.00    +0.000 C 
BRANCH  10  11
ATOM     11  N   UNL     1       6.420   3.959  18.436  0.00  0.00    +0.000 N 
ATOM     12  H   UNL     1       5.948   3.156  18.032  0.00  0.00    +0.000 HD
BRANCH  11  13
ATOM     13  N   UNL     1       6.904   4.863  17.439  0.00  0.00    +0.000 N 
ATOM     14  C   UNL     1       7.314   6.158  17.582  0.00  0.00    +0.000 A 
ATOM     15  N   UNL     1       7.644   6.653  16.411  0.00  0.00    +0.000 NA
ATOM     16  N   UNL     1       7.429   5.669  15.471  0.00  0.00    +0.000 NA
ATOM     17  C   UNL     1       6.983   4.605  16.104  0.00  0.00    +0.000 A 
ENDBRANCH  11  13
ENDBRANCH  10  11
ENDBRANCH   6  10
TORSDOF 4
ENDMDL
MODEL 8
REMARK VINA RESULT:      -6.4      2.912      5.897
REMARK  Name = 
REMARK  5 active torsions:
REMARK  status: ('A' for Active; 'I' for Inactive)
REMARK    1  A    between atoms: C_1  and  C_2
REMARK    2  A    between atoms: C_5  and  O_6
REMARK    3  A    between atoms: C_7  and  C_8
REMARK    4  A    between atoms: C_8  and  N_9
REMARK    5  A    between atoms: N_9  and  N_10
REMARK                            x       y       z     vdW  Elec       q    Type
REMARK                         _______ _______ _______ _____ _____    ______ ____
ROOT
ATOM      1  C   UNL     1       5.614   4.190  14.246  0.00  0.00    +0.000 C 
ATOM      2  C   UNL     1       5.854   4.456  15.702  0.00  0.00    +0.000 A 
ATOM      3  C   UNL     1       7.155   4.510  16.215  0.00  0.00    +0.000 A 
ATOM      4  C   UNL     1       7.369   4.749  17.573  0.00  0.00    +0.000 A 
ATOM      5  C   UNL     1       6.280   4.922  18.425  0.00  0.00    +0.000 A 
ATOM      6  C   UNL     1       4.968   4.861  17.946  0.00  0.00    +0.000 A 
ATOM      7  C   UNL     1       4.770   4.640  16.572  0.00  0.00    +0.000 A 
ENDROOT
BRANCH   5   8
ATOM      8  O   UNL     1       6.486   5.137  19.761  0.00  0.00    +0.000 OA
ATOM      9  H   UNL     1       7.360   4.787  20.002  0.00  0.00    +0.000 HD
ENDBRANCH   5   8
BRANCH   6  10
ATOM     10  C   UNL     1       3.783   4.995  18.871  0.00  0.00    +0.000 C 
BRANCH  10  11
ATOM     11  N   UNL     1       2.839   3.885  18.732  0.00  0.00    +0.000 N 
ATOM     12  H   UNL     1       3.211   3.190  18.091  0.00  0.00    +0.000 HD
BRANCH  11  13
ATOM     13  N   UNL     1       2.485   3.323  19.998  0.00  0.00    +0.000 N 
ATOM     14  C   UNL     1       1.257   3.253  20.592  0.00  0.00    +0.000 A 
ATOM     15  N   UNL     1       1.367   2.698  21.778  0.00  0.00    +0.000 NA
ATOM     16  N   UNL     1       2.699   2.411  21.978  0.00  0.00    +0.000 NA
ATOM     17  C   UNL     1       3.355   2.796  20.904  0.00  0.00    +0.000 A 
ENDBRANCH  11  13
ENDBRANCH  10  11
ENDBRANCH   6  10
TORSDOF 4
ENDMDL
MODEL 9
REMARK VINA RESULT:      -6.4      2.058      2.310
REMARK  Name = 
REMARK  5 active torsions:
REMARK  status: ('A' for Active; 'I' for Inactive)
REMARK    1  A    between atoms: C_1  and  C_2
REMARK    2  A    between atoms: C_5  and  O_6
REMARK    3  A    between atoms: C_7  and  C_8
REMARK    4  A    between atoms: C_8  and  N_9
REMARK    5  A    between atoms: N_9  and  N_10
REMARK                            x       y       z     vdW  Elec       q    Type
REMARK                         _______ _______ _______ _____ _____    ______ ____
ROOT
ATOM      1  C   UNL     1       0.352   2.429  18.830  0.00  0.00    +0.000 C 
ATOM      2  C   UNL     1       1.820   2.729  18.887  0.00  0.00    +0.000 A 
ATOM      3  C   UNL     1       2.553   2.497  20.057  0.00  0.00    +0.000 A 
ATOM      4  C   UNL     1       3.917   2.786  20.104  0.00  0.00    +0.000 A 
ATOM      5  C   UNL     1       4.550   3.322  18.983  0.00  0.00    +0.000 A 
ATOM      6  C   UNL     1       3.843   3.577  17.804  0.00  0.00    +0.000 A 
ATOM      7  C   UNL     1       2.473   3.261  17.767  0.00  0.00    +0.000 A 
ENDROOT
BRANCH   5   8
ATOM      8  O   UNL     1       5.883   3.626  19.033  0.00  0.00    +0.000 OA
ATOM      9  H   UNL     1       6.338   3.157  18.313  0.00  0.00    +0.000 HD
ENDBRANCH   5   8
BRANCH   6  10
ATOM     10  C   UNL     1       4.509   4.206  16.606  0.00  0.00    +0.000 C 
BRANCH  10  11
ATOM     11  N   UNL     1       5.691   3.460  16.169  0.00  0.00    +0.000 N 
ATOM     12  H   UNL     1       5.432   2.506  15.935  0.00  0.00    +0.000 HD
BRANCH  11  13
ATOM     13  N   UNL     1       6.371   4.118  15.096  0.00  0.00    +0.000 N 
ATOM     14  C   UNL     1       6.295   3.873  13.755  0.00  0.00    +0.000 A 
ATOM     15  N   UNL     1       7.114   4.672  13.109  0.00  0.00    +0.000 NA
ATOM     16  N   UNL     1       7.758   5.450  14.047  0.00  0.00    +0.000 NA
ATOM     17  C   UNL     1       7.304   5.101  15.232  0.00  0.00    +0.000 A 
ENDBRANCH  11  13
ENDBRANCH  10  11
ENDBRANCH   6  10
TORSDOF 4
ENDMDL
