MODEL 1
REMARK VINA RESULT:      -7.5      0.000      0.000
REMARK  Name = 
REMARK  13 active torsions:
REMARK  status: ('A' for Active; 'I' for Inactive)
REMARK    1  A    between atoms: C_1  and  O_2
REMARK    2  A    between atoms: O_2  and  C_3
REMARK    3  A    between atoms: C_7  and  O_8
REMARK    4  A    between atoms: O_8  and  C_9
REMARK    5  A    between atoms: C_10  and  C_11
REMARK    6  A    between atoms: C_14  and  C_15
REMARK    7  A    between atoms: C_15  and  CA_16
REMARK    8  A    between atoms: CA_16  and  N_17
REMARK    9  A    between atoms: CA_16  and  C_31
REMARK   10  A    between atoms: C_18  and  C_20
REMARK   11  A    between atoms: C_20  and  C_21
REMARK   12  A    between atoms: C_24  and  C_25
REMARK   13  A    between atoms: C_31  and  OXT_33
REMARK                            x       y       z     vdW  Elec       q    Type
REMARK                         _______ _______ _______ _____ _____    ______ ____
ROOT
ATOM      1  CA  UNL     1       0.407  11.733  18.984  0.00  0.00    +0.000 C 
ENDROOT
BRANCH   1   2
ATOM      2  N   UNL     1       1.021  13.012  19.384  0.00  0.00    +0.000 N 
ATOM      3  C   UNL     1       2.205  13.446  18.787  0.00  0.00    +0.000 C 
ATOM      4  O   UNL     1       2.845  12.696  18.048  0.00  0.00    +0.000 OA
ATOM      5  H   UNL     1       0.419  13.751  19.746  0.00  0.00    +0.000 HD
BRANCH   3   6
ATOM      6  C   UNL     1       2.580  14.938  19.037  0.00  0.00    +0.000 C 
ATOM      7  C   UNL     1       3.678  15.026  20.112  0.00  0.00    +0.000 C 
ATOM      8  C   UNL     1       4.942  15.083  19.285  0.00  0.00    +0.000 C 
ATOM      9  C   UNL     1       4.491  15.939  18.128  0.00  0.00    +0.000 C 
ATOM     10  O   UNL     1       3.163  15.496  17.824  0.00  0.00    +0.000 OA
BRANCH   6  11
ATOM     11  C   UNL     1       1.368  15.787  19.386  0.00  0.00    +0.000 A 
ATOM     12  N   UNL     1       0.274  15.890  18.649  0.00  0.00    +0.000 NA
ATOM     13  C   UNL     1      -0.752  16.459  19.369  0.00  0.00    +0.000 A 
ATOM     14  C   UNL     1      -0.430  16.834  20.655  0.00  0.00    +0.000 A 
ATOM     15  C   UNL     1      -1.311  17.356  21.731  0.00  0.00    +0.000 C 
ATOM     16  S   UNL     1       1.239  16.557  20.930  0.00  0.00    +0.000 S 
ENDBRANCH   6  11
ENDBRANCH   3   6
ENDBRANCH   1   2
BRANCH   1  17
ATOM     17  C   UNL     1      -1.067  11.999  18.656  0.00  0.00    +0.000 C 
ATOM     18  O   UNL     1      -1.993  11.846  19.441  0.00  0.00    +0.000 OA
BRANCH  17  19
ATOM     19  OXT UNL     1      -1.248  12.576  17.441  0.00  0.00    +0.000 OA
ATOM     20  HXT UNL     1      -1.200  11.938  16.696  0.00  0.00    +0.000 HD
ENDBRANCH  17  19
ENDBRANCH   1  17
BRANCH   1  21
ATOM     21  C   UNL     1       0.533  10.614  20.052  0.00  0.00    +0.000 C 
BRANCH  21  25
ATOM     22  C   UNL     1       2.511   6.972  18.497  0.00  0.00    +0.000 A 
ATOM     23  C   UNL     1       2.022   8.003  17.686  0.00  0.00    +0.000 A 
ATOM     24  C   UNL     1       1.426   9.168  18.182  0.00  0.00    +0.000 A 
ATOM     25  C   UNL     1       1.145   9.317  19.538  0.00  0.00    +0.000 A 
ATOM     26  C   UNL     1       1.533   8.266  20.379  0.00  0.00    +0.000 A 
ATOM     27  C   UNL     1       2.219   7.126  19.869  0.00  0.00    +0.000 A 
BRANCH  22  33
ATOM     28  C   UNL     1       4.609   5.988  17.317  0.00  0.00    +0.000 A 
ATOM     29  C   UNL     1       5.340   4.868  16.869  0.00  0.00    +0.000 A 
ATOM     30  C   UNL     1       4.808   3.587  16.913  0.00  0.00    +0.000 A 
ATOM     31  C   UNL     1       3.525   3.407  17.392  0.00  0.00    +0.000 A 
ATOM     32  C   UNL     1       2.778   4.499  17.865  0.00  0.00    +0.000 A 
ATOM     33  C   UNL     1       3.308   5.838  17.882  0.00  0.00    +0.000 A 
BRANCH  28  35
ATOM     34  C   UNL     1       6.602   7.286  17.288  0.00  0.00    +0.000 C 
ATOM     35  O   UNL     1       5.173   7.246  17.260  0.00  0.00    +0.000 OA
ENDBRANCH  28  35
BRANCH  32  36
ATOM     36  O   UNL     1       1.460   4.300  18.228  0.00  0.00    +0.000 OA
ATOM     37  C   UNL     1       1.092   2.960  18.554  0.00  0.00    +0.000 C 
ENDBRANCH  32  36
ENDBRANCH  22  33
ENDBRANCH  21  25
ENDBRANCH   1  21
TORSDOF 10
ENDMDL
MODEL 2
REMARK VINA RESULT:      -7.4      1.433      3.614
REMARK  Name = 
REMARK  13 active torsions:
REMARK  status: ('A' for Active; 'I' for Inactive)
REMARK    1  A    between atoms: C_1  and  O_2
REMARK    2  A    between atoms: O_2  and  C_3
REMARK    3  A    between atoms: C_7  and  O_8
REMARK    4  A    between atoms: O_8  and  C_9
REMARK    5  A    between atoms: C_10  and  C_11
REMARK    6  A    between atoms: C_14  and  C_15
REMARK    7  A    between atoms: C_15  and  CA_16
REMARK    8  A    between atoms: CA_16  and  N_17
REMARK    9  A    between atoms: CA_16  and  C_31
REMARK   10  A    between atoms: C_18  and  C_20
REMARK   11  A    between atoms: C_20  and  C_21
REMARK   12  A    between atoms: C_24  and  C_25
REMARK   13  A    between atoms: C_31  and  OXT_33
REMARK                            x       y       z     vdW  Elec       q    Type
REMARK                         _______ _______ _______ _____ _____    ______ ____
ROOT
ATOM      1  CA  UNL     1       0.347  11.807  19.111  0.00  0.00    +0.000 C 
ENDROOT
BRANCH   1   2
ATOM      2  N   UNL     1       1.003  12.944  19.781  0.00  0.00    +0.000 N 
ATOM      3  C   UNL     1       1.749  13.866  19.046  0.00  0.00    +0.000 C 
ATOM      4  O   UNL     1       2.016  13.652  17.862  0.00  0.00    +0.000 OA
ATOM      5  H   UNL     1       0.595  13.303  20.645  0.00  0.00    +0.000 HD
BRANCH   3   6
ATOM      6  C   UNL     1       2.111  15.188  19.789  0.00  0.00    +0.000 C 
ATOM      7  C   UNL     1       2.290  16.326  18.767  0.00  0.00    +0.000 C 
ATOM      8  C   UNL     1       0.925  16.973  18.756  0.00  0.00    +0.000 C 
ATOM      9  C   UNL     1       0.549  16.877  20.213  0.00  0.00    +0.000 C 
ATOM     10  O   UNL     1       0.995  15.584  20.636  0.00  0.00    +0.000 OA
BRANCH   6  11
ATOM     11  C   UNL     1       3.327  15.029  20.688  0.00  0.00    +0.000 A 
ATOM     12  N   UNL     1       3.373  14.283  21.779  0.00  0.00    +0.000 NA
ATOM     13  C   UNL     1       4.673  14.088  22.187  0.00  0.00    +0.000 A 
ATOM     14  C   UNL     1       5.629  14.725  21.427  0.00  0.00    +0.000 A 
ATOM     15  C   UNL     1       7.110  14.636  21.508  0.00  0.00    +0.000 C 
ATOM     16  S   UNL     1       4.862  15.681  20.228  0.00  0.00    +0.000 S 
ENDBRANCH   6  11
ENDBRANCH   3   6
ENDBRANCH   1   2
BRANCH   1  17
ATOM     17  C   UNL     1      -1.081  12.231  18.750  0.00  0.00    +0.000 C 
ATOM     18  O   UNL     1      -2.027  12.221  19.526  0.00  0.00    +0.000 OA
BRANCH  17  19
ATOM     19  OXT UNL     1      -1.180  12.774  17.509  0.00  0.00    +0.000 OA
ATOM     20  HXT UNL     1      -2.106  12.909  17.216  0.00  0.00    +0.000 HD
ENDBRANCH  17  19
ENDBRANCH   1  17
BRANCH   1  21
ATOM     21  C   UNL     1       0.331  10.504  19.953  0.00  0.00    +0.000 C 
BRANCH  21  25
ATOM     22  C   UNL     1       2.652   7.090  18.357  0.00  0.00    +0.000 A 
ATOM     23  C   UNL     1       2.290   7.229  19.702  0.00  0.00    +0.000 A 
ATOM     24  C   UNL     1       1.530   8.293  20.198  0.00  0.00    +0.000 A 
ATOM     25  C   UNL     1       1.196   9.380  19.395  0.00  0.00    +0.000 A 
ATOM     26  C   UNL     1       1.618   9.328  18.060  0.00  0.00    +0.000 A 
ATOM     27  C   UNL     1       2.314   8.196  17.549  0.00  0.00    +0.000 A 
BRANCH  22  33
ATOM     28  C   UNL     1       2.703   4.524  17.933  0.00  0.00    +0.000 A 
ATOM     29  C   UNL     1       3.332   3.397  17.363  0.00  0.00    +0.000 A 
ATOM     30  C   UNL     1       4.584   3.484  16.773  0.00  0.00    +0.000 A 
ATOM     31  C   UNL     1       5.240   4.700  16.759  0.00  0.00    +0.000 A 
ATOM     32  C   UNL     1       4.632   5.846  17.299  0.00  0.00    +0.000 A 
ATOM     33  C   UNL     1       3.315   5.811  17.879  0.00  0.00    +0.000 A 
BRANCH  28  35
ATOM     34  C   UNL     1       1.347   3.422  19.547  0.00  0.00    +0.000 C 
ATOM     35  O   UNL     1       1.455   4.399  18.508  0.00  0.00    +0.000 OA
ENDBRANCH  28  35
BRANCH  32  36
ATOM     36  O   UNL     1       5.362   7.017  17.372  0.00  0.00    +0.000 OA
ATOM     37  C   UNL     1       6.780   6.872  17.435  0.00  0.00    +0.000 C 
ENDBRANCH  32  36
ENDBRANCH  22  33
ENDBRANCH  21  25
ENDBRANCH   1  21
TORSDOF 10
ENDMDL
MODEL 3
REMARK VINA RESULT:      -7.4      1.256      1.627
REMARK  Name = 
REMARK  13 active torsions:
REMARK  status: ('A' for Active; 'I' for Inactive)
REMARK    1  A    between atoms: C_1  and  O_2
REMARK    2  A    between atoms: O_2  and  C_3
REMARK    3  A    between atoms: C_7  and  O_8
REMARK    4  A    between atoms: O_8  and  C_9
REMARK    5  A    between atoms: C_10  and  C_11
REMARK    6  A    between atoms: C_14  and  C_15
REMARK    7  A    between atoms: C_15  and  CA_16
REMARK    8  A    between atoms: CA_16  and  N_17
REMARK    9  A    between atoms: CA_16  and  C_31
REMARK   10  A    between atoms: C_18  and  C_20
REMARK   11  A    between atoms: C_20  and  C_21
REMARK   12  A    between atoms: C_24  and  C_25
REMARK   13  A    between atoms: C_31  and  OXT_33
REMARK                            x       y       z     vdW  Elec       q    Type
REMARK                         _______ _______ _______ _____ _____    ______ ____
ROOT
ATOM      1  CA  UNL     1       0.457  11.759  19.088  0.00  0.00    +0.000 C 
ENDROOT
BRANCH   1   2
ATOM      2  N   UNL     1       1.224  12.844  19.727  0.00  0.00    +0.000 N 
ATOM      3  C   UNL     1       2.307  13.428  19.070  0.00  0.00    +0.000 C 
ATOM      4  O   UNL     1       2.745  12.938  18.027  0.00  0.00    +0.000 OA
ATOM      5  H   UNL     1       0.754  13.440  20.407  0.00  0.00    +0.000 HD
BRANCH   3   6
ATOM      6  C   UNL     1       2.828  14.764  19.681  0.00  0.00    +0.000 C 
ATOM      7  C   UNL     1       2.688  14.724  21.214  0.00  0.00    +0.000 C 
ATOM      8  C   UNL     1       4.054  14.254  21.656  0.00  0.00    +0.000 C 
ATOM      9  C   UNL     1       4.939  14.973  20.669  0.00  0.00    +0.000 C 
ATOM     10  O   UNL     1       4.254  14.891  19.414  0.00  0.00    +0.000 OA
BRANCH   6  11
ATOM     11  C   UNL     1       2.146  15.981  19.075  0.00  0.00    +0.000 A 
ATOM     12  N   UNL     1       2.659  16.746  18.126  0.00  0.00    +0.000 NA
ATOM     13  C   UNL     1       1.694  17.553  17.569  0.00  0.00    +0.000 A 
ATOM     14  C   UNL     1       0.438  17.437  18.125  0.00  0.00    +0.000 A 
ATOM     15  C   UNL     1      -0.842  18.058  17.697  0.00  0.00    +0.000 C 
ATOM     16  S   UNL     1       0.501  16.356  19.454  0.00  0.00    +0.000 S 
ENDBRANCH   6  11
ENDBRANCH   3   6
ENDBRANCH   1   2
BRANCH   1  17
ATOM     17  C   UNL     1      -0.957  12.283  18.810  0.00  0.00    +0.000 C 
ATOM     18  O   UNL     1      -1.877  12.261  19.615  0.00  0.00    +0.000 OA
BRANCH  17  19
ATOM     19  OXT UNL     1      -1.065  12.924  17.618  0.00  0.00    +0.000 OA
ATOM     20  HXT UNL     1      -1.452  13.822  17.693  0.00  0.00    +0.000 HD
ENDBRANCH  17  19
ENDBRANCH   1  17
BRANCH   1  21
ATOM     21  C   UNL     1       0.399  10.452  19.922  0.00  0.00    +0.000 C 
BRANCH  21  25
ATOM     22  C   UNL     1       2.661   6.989  18.347  0.00  0.00    +0.000 A 
ATOM     23  C   UNL     1       2.346   7.168  19.700  0.00  0.00    +0.000 A 
ATOM     24  C   UNL     1       1.603   8.247  20.190  0.00  0.00    +0.000 A 
ATOM     25  C   UNL     1       1.243   9.312  19.367  0.00  0.00    +0.000 A 
ATOM     26  C   UNL     1       1.620   9.220  18.021  0.00  0.00    +0.000 A 
ATOM     27  C   UNL     1       2.298   8.073  17.519  0.00  0.00    +0.000 A 
BRANCH  22  33
ATOM     28  C   UNL     1       4.550   5.626  17.189  0.00  0.00    +0.000 A 
ATOM     29  C   UNL     1       5.147   4.383  16.894  0.00  0.00    +0.000 A 
ATOM     30  C   UNL     1       4.531   3.184  17.221  0.00  0.00    +0.000 A 
ATOM     31  C   UNL     1       3.294   3.208  17.836  0.00  0.00    +0.000 A 
ATOM     32  C   UNL     1       2.682   4.429  18.163  0.00  0.00    +0.000 A 
ATOM     33  C   UNL     1       3.306   5.696  17.884  0.00  0.00    +0.000 A 
BRANCH  28  35
ATOM     34  C   UNL     1       6.547   6.913  17.303  0.00  0.00    +0.000 C 
ATOM     35  O   UNL     1       5.195   6.799  16.851  0.00  0.00    +0.000 OA
ENDBRANCH  28  35
BRANCH  32  36
ATOM     36  O   UNL     1       1.397   4.417  18.670  0.00  0.00    +0.000 OA
ATOM     37  C   UNL     1       0.912   3.155  19.126  0.00  0.00    +0.000 C 
ENDBRANCH  32  36
ENDBRANCH  22  33
ENDBRANCH  21  25
ENDBRANCH   1  21
TORSDOF 10
ENDMDL
MODEL 4
REMARK VINA RESULT:      -7.4      1.529      2.857
REMARK  Name = 
REMARK  13 active torsions:
REMARK  status: ('A' for Active; 'I' for Inactive)
REMARK    1  A    between atoms: C_1  and  O_2
REMARK    2  A    between atoms: O_2  and  C_3
REMARK    3  A    between atoms: C_7  and  O_8
REMARK    4  A    between atoms: O_8  and  C_9
REMARK    5  A    between atoms: C_10  and  C_11
REMARK    6  A    between atoms: C_14  and  C_15
REMARK    7  A    between atoms: C_15  and  CA_16
REMARK    8  A    between atoms: CA_16  and  N_17
REMARK    9  A    between atoms: CA_16  and  C_31
REMARK   10  A    between atoms: C_18  and  C_20
REMARK   11  A    between atoms: C_20  and  C_21
REMARK   12  A    between atoms: C_24  and  C_25
REMARK   13  A    between atoms: C_31  and  OXT_33
REMARK                            x       y       z     vdW  Elec       q    Type
REMARK                         _______ _______ _______ _____ _____    ______ ____
ROOT
ATOM      1  CA  UNL     1       0.853  11.849  19.305  0.00  0.00    +0.000 C 
ENDROOT
BRANCH   1   2
ATOM      2  N   UNL     1       1.667  12.952  19.849  0.00  0.00    +0.000 N 
ATOM      3  C   UNL     1       2.703  13.505  19.096  0.00  0.00    +0.000 C 
ATOM      4  O   UNL     1       3.066  12.974  18.045  0.00  0.00    +0.000 OA
ATOM      5  H   UNL     1       1.247  13.576  20.537  0.00  0.00    +0.000 HD
BRANCH   3   6
ATOM      6  C   UNL     1       3.270  14.860  19.620  0.00  0.00    +0.000 C 
ATOM      7  C   UNL     1       2.861  15.062  21.090  0.00  0.00    +0.000 C 
ATOM      8  C   UNL     1       4.060  14.531  21.840  0.00  0.00    +0.000 C 
ATOM      9  C   UNL     1       5.186  15.006  20.956  0.00  0.00    +0.000 C 
ATOM     10  O   UNL     1       4.725  14.806  19.614  0.00  0.00    +0.000 OA
BRANCH   6  11
ATOM     11  C   UNL     1       2.859  16.034  18.745  0.00  0.00    +0.000 A 
ATOM     12  N   UNL     1       3.422  16.356  17.592  0.00  0.00    +0.000 NA
ATOM     13  C   UNL     1       2.639  17.247  16.895  0.00  0.00    +0.000 A 
ATOM     14  C   UNL     1       1.486  17.644  17.536  0.00  0.00    +0.000 A 
ATOM     15  C   UNL     1       0.371  18.487  17.033  0.00  0.00    +0.000 C 
ATOM     16  S   UNL     1       1.441  16.956  19.106  0.00  0.00    +0.000 S 
ENDBRANCH   6  11
ENDBRANCH   3   6
ENDBRANCH   1   2
BRANCH   1  17
ATOM     17  C   UNL     1      -0.526  12.414  18.945  0.00  0.00    +0.000 C 
ATOM     18  O   UNL     1      -0.745  13.168  18.007  0.00  0.00    +0.000 OA
BRANCH  17  19
ATOM     19  OXT UNL     1      -1.532  11.875  19.679  0.00  0.00    +0.000 OA
ATOM     20  HXT UNL     1      -1.579  10.897  19.617  0.00  0.00    +0.000 HD
ENDBRANCH  17  19
ENDBRANCH   1  17
BRANCH   1  21
ATOM     21  C   UNL     1       0.711  10.639  20.266  0.00  0.00    +0.000 C 
BRANCH  21  25
ATOM     22  C   UNL     1       2.454   6.933  18.586  0.00  0.00    +0.000 A 
ATOM     23  C   UNL     1       2.041   8.024  17.812  0.00  0.00    +0.000 A 
ATOM     24  C   UNL     1       1.520   9.207  18.347  0.00  0.00    +0.000 A 
ATOM     25  C   UNL     1       1.240   9.324  19.707  0.00  0.00    +0.000 A 
ATOM     26  C   UNL     1       1.551   8.219  20.510  0.00  0.00    +0.000 A 
ATOM     27  C   UNL     1       2.163   7.056  19.961  0.00  0.00    +0.000 A 
BRANCH  22  33
ATOM     28  C   UNL     1       2.652   4.448  17.844  0.00  0.00    +0.000 A 
ATOM     29  C   UNL     1       3.330   3.446  17.118  0.00  0.00    +0.000 A 
ATOM     30  C   UNL     1       4.550   3.690  16.506  0.00  0.00    +0.000 A 
ATOM     31  C   UNL     1       5.125   4.941  16.624  0.00  0.00    +0.000 A 
ATOM     32  C   UNL     1       4.468   5.967  17.322  0.00  0.00    +0.000 A 
ATOM     33  C   UNL     1       3.178   5.772  17.932  0.00  0.00    +0.000 A 
BRANCH  28  35
ATOM     34  C   UNL     1       1.156   2.783  18.645  0.00  0.00    +0.000 C 
ATOM     35  O   UNL     1       1.438   4.169  18.436  0.00  0.00    +0.000 OA
ENDBRANCH  28  35
BRANCH  32  36
ATOM     36  O   UNL     1       5.123   7.167  17.519  0.00  0.00    +0.000 OA
ATOM     37  C   UNL     1       6.536   7.153  17.318  0.00  0.00    +0.000 C 
ENDBRANCH  32  36
ENDBRANCH  22  33
ENDBRANCH  21  25
ENDBRANCH   1  21
TORSDOF 10
ENDMDL
MODEL 5
REMARK VINA RESULT:      -7.3      3.868      9.751
REMARK  Name = 
REMARK  13 active torsions:
REMARK  status: ('A' for Active; 'I' for Inactive)
REMARK    1  A    between atoms: C_1  and  O_2
REMARK    2  A    between atoms: O_2  and  C_3
REMARK    3  A    between atoms: C_7  and  O_8
REMARK    4  A    between atoms: O_8  and  C_9
REMARK    5  A    between atoms: C_10  and  C_11
REMARK    6  A    between atoms: C_14  and  C_15
REMARK    7  A    between atoms: C_15  and  CA_16
REMARK    8  A    between atoms: CA_16  and  N_17
REMARK    9  A    between atoms: CA_16  and  C_31
REMARK   10  A    between atoms: C_18  and  C_20
REMARK   11  A    between atoms: C_20  and  C_21
REMARK   12  A    between atoms: C_24  and  C_25
REMARK   13  A    between atoms: C_31  and  OXT_33
REMARK                            x       y       z     vdW  Elec       q    Type
REMARK                         _______ _______ _______ _____ _____    ______ ____
ROOT
ATOM      1  CA  UNL     1       3.161   6.061  19.158  0.00  0.00    +0.000 C 
ENDROOT
BRANCH   1   2
ATOM      2  N   UNL     1       4.339   5.522  18.455  0.00  0.00    +0.000 N 
ATOM      3  C   UNL     1       5.026   6.300  17.524  0.00  0.00    +0.000 C 
ATOM      4  O   UNL     1       4.564   7.379  17.147  0.00  0.00    +0.000 OA
ATOM      5  H   UNL     1       4.895   4.801  18.914  0.00  0.00    +0.000 HD
BRANCH   3   6
ATOM      6  C   UNL     1       6.426   5.764  17.096  0.00  0.00    +0.000 C 
ATOM      7  C   UNL     1       7.513   6.788  17.473  0.00  0.00    +0.000 C 
ATOM      8  C   UNL     1       7.984   6.285  18.818  0.00  0.00    +0.000 C 
ATOM      9  C   UNL     1       7.931   4.793  18.602  0.00  0.00    +0.000 C 
ATOM     10  O   UNL     1       6.731   4.559  17.855  0.00  0.00    +0.000 OA
BRANCH   6  11
ATOM     11  C   UNL     1       6.476   5.394  15.622  0.00  0.00    +0.000 A 
ATOM     12  N   UNL     1       7.520   5.572  14.829  0.00  0.00    +0.000 NA
ATOM     13  C   UNL     1       7.379   4.857  13.662  0.00  0.00    +0.000 A 
ATOM     14  C   UNL     1       6.197   4.157  13.541  0.00  0.00    +0.000 A 
ATOM     15  C   UNL     1       5.774   3.201  12.486  0.00  0.00    +0.000 C 
ATOM     16  S   UNL     1       5.194   4.495  14.889  0.00  0.00    +0.000 S 
ENDBRANCH   6  11
ENDBRANCH   3   6
ENDBRANCH   1   2
BRANCH   1  17
ATOM     17  C   UNL     1       2.416   4.886  19.801  0.00  0.00    +0.000 C 
ATOM     18  O   UNL     1       1.872   3.983  19.180  0.00  0.00    +0.000 OA
BRANCH  17  19
ATOM     19  OXT UNL     1       2.541   4.849  21.152  0.00  0.00    +0.000 OA
ATOM     20  HXT UNL     1       1.798   4.392  21.600  0.00  0.00    +0.000 HD
ENDBRANCH  17  19
ENDBRANCH   1  17
BRANCH   1  21
ATOM     21  C   UNL     1       2.206   6.879  18.249  0.00  0.00    +0.000 C 
BRANCH  21  25
ATOM     22  C   UNL     1       0.936  10.865  19.695  0.00  0.00    +0.000 A 
ATOM     23  C   UNL     1       1.425  10.620  18.406  0.00  0.00    +0.000 A 
ATOM     24  C   UNL     1       1.796   9.354  17.942  0.00  0.00    +0.000 A 
ATOM     25  C   UNL     1       1.838   8.253  18.795  0.00  0.00    +0.000 A 
ATOM     26  C   UNL     1       1.444   8.472  20.121  0.00  0.00    +0.000 A 
ATOM     27  C   UNL     1       0.985   9.748  20.555  0.00  0.00    +0.000 A 
BRANCH  22  33
ATOM     28  C   UNL     1       1.131  13.252  20.711  0.00  0.00    +0.000 A 
ATOM     29  C   UNL     1       0.590  14.540  20.901  0.00  0.00    +0.000 A 
ATOM     30  C   UNL     1      -0.700  14.855  20.499  0.00  0.00    +0.000 A 
ATOM     31  C   UNL     1      -1.480  13.878  19.912  0.00  0.00    +0.000 A 
ATOM     32  C   UNL     1      -0.965  12.590  19.689  0.00  0.00    +0.000 A 
ATOM     33  C   UNL     1       0.383  12.233  20.048  0.00  0.00    +0.000 A 
BRANCH  28  35
ATOM     34  C   UNL     1       3.314  14.091  21.138  0.00  0.00    +0.000 C 
ATOM     35  O   UNL     1       2.419  12.976  21.122  0.00  0.00    +0.000 OA
ENDBRANCH  28  35
BRANCH  32  36
ATOM     36  O   UNL     1      -1.808  11.607  19.208  0.00  0.00    +0.000 OA
ATOM     37  C   UNL     1      -3.192  11.950  19.128  0.00  0.00    +0.000 C 
ENDBRANCH  32  36
ENDBRANCH  22  33
ENDBRANCH  21  25
ENDBRANCH   1  21
TORSDOF 10
ENDMDL
MODEL 6
REMARK VINA RESULT:      -7.3      3.889      9.965
REMARK  Name = 
REMARK  13 active torsions:
REMARK  status: ('A' for Active; 'I' for Inactive)
REMARK    1  A    between atoms: C_1  and  O_2
REMARK    2  A    between atoms: O_2  and  C_3
REMARK    3  A    between atoms: C_7  and  O_8
REMARK    4  A    between atoms: O_8  and  C_9
REMARK    5  A    between atoms: C_10  and  C_11
REMARK    6  A    between atoms: C_14  and  C_15
REMARK    7  A    between atoms: C_15  and  CA_16
REMARK    8  A    between atoms: CA_16  and  N_17
REMARK    9  A    between atoms: CA_16  and  C_31
REMARK   10  A    between atoms: C_18  and  C_20
REMARK   11  A    between atoms: C_20  and  C_21
REMARK   12  A    between atoms: C_24  and  C_25
REMARK   13  A    between atoms: C_31  and  OXT_33
REMARK                            x       y       z     vdW  Elec       q    Type
REMARK                         _______ _______ _______ _____ _____    ______ ____
ROOT
ATOM      1  CA  UNL     1       3.214   6.299  19.174  0.00  0.00    +0.000 C 
ENDROOT
BRANCH   1   2
ATOM      2  N   UNL     1       4.395   5.702  18.524  0.00  0.00    +0.000 N 
ATOM      3  C   UNL     1       5.044   6.369  17.485  0.00  0.00    +0.000 C 
ATOM      4  O   UNL     1       4.545   7.376  16.980  0.00  0.00    +0.000 OA
ATOM      5  H   UNL     1       4.978   5.063  19.063  0.00  0.00    +0.000 HD
BRANCH   3   6
ATOM      6  C   UNL     1       6.451   5.817  17.103  0.00  0.00    +0.000 C 
ATOM      7  C   UNL     1       7.534   6.839  17.494  0.00  0.00    +0.000 C 
ATOM      8  C   UNL     1       7.966   6.354  18.858  0.00  0.00    +0.000 C 
ATOM      9  C   UNL     1       7.908   4.859  18.664  0.00  0.00    +0.000 C 
ATOM     10  O   UNL     1       6.728   4.622  17.889  0.00  0.00    +0.000 OA
BRANCH   6  11
ATOM     11  C   UNL     1       6.538   5.423  15.637  0.00  0.00    +0.000 A 
ATOM     12  N   UNL     1       7.610   5.565  14.875  0.00  0.00    +0.000 NA
ATOM     13  C   UNL     1       7.487   4.835  13.714  0.00  0.00    +0.000 A 
ATOM     14  C   UNL     1       6.294   4.162  13.566  0.00  0.00    +0.000 A 
ATOM     15  C   UNL     1       5.880   3.200  12.512  0.00  0.00    +0.000 C 
ATOM     16  S   UNL     1       5.257   4.544  14.877  0.00  0.00    +0.000 S 
ENDBRANCH   6  11
ENDBRANCH   3   6
ENDBRANCH   1   2
BRANCH   1  17
ATOM     17  C   UNL     1       2.392   5.164  19.796  0.00  0.00    +0.000 C 
ATOM     18  O   UNL     1       1.756   4.336  19.159  0.00  0.00    +0.000 OA
BRANCH  17  19
ATOM     19  OXT UNL     1       2.557   5.061  21.140  0.00  0.00    +0.000 OA
ATOM     20  HXT UNL     1       3.494   5.123  21.424  0.00  0.00    +0.000 HD
ENDBRANCH  17  19
ENDBRANCH   1  17
BRANCH   1  21
ATOM     21  C   UNL     1       2.333   7.149  18.220  0.00  0.00    +0.000 C 
BRANCH  21  25
ATOM     22  C   UNL     1       0.778  10.992  19.770  0.00  0.00    +0.000 A 
ATOM     23  C   UNL     1       1.380  10.841  18.515  0.00  0.00    +0.000 A 
ATOM     24  C   UNL     1       1.842   9.619  18.015  0.00  0.00    +0.000 A 
ATOM     25  C   UNL     1       1.862   8.474  18.807  0.00  0.00    +0.000 A 
ATOM     26  C   UNL     1       1.353   8.600  20.106  0.00  0.00    +0.000 A 
ATOM     27  C   UNL     1       0.805   9.830  20.569  0.00  0.00    +0.000 A 
BRANCH  22  33
ATOM     28  C   UNL     1      -1.171  12.714  19.753  0.00  0.00    +0.000 A 
ATOM     29  C   UNL     1      -1.744  13.908  20.241  0.00  0.00    +0.000 A 
ATOM     30  C   UNL     1      -1.044  14.761  21.080  0.00  0.00    +0.000 A 
ATOM     31  C   UNL     1       0.253  14.443  21.435  0.00  0.00    +0.000 A 
ATOM     32  C   UNL     1       0.846  13.252  20.984  0.00  0.00    +0.000 A 
ATOM     33  C   UNL     1       0.140  12.315  20.149  0.00  0.00    +0.000 A 
BRANCH  28  35
ATOM     34  C   UNL     1      -3.314  11.890  19.134  0.00  0.00    +0.000 C 
ATOM     35  O   UNL     1      -1.900  11.889  18.922  0.00  0.00    +0.000 OA
ENDBRANCH  28  35
BRANCH  32  36
ATOM     36  O   UNL     1       2.180  13.024  21.261  0.00  0.00    +0.000 OA
ATOM     37  C   UNL     1       3.099  14.008  20.788  0.00  0.00    +0.000 C 
ENDBRANCH  32  36
ENDBRANCH  22  33
ENDBRANCH  21  25
ENDBRANCH   1  21
TORSDOF 10
ENDMDL
MODEL 7
REMARK VINA RESULT:      -7.2      0.766      2.322
REMARK  Name = 
REMARK  13 active torsions:
REMARK  status: ('A' for Active; 'I' for Inactive)
REMARK    1  A    between atoms: C_1  and  O_2
REMARK    2  A    between atoms: O_2  and  C_3
REMARK    3  A    between atoms: C_7  and  O_8
REMARK    4  A    between atoms: O_8  and  C_9
REMARK    5  A    between atoms: C_10  and  C_11
REMARK    6  A    between atoms: C_14  and  C_15
REMARK    7  A    between atoms: C_15  and  CA_16
REMARK    8  A    between atoms: CA_16  and  N_17
REMARK    9  A    between atoms: CA_16  and  C_31
REMARK   10  A    between atoms: C_18  and  C_20
REMARK   11  A    between atoms: C_20  and  C_21
REMARK   12  A    between atoms: C_24  and  C_25
REMARK   13  A    between atoms: C_31  and  OXT_33
REMARK                            x       y       z     vdW  Elec       q    Type
REMARK                         _______ _______ _______ _____ _____    ______ ____
ROOT
ATOM      1  CA  UNL     1       0.494  11.538  18.895  0.00  0.00    +0.000 C 
ENDROOT
BRANCH   1   2
ATOM      2  N   UNL     1       1.100  12.780  19.407  0.00  0.00    +0.000 N 
ATOM      3  C   UNL     1       2.273  13.282  18.843  0.00  0.00    +0.000 C 
ATOM      4  O   UNL     1       2.914  12.611  18.032  0.00  0.00    +0.000 OA
ATOM      5  H   UNL     1       0.494  13.476  19.842  0.00  0.00    +0.000 HD
BRANCH   3   6
ATOM      6  C   UNL     1       2.635  14.748  19.229  0.00  0.00    +0.000 C 
ATOM      7  C   UNL     1       4.047  14.791  19.842  0.00  0.00    +0.000 C 
ATOM      8  C   UNL     1       4.912  15.131  18.651  0.00  0.00    +0.000 C 
ATOM      9  C   UNL     1       4.022  16.102  17.917  0.00  0.00    +0.000 C 
ATOM     10  O   UNL     1       2.700  15.560  18.021  0.00  0.00    +0.000 OA
BRANCH   6  11
ATOM     11  C   UNL     1       1.595  15.379  20.140  0.00  0.00    +0.000 A 
ATOM     12  N   UNL     1       0.371  15.720  19.774  0.00  0.00    +0.000 NA
ATOM     13  C   UNL     1      -0.422  15.959  20.873  0.00  0.00    +0.000 A 
ATOM     14  C   UNL     1       0.210  15.840  22.092  0.00  0.00    +0.000 A 
ATOM     15  C   UNL     1      -0.363  15.908  23.461  0.00  0.00    +0.000 C 
ATOM     16  S   UNL     1       1.876  15.522  21.841  0.00  0.00    +0.000 S 
ENDBRANCH   6  11
ENDBRANCH   3   6
ENDBRANCH   1   2
BRANCH   1  17
ATOM     17  C   UNL     1      -0.946  11.852  18.476  0.00  0.00    +0.000 C 
ATOM     18  O   UNL     1      -1.943  11.365  18.993  0.00  0.00    +0.000 OA
BRANCH  17  19
ATOM     19  OXT UNL     1      -1.031  12.853  17.563  0.00  0.00    +0.000 OA
ATOM     20  HXT UNL     1      -1.556  13.621  17.875  0.00  0.00    +0.000 HD
ENDBRANCH  17  19
ENDBRANCH   1  17
BRANCH   1  21
ATOM     21  C   UNL     1       0.523  10.361  19.905  0.00  0.00    +0.000 C 
BRANCH  21  25
ATOM     22  C   UNL     1       2.716   6.840  18.363  0.00  0.00    +0.000 A 
ATOM     23  C   UNL     1       2.236   7.877  17.555  0.00  0.00    +0.000 A 
ATOM     24  C   UNL     1       1.571   9.004  18.049  0.00  0.00    +0.000 A 
ATOM     25  C   UNL     1       1.210   9.102  19.390  0.00  0.00    +0.000 A 
ATOM     26  C   UNL     1       1.589   8.040  20.222  0.00  0.00    +0.000 A 
ATOM     27  C   UNL     1       2.344   6.942  19.719  0.00  0.00    +0.000 A 
BRANCH  22  33
ATOM     28  C   UNL     1       3.201   4.383  17.656  0.00  0.00    +0.000 A 
ATOM     29  C   UNL     1       4.013   3.450  16.979  0.00  0.00    +0.000 A 
ATOM     30  C   UNL     1       5.236   3.812  16.432  0.00  0.00    +0.000 A 
ATOM     31  C   UNL     1       5.676   5.114  16.569  0.00  0.00    +0.000 A 
ATOM     32  C   UNL     1       4.883   6.073  17.220  0.00  0.00    +0.000 A 
ATOM     33  C   UNL     1       3.587   5.753  17.761  0.00  0.00    +0.000 A 
BRANCH  28  35
ATOM     34  C   UNL     1       2.026   2.815  19.004  0.00  0.00    +0.000 C 
ATOM     35  O   UNL     1       1.990   3.987  18.185  0.00  0.00    +0.000 OA
ENDBRANCH  28  35
BRANCH  32  36
ATOM     36  O   UNL     1       5.404   7.333  17.440  0.00  0.00    +0.000 OA
ATOM     37  C   UNL     1       6.827   7.436  17.433  0.00  0.00    +0.000 C 
ENDBRANCH  32  36
ENDBRANCH  22  33
ENDBRANCH  21  25
ENDBRANCH   1  21
TORSDOF 10
ENDMDL
MODEL 8
REMARK VINA RESULT:      -7.2      1.598      3.746
REMARK  Name = 
REMARK  13 active torsions:
REMARK  status: ('A' for Active; 'I' for Inactive)
REMARK    1  A    between atoms: C_1  and  O_2
REMARK    2  A    between atoms: O_2  and  C_3
REMARK    3  A    between atoms: C_7  and  O_8
REMARK    4  A    between atoms: O_8  and  C_9
REMARK    5  A    between atoms: C_10  and  C_11
REMARK    6  A    between atoms: C_14  and  C_15
REMARK    7  A    between atoms: C_15  and  CA_16
REMARK    8  A    between atoms: CA_16  and  N_17
REMARK    9  A    between atoms: CA_16  and  C_31
REMARK   10  A    between atoms: C_18  and  C_20
REMARK   11  A    between atoms: C_20  and  C_21
REMARK   12  A    between atoms: C_24  and  C_25
REMARK   13  A    between atoms: C_31  and  OXT_33
REMARK                            x       y       z     vdW  Elec       q    Type
REMARK                         _______ _______ _______ _____ _____    ______ ____
ROOT
ATOM      1  CA  UNL     1       0.767  12.001  18.979  0.00  0.00    +0.000 C 
ENDROOT
BRANCH   1   2
ATOM      2  N   UNL     1       1.427  13.212  19.501  0.00  0.00    +0.000 N 
ATOM      3  C   UNL     1       2.567  13.721  18.879  0.00  0.00    +0.000 C 
ATOM      4  O   UNL     1       3.140  13.076  17.998  0.00  0.00    +0.000 OA
ATOM      5  H   UNL     1       0.863  13.897  20.004  0.00  0.00    +0.000 HD
BRANCH   3   6
ATOM      6  C   UNL     1       2.980  15.164  19.299  0.00  0.00    +0.000 C 
ATOM      7  C   UNL     1       2.779  16.128  18.116  0.00  0.00    +0.000 C 
ATOM      8  C   UNL     1       1.401  16.690  18.380  0.00  0.00    +0.000 C 
ATOM      9  C   UNL     1       1.424  16.812  19.883  0.00  0.00    +0.000 C 
ATOM     10  O   UNL     1       2.086  15.631  20.351  0.00  0.00    +0.000 OA
BRANCH   6  11
ATOM     11  C   UNL     1       4.395  15.222  19.851  0.00  0.00    +0.000 A 
ATOM     12  N   UNL     1       4.731  14.982  21.108  0.00  0.00    +0.000 NA
ATOM     13  C   UNL     1       6.089  14.796  21.227  0.00  0.00    +0.000 A 
ATOM     14  C   UNL     1       6.806  14.937  20.059  0.00  0.00    +0.000 A 
ATOM     15  C   UNL     1       8.249  14.691  19.804  0.00  0.00    +0.000 C 
ATOM     16  S   UNL     1       5.751  15.419  18.796  0.00  0.00    +0.000 S 
ENDBRANCH   6  11
ENDBRANCH   3   6
ENDBRANCH   1   2
BRANCH   1  17
ATOM     17  C   UNL     1      -0.622  12.402  18.470  0.00  0.00    +0.000 C 
ATOM     18  O   UNL     1      -1.426  11.632  17.963  0.00  0.00    +0.000 OA
BRANCH  17  19
ATOM     19  OXT UNL     1      -0.953  13.683  18.775  0.00  0.00    +0.000 OA
ATOM     20  HXT UNL     1      -0.359  14.347  18.364  0.00  0.00    +0.000 HD
ENDBRANCH  17  19
ENDBRANCH   1  17
BRANCH   1  21
ATOM     21  C   UNL     1       0.657  10.850  20.014  0.00  0.00    +0.000 C 
BRANCH  21  25
ATOM     22  C   UNL     1       2.395   7.062  18.525  0.00  0.00    +0.000 A 
ATOM     23  C   UNL     1       1.962   8.103  17.695  0.00  0.00    +0.000 A 
ATOM     24  C   UNL     1       1.443   9.312  18.170  0.00  0.00    +0.000 A 
ATOM     25  C   UNL     1       1.184   9.508  19.524  0.00  0.00    +0.000 A 
ATOM     26  C   UNL     1       1.516   8.453  20.385  0.00  0.00    +0.000 A 
ATOM     27  C   UNL     1       2.127   7.264  19.896  0.00  0.00    +0.000 A 
BRANCH  22  33
ATOM     28  C   UNL     1       2.569   4.552  17.864  0.00  0.00    +0.000 A 
ATOM     29  C   UNL     1       3.248   3.516  17.189  0.00  0.00    +0.000 A 
ATOM     30  C   UNL     1       4.490   3.719  16.607  0.00  0.00    +0.000 A 
ATOM     31  C   UNL     1       5.085   4.962  16.704  0.00  0.00    +0.000 A 
ATOM     32  C   UNL     1       4.427   6.021  17.351  0.00  0.00    +0.000 A 
ATOM     33  C   UNL     1       3.116   5.868  17.929  0.00  0.00    +0.000 A 
BRANCH  28  35
ATOM     34  C   UNL     1       1.338   3.511  19.611  0.00  0.00    +0.000 C 
ATOM     35  O   UNL     1       1.332   4.314  18.428  0.00  0.00    +0.000 OA
ENDBRANCH  28  35
BRANCH  32  36
ATOM     36  O   UNL     1       5.098   7.215  17.531  0.00  0.00    +0.000 OA
ATOM     37  C   UNL     1       6.508   7.183  17.311  0.00  0.00    +0.000 C 
ENDBRANCH  32  36
ENDBRANCH  22  33
ENDBRANCH  21  25
ENDBRANCH   1  21
TORSDOF 10
ENDMDL
MODEL 9
REMARK VINA RESULT:      -7.1      1.222      2.723
REMARK  Name = 
REMARK  13 active torsions:
REMARK  status: ('A' for Active; 'I' for Inactive)
REMARK    1  A    between atoms: C_1  and  O_2
REMARK    2  A    between atoms: O_2  and  C_3
REMARK    3  A    between atoms: C_7  and  O_8
REMARK    4  A    between atoms: O_8  and  C_9
REMARK    5  A    between atoms: C_10  and  C_11
REMARK    6  A    between atoms: C_14  and  C_15
REMARK    7  A    between atoms: C_15  and  CA_16
REMARK    8  A    between atoms: CA_16  and  N_17
REMARK    9  A    between atoms: CA_16  and  C_31
REMARK   10  A    between atoms: C_18  and  C_20
REMARK   11  A    between atoms: C_20  and  C_21
REMARK   12  A    between atoms: C_24  and  C_25
REMARK   13  A    between atoms: C_31  and  OXT_33
REMARK                            x       y       z     vdW  Elec       q    Type
REMARK                         _______ _______ _______ _____ _____    ______ ____
ROOT
ATOM      1  CA  UNL     1       0.228  11.853  19.343  0.00  0.00    +0.000 C 
ENDROOT
BRANCH   1   2
ATOM      2  N   UNL     1       0.715  12.944  20.207  0.00  0.00    +0.000 N 
ATOM      3  C   UNL     1       1.356  14.053  19.654  0.00  0.00    +0.000 C 
ATOM      4  O   UNL     1       1.679  14.060  18.465  0.00  0.00    +0.000 OA
ATOM      5  H   UNL     1       0.243  13.112  21.095  0.00  0.00    +0.000 HD
BRANCH   3   6
ATOM      6  C   UNL     1       1.526  15.278  20.603  0.00  0.00    +0.000 C 
ATOM      7  C   UNL     1       2.618  14.979  21.647  0.00  0.00    +0.000 C 
ATOM      8  C   UNL     1       3.850  15.585  21.015  0.00  0.00    +0.000 C 
ATOM      9  C   UNL     1       3.268  16.825  20.382  0.00  0.00    +0.000 C 
ATOM     10  O   UNL     1       2.009  16.417  19.834  0.00  0.00    +0.000 OA
BRANCH   6  11
ATOM     11  C   UNL     1       0.215  15.694  21.250  0.00  0.00    +0.000 A 
ATOM     12  N   UNL     1      -0.988  15.400  20.785  0.00  0.00    +0.000 NA
ATOM     13  C   UNL     1      -1.954  15.628  21.739  0.00  0.00    +0.000 A 
ATOM     14  C   UNL     1      -1.492  16.141  22.931  0.00  0.00    +0.000 A 
ATOM     15  C   UNL     1      -2.228  16.388  24.198  0.00  0.00    +0.000 C 
ATOM     16  S   UNL     1       0.192  16.441  22.809  0.00  0.00    +0.000 S 
ENDBRANCH   6  11
ENDBRANCH   3   6
ENDBRANCH   1   2
BRANCH   1  17
ATOM     17  C   UNL     1      -1.143  12.262  18.794  0.00  0.00    +0.000 C 
ATOM     18  O   UNL     1      -2.181  12.260  19.442  0.00  0.00    +0.000 OA
BRANCH  17  19
ATOM     19  OXT UNL     1      -1.084  12.782  17.541  0.00  0.00    +0.000 OA
ATOM     20  HXT UNL     1      -1.964  12.879  17.118  0.00  0.00    +0.000 HD
ENDBRANCH  17  19
ENDBRANCH   1  17
BRANCH   1  21
ATOM     21  C   UNL     1       0.141  10.477  20.056  0.00  0.00    +0.000 C 
BRANCH  21  25
ATOM     22  C   UNL     1       2.558   7.184  18.353  0.00  0.00    +0.000 A 
ATOM     23  C   UNL     1       2.251   7.306  19.714  0.00  0.00    +0.000 A 
ATOM     24  C   UNL     1       1.461   8.330  20.244  0.00  0.00    +0.000 A 
ATOM     25  C   UNL     1       1.036   9.399  19.458  0.00  0.00    +0.000 A 
ATOM     26  C   UNL     1       1.399   9.366  18.105  0.00  0.00    +0.000 A 
ATOM     27  C   UNL     1       2.129   8.271  17.562  0.00  0.00    +0.000 A 
BRANCH  22  33
ATOM     28  C   UNL     1       2.677   4.640  17.825  0.00  0.00    +0.000 A 
ATOM     29  C   UNL     1       3.348   3.551  17.229  0.00  0.00    +0.000 A 
ATOM     30  C   UNL     1       4.617   3.688  16.686  0.00  0.00    +0.000 A 
ATOM     31  C   UNL     1       5.246   4.916  16.743  0.00  0.00    +0.000 A 
ATOM     32  C   UNL     1       4.598   6.025  17.311  0.00  0.00    +0.000 A 
ATOM     33  C   UNL     1       3.263   5.940  17.845  0.00  0.00    +0.000 A 
BRANCH  28  35
ATOM     34  C   UNL     1       1.332   3.597  19.485  0.00  0.00    +0.000 C 
ATOM     35  O   UNL     1       1.414   4.466  18.353  0.00  0.00    +0.000 OA
ENDBRANCH  28  35
BRANCH  32  36
ATOM     36  O   UNL     1       5.300   7.206  17.457  0.00  0.00    +0.000 OA
ATOM     37  C   UNL     1       6.722   7.106  17.391  0.00  0.00    +0.000 C 
ENDBRANCH  32  36
ENDBRANCH  22  33
ENDBRANCH  21  25
ENDBRANCH   1  21
TORSDOF 10
ENDMDL
