MODEL 1
REMARK VINA RESULT:      -6.9      0.000      0.000
REMARK  Name = 
REMARK  6 active torsions:
REMARK  status: ('A' for Active; 'I' for Inactive)
REMARK    1  A    between atoms: C_1  and  O_2
REMARK    2  A    between atoms: O_2  and  C_3
REMARK    3  A    between atoms: C_3  and  C_5
REMARK    4  A    between atoms: C_22  and  C_23
REMARK    5  A    between atoms: C_26  and  O_27
REMARK    6  A    between atoms: C_31  and  C_32
REMARK                            x       y       z     vdW  Elec       q    Type
REMARK                         _______ _______ _______ _____ _____    ______ ____
ROOT
ATOM      1  C   UNL     1       2.122  15.981  20.680  0.00  0.00    +0.000 A 
ATOM      2  S   UNL     1       0.452  16.299  20.737  0.00  0.00    +0.000 S 
ATOM      3  C   UNL     1       0.170  14.874  21.649  0.00  0.00    +0.000 A 
ATOM      4  N   UNL     1      -1.140  14.522  21.960  0.00  0.00    +0.000 N 
ATOM      5  C   UNL     1      -2.079  15.538  22.146  0.00  0.00    +0.000 C 
ATOM      6  O   UNL     1      -2.009  16.754  22.067  0.00  0.00    +0.000 OA
ATOM      7  C   UNL     1      -3.308  14.885  22.628  0.00  0.00    +0.000 A 
ATOM      8  O   UNL     1      -4.430  15.606  22.807  0.00  0.00    +0.000 OA
ATOM      9  C   UNL     1      -5.536  14.905  23.178  0.00  0.00    +0.000 A 
ATOM     10  C   UNL     1      -6.756  15.566  23.068  0.00  0.00    +0.000 A 
ATOM     11  C   UNL     1      -7.900  14.975  23.586  0.00  0.00    +0.000 A 
ATOM     12  C   UNL     1      -7.800  13.744  24.239  0.00  0.00    +0.000 A 
ATOM     13  C   UNL     1      -6.577  13.052  24.282  0.00  0.00    +0.000 A 
ATOM     14  C   UNL     1      -5.439  13.612  23.690  0.00  0.00    +0.000 A 
ATOM     15  C   UNL     1      -4.143  12.873  23.541  0.00  0.00    +0.000 A 
ATOM     16  O   UNL     1      -4.018  11.749  23.988  0.00  0.00    +0.000 OA
ATOM     17  C   UNL     1      -3.055  13.575  22.825  0.00  0.00    +0.000 A 
ATOM     18  C   UNL     1      -1.801  13.225  22.073  0.00  0.00    +0.000 C 
ATOM     19  N   UNL     1       1.254  14.170  21.889  0.00  0.00    +0.000 NA
ATOM     20  C   UNL     1       2.384  14.810  21.371  0.00  0.00    +0.000 A 
ATOM     21  C   UNL     1       3.708  14.167  21.591  0.00  0.00    +0.000 C 
ENDROOT
BRANCH  18  22
ATOM     22  C   UNL     1      -1.031  11.911  22.005  0.00  0.00    +0.000 A 
ATOM     23  C   UNL     1      -0.842  11.021  23.069  0.00  0.00    +0.000 A 
ATOM     24  C   UNL     1      -0.368   9.709  22.850  0.00  0.00    +0.000 A 
ATOM     25  C   UNL     1      -0.040   9.281  21.568  0.00  0.00    +0.000 A 
ATOM     26  C   UNL     1      -0.173  10.142  20.500  0.00  0.00    +0.000 A 
ATOM     27  C   UNL     1      -0.684  11.422  20.718  0.00  0.00    +0.000 A 
BRANCH  25  28
ATOM     28  O   UNL     1       0.389   8.015  21.306  0.00  0.00    +0.000 OA
ATOM     29  H   UNL     1       0.861   7.677  22.084  0.00  0.00    +0.000 HD
ENDBRANCH  25  28
ENDBRANCH  18  22
BRANCH   1  30
ATOM     30  C   UNL     1       2.965  16.912  19.959  0.00  0.00    +0.000 C 
ATOM     31  O   UNL     1       3.254  18.047  20.314  0.00  0.00    +0.000 OA
BRANCH  30  33
ATOM     32  C   UNL     1       4.816  16.289  18.671  0.00  0.00    +0.000 C 
ATOM     33  O   UNL     1       3.393  16.362  18.787  0.00  0.00    +0.000 OA
ENDBRANCH  30  33
ENDBRANCH   1  30
TORSDOF 4
ENDMDL
MODEL 2
REMARK VINA RESULT:      -6.8      1.118      1.297
REMARK  Name = 
REMARK  6 active torsions:
REMARK  status: ('A' for Active; 'I' for Inactive)
REMARK    1  A    between atoms: C_1  and  O_2
REMARK    2  A    between atoms: O_2  and  C_3
REMARK    3  A    between atoms: C_3  and  C_5
REMARK    4  A    between atoms: C_22  and  C_23
REMARK    5  A    between atoms: C_26  and  O_27
REMARK    6  A    between atoms: C_31  and  C_32
REMARK                            x       y       z     vdW  Elec       q    Type
REMARK                         _______ _______ _______ _____ _____    ______ ____
ROOT
ATOM      1  C   UNL     1       1.662  15.788  19.272  0.00  0.00    +0.000 A 
ATOM      2  S   UNL     1      -0.014  16.013  19.464  0.00  0.00    +0.000 S 
ATOM      3  C   UNL     1      -0.096  14.737  20.608  0.00  0.00    +0.000 A 
ATOM      4  N   UNL     1      -1.338  14.364  21.110  0.00  0.00    +0.000 N 
ATOM      5  C   UNL     1      -2.328  15.340  21.242  0.00  0.00    +0.000 C 
ATOM      6  O   UNL     1      -2.357  16.530  20.972  0.00  0.00    +0.000 OA
ATOM      7  C   UNL     1      -3.450  14.702  21.951  0.00  0.00    +0.000 A 
ATOM      8  O   UNL     1      -4.599  15.376  22.140  0.00  0.00    +0.000 OA
ATOM      9  C   UNL     1      -5.606  14.680  22.733  0.00  0.00    +0.000 A 
ATOM     10  C   UNL     1      -6.877  15.244  22.659  0.00  0.00    +0.000 A 
ATOM     11  C   UNL     1      -7.917  14.677  23.384  0.00  0.00    +0.000 A 
ATOM     12  C   UNL     1      -7.661  13.573  24.202  0.00  0.00    +0.000 A 
ATOM     13  C   UNL     1      -6.391  12.969  24.214  0.00  0.00    +0.000 A 
ATOM     14  C   UNL     1      -5.363  13.493  23.422  0.00  0.00    +0.000 A 
ATOM     15  C   UNL     1      -4.037  12.816  23.246  0.00  0.00    +0.000 A 
ATOM     16  O   UNL     1      -3.785  11.787  23.842  0.00  0.00    +0.000 OA
ATOM     17  C   UNL     1      -3.082  13.457  22.316  0.00  0.00    +0.000 A 
ATOM     18  C   UNL     1      -1.886  13.066  21.492  0.00  0.00    +0.000 C 
ATOM     19  N   UNL     1       1.056  14.145  20.831  0.00  0.00    +0.000 NA
ATOM     20  C   UNL     1       2.078  14.759  20.100  0.00  0.00    +0.000 A 
ATOM     21  C   UNL     1       3.462  14.237  20.268  0.00  0.00    +0.000 C 
ENDROOT
BRANCH  18  22
ATOM     22  C   UNL     1      -1.031  11.805  21.541  0.00  0.00    +0.000 A 
ATOM     23  C   UNL     1      -0.644  11.125  22.702  0.00  0.00    +0.000 A 
ATOM     24  C   UNL     1      -0.101   9.824  22.643  0.00  0.00    +0.000 A 
ATOM     25  C   UNL     1       0.100   9.198  21.417  0.00  0.00    +0.000 A 
ATOM     26  C   UNL     1      -0.229   9.850  20.248  0.00  0.00    +0.000 A 
ATOM     27  C   UNL     1      -0.807  11.118  20.317  0.00  0.00    +0.000 A 
BRANCH  25  28
ATOM     28  O   UNL     1       0.590   7.931  21.314  0.00  0.00    +0.000 OA
ATOM     29  H   UNL     1       0.698   7.712  20.375  0.00  0.00    +0.000 HD
ENDBRANCH  25  28
ENDBRANCH  18  22
BRANCH   1  30
ATOM     30  C   UNL     1       2.357  16.639  18.329  0.00  0.00    +0.000 C 
ATOM     31  O   UNL     1       3.367  16.348  17.702  0.00  0.00    +0.000 OA
BRANCH  30  33
ATOM     32  C   UNL     1       1.322  18.189  16.914  0.00  0.00    +0.000 C 
ATOM     33  O   UNL     1       1.744  17.854  18.239  0.00  0.00    +0.000 OA
ENDBRANCH  30  33
ENDBRANCH   1  30
TORSDOF 4
ENDMDL
MODEL 3
REMARK VINA RESULT:      -6.7      7.354     11.859
REMARK  Name = 
REMARK  6 active torsions:
REMARK  status: ('A' for Active; 'I' for Inactive)
REMARK    1  A    between atoms: C_1  and  O_2
REMARK    2  A    between atoms: O_2  and  C_3
REMARK    3  A    between atoms: C_3  and  C_5
REMARK    4  A    between atoms: C_22  and  C_23
REMARK    5  A    between atoms: C_26  and  O_27
REMARK    6  A    between atoms: C_31  and  C_32
REMARK                            x       y       z     vdW  Elec       q    Type
REMARK                         _______ _______ _______ _____ _____    ______ ____
ROOT
ATOM      1  C   UNL     1       5.283  11.999  26.424  0.00  0.00    +0.000 A 
ATOM      2  S   UNL     1       6.061  11.340  25.061  0.00  0.00    +0.000 S 
ATOM      3  C   UNL     1       6.381  12.905  24.435  0.00  0.00    +0.000 A 
ATOM      4  N   UNL     1       6.981  13.019  23.186  0.00  0.00    +0.000 N 
ATOM      5  C   UNL     1       7.875  12.026  22.779  0.00  0.00    +0.000 C 
ATOM      6  O   UNL     1       8.256  10.992  23.303  0.00  0.00    +0.000 OA
ATOM      7  C   UNL     1       8.474  12.497  21.518  0.00  0.00    +0.000 A 
ATOM      8  O   UNL     1       9.313  11.700  20.832  0.00  0.00    +0.000 OA
ATOM      9  C   UNL     1       9.755  12.187  19.640  0.00  0.00    +0.000 A 
ATOM     10  C   UNL     1      10.361  11.273  18.783  0.00  0.00    +0.000 A 
ATOM     11  C   UNL     1      10.984  11.731  17.630  0.00  0.00    +0.000 A 
ATOM     12  C   UNL     1      11.022  13.104  17.370  0.00  0.00    +0.000 A 
ATOM     13  C   UNL     1      10.345  14.011  18.204  0.00  0.00    +0.000 A 
ATOM     14  C   UNL     1       9.650  13.540  19.324  0.00  0.00    +0.000 A 
ATOM     15  C   UNL     1       8.766  14.411  20.166  0.00  0.00    +0.000 A 
ATOM     16  O   UNL     1       8.662  15.599  19.929  0.00  0.00    +0.000 OA
ATOM     17  C   UNL     1       8.040  13.749  21.272  0.00  0.00    +0.000 A 
ATOM     18  C   UNL     1       6.812  13.989  22.107  0.00  0.00    +0.000 C 
ATOM     19  N   UNL     1       5.917  13.883  25.181  0.00  0.00    +0.000 NA
ATOM     20  C   UNL     1       5.318  13.381  26.340  0.00  0.00    +0.000 A 
ATOM     21  C   UNL     1       4.775  14.360  27.321  0.00  0.00    +0.000 C 
ENDROOT
BRANCH  18  22
ATOM     22  C   UNL     1       5.964  15.245  22.269  0.00  0.00    +0.000 A 
ATOM     23  C   UNL     1       6.450  16.525  22.562  0.00  0.00    +0.000 A 
ATOM     24  C   UNL     1       5.636  17.668  22.413  0.00  0.00    +0.000 A 
ATOM     25  C   UNL     1       4.312  17.545  22.004  0.00  0.00    +0.000 A 
ATOM     26  C   UNL     1       3.784  16.298  21.746  0.00  0.00    +0.000 A 
ATOM     27  C   UNL     1       4.608  15.177  21.852  0.00  0.00    +0.000 A 
BRANCH  25  28
ATOM     28  O   UNL     1       3.501  18.623  21.815  0.00  0.00    +0.000 OA
ATOM     29  H   UNL     1       3.515  18.865  20.875  0.00  0.00    +0.000 HD
ENDBRANCH  25  28
ENDBRANCH  18  22
BRANCH   1  30
ATOM     30  C   UNL     1       4.731  11.082  27.398  0.00  0.00    +0.000 C 
ATOM     31  O   UNL     1       3.571  11.059  27.791  0.00  0.00    +0.000 OA
BRANCH  30  33
ATOM     32  C   UNL     1       6.666  10.869  28.695  0.00  0.00    +0.000 C 
ATOM     33  O   UNL     1       5.694  10.235  27.860  0.00  0.00    +0.000 OA
ENDBRANCH  30  33
ENDBRANCH   1  30
TORSDOF 4
ENDMDL
MODEL 4
REMARK VINA RESULT:      -6.7      0.566      1.015
REMARK  Name = 
REMARK  6 active torsions:
REMARK  status: ('A' for Active; 'I' for Inactive)
REMARK    1  A    between atoms: C_1  and  O_2
REMARK    2  A    between atoms: O_2  and  C_3
REMARK    3  A    between atoms: C_3  and  C_5
REMARK    4  A    between atoms: C_22  and  C_23
REMARK    5  A    between atoms: C_26  and  O_27
REMARK    6  A    between atoms: C_31  and  C_32
REMARK                            x       y       z     vdW  Elec       q    Type
REMARK                         _______ _______ _______ _____ _____    ______ ____
ROOT
ATOM      1  C   UNL     1       2.110  15.852  20.421  0.00  0.00    +0.000 A 
ATOM      2  S   UNL     1       0.452  16.211  20.550  0.00  0.00    +0.000 S 
ATOM      3  C   UNL     1       0.168  14.776  21.445  0.00  0.00    +0.000 A 
ATOM      4  N   UNL     1      -1.137  14.451  21.799  0.00  0.00    +0.000 N 
ATOM      5  C   UNL     1      -2.042  15.486  22.042  0.00  0.00    +0.000 C 
ATOM      6  O   UNL     1      -1.943  16.701  21.985  0.00  0.00    +0.000 OA
ATOM      7  C   UNL     1      -3.268  14.855  22.560  0.00  0.00    +0.000 A 
ATOM      8  O   UNL     1      -4.362  15.600  22.797  0.00  0.00    +0.000 OA
ATOM      9  C   UNL     1      -5.471  14.920  23.197  0.00  0.00    +0.000 A 
ATOM     10  C   UNL     1      -6.676  15.615  23.149  0.00  0.00    +0.000 A 
ATOM     11  C   UNL     1      -7.814  15.042  23.699  0.00  0.00    +0.000 A 
ATOM     12  C   UNL     1      -7.722  13.796  24.324  0.00  0.00    +0.000 A 
ATOM     13  C   UNL     1      -6.516  13.072  24.305  0.00  0.00    +0.000 A 
ATOM     14  C   UNL     1      -5.388  13.615  23.680  0.00  0.00    +0.000 A 
ATOM     15  C   UNL     1      -4.119  12.847  23.465  0.00  0.00    +0.000 A 
ATOM     16  O   UNL     1      -4.006  11.711  23.885  0.00  0.00    +0.000 OA
ATOM     17  C   UNL     1      -3.042  13.535  22.721  0.00  0.00    +0.000 A 
ATOM     18  C   UNL     1      -1.827  13.169  21.913  0.00  0.00    +0.000 C 
ATOM     19  N   UNL     1       1.242  14.040  21.628  0.00  0.00    +0.000 NA
ATOM     20  C   UNL     1       2.368  14.661  21.078  0.00  0.00    +0.000 A 
ATOM     21  C   UNL     1       3.682  13.980  21.233  0.00  0.00    +0.000 C 
ENDROOT
BRANCH  18  22
ATOM     22  C   UNL     1      -1.095  11.838  21.789  0.00  0.00    +0.000 A 
ATOM     23  C   UNL     1      -0.416  11.383  20.653  0.00  0.00    +0.000 A 
ATOM     24  C   UNL     1       0.464  10.281  20.718  0.00  0.00    +0.000 A 
ATOM     25  C   UNL     1       0.648   9.594  21.913  0.00  0.00    +0.000 A 
ATOM     26  C   UNL     1      -0.034   9.985  23.045  0.00  0.00    +0.000 A 
ATOM     27  C   UNL     1      -0.868  11.103  22.984  0.00  0.00    +0.000 A 
BRANCH  25  28
ATOM     28  O   UNL     1       1.512   8.547  22.030  0.00  0.00    +0.000 OA
ATOM     29  H   UNL     1       1.678   8.381  22.972  0.00  0.00    +0.000 HD
ENDBRANCH  25  28
ENDBRANCH  18  22
BRANCH   1  30
ATOM     30  C   UNL     1       2.948  16.776  19.686  0.00  0.00    +0.000 C 
ATOM     31  O   UNL     1       3.220  17.923  20.017  0.00  0.00    +0.000 OA
BRANCH  30  33
ATOM     32  C   UNL     1       2.929  16.859  17.348  0.00  0.00    +0.000 C 
ATOM     33  O   UNL     1       3.394  16.205  18.531  0.00  0.00    +0.000 OA
ENDBRANCH  30  33
ENDBRANCH   1  30
TORSDOF 4
ENDMDL
MODEL 5
REMARK VINA RESULT:      -6.7      2.552      7.963
REMARK  Name = 
REMARK  6 active torsions:
REMARK  status: ('A' for Active; 'I' for Inactive)
REMARK    1  A    between atoms: C_1  and  O_2
REMARK    2  A    between atoms: O_2  and  C_3
REMARK    3  A    between atoms: C_3  and  C_5
REMARK    4  A    between atoms: C_22  and  C_23
REMARK    5  A    between atoms: C_26  and  O_27
REMARK    6  A    between atoms: C_31  and  C_32
REMARK                            x       y       z     vdW  Elec       q    Type
REMARK                         _______ _______ _______ _____ _____    ______ ____
ROOT
ATOM      1  C   UNL     1      -4.333  12.875  22.866  0.00  0.00    +0.000 A 
ATOM      2  S   UNL     1      -2.740  13.235  23.341  0.00  0.00    +0.000 S 
ATOM      3  C   UNL     1      -2.195  13.170  21.716  0.00  0.00    +0.000 A 
ATOM      4  N   UNL     1      -0.837  13.319  21.455  0.00  0.00    +0.000 N 
ATOM      5  C   UNL     1      -0.079  14.132  22.300  0.00  0.00    +0.000 C 
ATOM      6  O   UNL     1      -0.356  14.768  23.304  0.00  0.00    +0.000 OA
ATOM      7  C   UNL     1       1.256  14.240  21.687  0.00  0.00    +0.000 A 
ATOM      8  O   UNL     1       2.243  14.890  22.328  0.00  0.00    +0.000 OA
ATOM      9  C   UNL     1       3.461  14.871  21.723  0.00  0.00    +0.000 A 
ATOM     10  C   UNL     1       4.548  15.260  22.501  0.00  0.00    +0.000 A 
ATOM     11  C   UNL     1       5.789  15.425  21.903  0.00  0.00    +0.000 A 
ATOM     12  C   UNL     1       5.918  15.234  20.525  0.00  0.00    +0.000 A 
ATOM     13  C   UNL     1       4.832  14.772  19.761  0.00  0.00    +0.000 A 
ATOM     14  C   UNL     1       3.600  14.529  20.379  0.00  0.00    +0.000 A 
ATOM     15  C   UNL     1       2.444  13.879  19.678  0.00  0.00    +0.000 A 
ATOM     16  O   UNL     1       2.524  13.580  18.502  0.00  0.00    +0.000 OA
ATOM     17  C   UNL     1       1.234  13.621  20.489  0.00  0.00    +0.000 A 
ATOM     18  C   UNL     1       0.037  12.711  20.457  0.00  0.00    +0.000 C 
ATOM     19  N   UNL     1      -3.137  12.873  20.849  0.00  0.00    +0.000 NA
ATOM     20  C   UNL     1      -4.374  12.736  21.489  0.00  0.00    +0.000 A 
ATOM     21  C   UNL     1      -5.563  12.439  20.644  0.00  0.00    +0.000 C 
ENDROOT
BRANCH  18  22
ATOM     22  C   UNL     1      -0.500  11.834  19.332  0.00  0.00    +0.000 A 
ATOM     23  C   UNL     1      -0.669  10.446  19.389  0.00  0.00    +0.000 A 
ATOM     24  C   UNL     1      -1.430   9.760  18.418  0.00  0.00    +0.000 A 
ATOM     25  C   UNL     1      -2.002  10.449  17.353  0.00  0.00    +0.000 A 
ATOM     26  C   UNL     1      -1.823  11.811  17.238  0.00  0.00    +0.000 A 
ATOM     27  C   UNL     1      -1.107  12.488  18.227  0.00  0.00    +0.000 A 
BRANCH  25  28
ATOM     28  O   UNL     1      -2.770   9.834  16.412  0.00  0.00    +0.000 OA
ATOM     29  H   UNL     1      -3.682   9.775  16.741  0.00  0.00    +0.000 HD
ENDBRANCH  25  28
ENDBRANCH  18  22
BRANCH   1  30
ATOM     30  C   UNL     1      -5.341  12.765  23.899  0.00  0.00    +0.000 C 
ATOM     31  O   UNL     1      -5.425  11.873  24.733  0.00  0.00    +0.000 OA
BRANCH  30  33
ATOM     32  C   UNL     1      -7.596  13.382  23.829  0.00  0.00    +0.000 C 
ATOM     33  O   UNL     1      -6.228  13.797  23.814  0.00  0.00    +0.000 OA
ENDBRANCH  30  33
ENDBRANCH   1  30
TORSDOF 4
ENDMDL
MODEL 6
REMARK VINA RESULT:      -6.5      6.460      9.387
REMARK  Name = 
REMARK  6 active torsions:
REMARK  status: ('A' for Active; 'I' for Inactive)
REMARK    1  A    between atoms: C_1  and  O_2
REMARK    2  A    between atoms: O_2  and  C_3
REMARK    3  A    between atoms: C_3  and  C_5
REMARK    4  A    between atoms: C_22  and  C_23
REMARK    5  A    between atoms: C_26  and  O_27
REMARK    6  A    between atoms: C_31  and  C_32
REMARK                            x       y       z     vdW  Elec       q    Type
REMARK                         _______ _______ _______ _____ _____    ______ ____
ROOT
ATOM      1  C   UNL     1       5.640   5.463  16.075  0.00  0.00    +0.000 A 
ATOM      2  S   UNL     1       4.478   6.706  16.056  0.00  0.00    +0.000 S 
ATOM      3  C   UNL     1       4.083   6.418  17.700  0.00  0.00    +0.000 A 
ATOM      4  N   UNL     1       3.044   7.140  18.278  0.00  0.00    +0.000 N 
ATOM      5  C   UNL     1       2.806   8.442  17.832  0.00  0.00    +0.000 C 
ATOM      6  O   UNL     1       3.326   9.129  16.969  0.00  0.00    +0.000 OA
ATOM      7  C   UNL     1       1.785   9.009  18.730  0.00  0.00    +0.000 A 
ATOM      8  O   UNL     1       1.278  10.231  18.489  0.00  0.00    +0.000 OA
ATOM      9  C   UNL     1       0.284  10.639  19.324  0.00  0.00    +0.000 A 
ATOM     10  C   UNL     1      -0.456  11.745  18.915  0.00  0.00    +0.000 A 
ATOM     11  C   UNL     1      -1.369  12.316  19.791  0.00  0.00    +0.000 A 
ATOM     12  C   UNL     1      -1.501  11.794  21.081  0.00  0.00    +0.000 A 
ATOM     13  C   UNL     1      -0.801  10.634  21.460  0.00  0.00    +0.000 A 
ATOM     14  C   UNL     1       0.060  10.012  20.549  0.00  0.00    +0.000 A 
ATOM     15  C   UNL     1       0.711   8.686  20.809  0.00  0.00    +0.000 A 
ATOM     16  O   UNL     1       0.549   8.117  21.871  0.00  0.00    +0.000 OA
ATOM     17  C   UNL     1       1.534   8.124  19.716  0.00  0.00    +0.000 A 
ATOM     18  C   UNL     1       2.039   6.778  19.273  0.00  0.00    +0.000 C 
ATOM     19  N   UNL     1       4.757   5.431  18.246  0.00  0.00    +0.000 NA
ATOM     20  C   UNL     1       5.678   4.898  17.338  0.00  0.00    +0.000 A 
ATOM     21  C   UNL     1       6.559   3.795  17.810  0.00  0.00    +0.000 C 
ENDROOT
BRANCH  18  22
ATOM     22  C   UNL     1       2.074   5.449  20.018  0.00  0.00    +0.000 A 
ATOM     23  C   UNL     1       2.712   5.216  21.242  0.00  0.00    +0.000 A 
ATOM     24  C   UNL     1       2.456   4.047  21.990  0.00  0.00    +0.000 A 
ATOM     25  C   UNL     1       1.588   3.074  21.507  0.00  0.00    +0.000 A 
ATOM     26  C   UNL     1       0.972   3.247  20.285  0.00  0.00    +0.000 A 
ATOM     27  C   UNL     1       1.195   4.426  19.573  0.00  0.00    +0.000 A 
BRANCH  25  28
ATOM     28  O   UNL     1       1.286   1.947  22.209  0.00  0.00    +0.000 OA
ATOM     29  H   UNL     1       0.395   2.040  22.583  0.00  0.00    +0.000 HD
ENDBRANCH  25  28
ENDBRANCH  18  22
BRANCH   1  30
ATOM     30  C   UNL     1       6.363   5.191  14.850  0.00  0.00    +0.000 C 
ATOM     31  O   UNL     1       7.495   5.570  14.580  0.00  0.00    +0.000 OA
BRANCH  30  33
ATOM     32  C   UNL     1       6.351   3.736  13.018  0.00  0.00    +0.000 C 
ATOM     33  O   UNL     1       5.595   4.458  13.994  0.00  0.00    +0.000 OA
ENDBRANCH  30  33
ENDBRANCH   1  30
TORSDOF 4
ENDMDL
MODEL 7
REMARK VINA RESULT:      -6.5      3.040      6.672
REMARK  Name = 
REMARK  6 active torsions:
REMARK  status: ('A' for Active; 'I' for Inactive)
REMARK    1  A    between atoms: C_1  and  O_2
REMARK    2  A    between atoms: O_2  and  C_3
REMARK    3  A    between atoms: C_3  and  C_5
REMARK    4  A    between atoms: C_22  and  C_23
REMARK    5  A    between atoms: C_26  and  O_27
REMARK    6  A    between atoms: C_31  and  C_32
REMARK                            x       y       z     vdW  Elec       q    Type
REMARK                         _______ _______ _______ _____ _____    ______ ____
ROOT
ATOM      1  C   UNL     1       1.827   7.718  20.009  0.00  0.00    +0.000 A 
ATOM      2  S   UNL     1       1.072   8.515  21.309  0.00  0.00    +0.000 S 
ATOM      3  C   UNL     1       0.969   9.972  20.411  0.00  0.00    +0.000 A 
ATOM      4  N   UNL     1       0.468  11.111  21.033  0.00  0.00    +0.000 N 
ATOM      5  C   UNL     1      -0.502  10.960  22.026  0.00  0.00    +0.000 C 
ATOM      6  O   UNL     1      -1.029   9.978  22.525  0.00  0.00    +0.000 OA
ATOM      7  C   UNL     1      -0.962  12.316  22.369  0.00  0.00    +0.000 A 
ATOM      8  O   UNL     1      -1.837  12.498  23.374  0.00  0.00    +0.000 OA
ATOM      9  C   UNL     1      -2.144  13.790  23.670  0.00  0.00    +0.000 A 
ATOM     10  C   UNL     1      -2.791  14.012  24.883  0.00  0.00    +0.000 A 
ATOM     11  C   UNL     1      -3.283  15.278  25.170  0.00  0.00    +0.000 A 
ATOM     12  C   UNL     1      -3.152  16.296  24.223  0.00  0.00    +0.000 A 
ATOM     13  C   UNL     1      -2.434  16.080  23.033  0.00  0.00    +0.000 A 
ATOM     14  C   UNL     1      -1.870  14.825  22.778  0.00  0.00    +0.000 A 
ATOM     15  C   UNL     1      -0.952  14.557  21.623  0.00  0.00    +0.000 A 
ATOM     16  O   UNL     1      -0.702  15.432  20.817  0.00  0.00    +0.000 OA
ATOM     17  C   UNL     1      -0.377  13.198  21.533  0.00  0.00    +0.000 A 
ATOM     18  C   UNL     1       0.813  12.524  20.906  0.00  0.00    +0.000 C 
ATOM     19  N   UNL     1       1.488   9.895  19.206  0.00  0.00    +0.000 NA
ATOM     20  C   UNL     1       1.952   8.600  18.949  0.00  0.00    +0.000 A 
ATOM     21  C   UNL     1       2.535   8.326  17.607  0.00  0.00    +0.000 C 
ENDROOT
BRANCH  18  22
ATOM     22  C   UNL     1       1.782  13.032  19.844  0.00  0.00    +0.000 A 
ATOM     23  C   UNL     1       1.534  13.076  18.467  0.00  0.00    +0.000 A 
ATOM     24  C   UNL     1       2.364  13.817  17.598  0.00  0.00    +0.000 A 
ATOM     25  C   UNL     1       3.476  14.493  18.087  0.00  0.00    +0.000 A 
ATOM     26  C   UNL     1       3.778  14.440  19.431  0.00  0.00    +0.000 A 
ATOM     27  C   UNL     1       2.928  13.743  20.292  0.00  0.00    +0.000 A 
BRANCH  25  28
ATOM     28  O   UNL     1       4.284  15.247  17.291  0.00  0.00    +0.000 OA
ATOM     29  H   UNL     1       4.968  14.675  16.908  0.00  0.00    +0.000 HD
ENDBRANCH  25  28
ENDBRANCH  18  22
BRANCH   1  30
ATOM     30  C   UNL     1       2.211   6.334  20.192  0.00  0.00    +0.000 C 
ATOM     31  O   UNL     1       3.278   5.832  19.866  0.00  0.00    +0.000 OA
BRANCH  30  33
ATOM     32  C   UNL     1       1.386   4.212  20.729  0.00  0.00    +0.000 C 
ATOM     33  O   UNL     1       1.197   5.629  20.770  0.00  0.00    +0.000 OA
ENDBRANCH  30  33
ENDBRANCH   1  30
TORSDOF 4
ENDMDL
MODEL 8
REMARK VINA RESULT:      -6.4      0.677      1.268
REMARK  Name = 
REMARK  6 active torsions:
REMARK  status: ('A' for Active; 'I' for Inactive)
REMARK    1  A    between atoms: C_1  and  O_2
REMARK    2  A    between atoms: O_2  and  C_3
REMARK    3  A    between atoms: C_3  and  C_5
REMARK    4  A    between atoms: C_22  and  C_23
REMARK    5  A    between atoms: C_26  and  O_27
REMARK    6  A    between atoms: C_31  and  C_32
REMARK                            x       y       z     vdW  Elec       q    Type
REMARK                         _______ _______ _______ _____ _____    ______ ____
ROOT
ATOM      1  C   UNL     1       2.350  15.937  20.846  0.00  0.00    +0.000 A 
ATOM      2  S   UNL     1       0.696  16.324  20.934  0.00  0.00    +0.000 S 
ATOM      3  C   UNL     1       0.348  14.843  21.727  0.00  0.00    +0.000 A 
ATOM      4  N   UNL     1      -0.976  14.527  22.010  0.00  0.00    +0.000 N 
ATOM      5  C   UNL     1      -1.869  15.566  22.282  0.00  0.00    +0.000 C 
ATOM      6  O   UNL     1      -1.743  16.779  22.303  0.00  0.00    +0.000 OA
ATOM      7  C   UNL     1      -3.127  14.932  22.712  0.00  0.00    +0.000 A 
ATOM      8  O   UNL     1      -4.214  15.686  22.952  0.00  0.00    +0.000 OA
ATOM      9  C   UNL     1      -5.351  15.008  23.267  0.00  0.00    +0.000 A 
ATOM     10  C   UNL     1      -6.540  15.731  23.215  0.00  0.00    +0.000 A 
ATOM     11  C   UNL     1      -7.710  15.152  23.685  0.00  0.00    +0.000 A 
ATOM     12  C   UNL     1      -7.668  13.868  24.235  0.00  0.00    +0.000 A 
ATOM     13  C   UNL     1      -6.477  13.119  24.217  0.00  0.00    +0.000 A 
ATOM     14  C   UNL     1      -5.315  13.674  23.671  0.00  0.00    +0.000 A 
ATOM     15  C   UNL     1      -4.053  12.892  23.458  0.00  0.00    +0.000 A 
ATOM     16  O   UNL     1      -3.980  11.731  23.811  0.00  0.00    +0.000 OA
ATOM     17  C   UNL     1      -2.934  13.600  22.800  0.00  0.00    +0.000 A 
ATOM     18  C   UNL     1      -1.696  13.257  22.018  0.00  0.00    +0.000 C 
ATOM     19  N   UNL     1       1.399  14.074  21.905  0.00  0.00    +0.000 NA
ATOM     20  C   UNL     1       2.558  14.702  21.438  0.00  0.00    +0.000 A 
ATOM     21  C   UNL     1       3.851  13.983  21.601  0.00  0.00    +0.000 C 
ENDROOT
BRANCH  18  22
ATOM     22  C   UNL     1      -0.987  11.919  21.840  0.00  0.00    +0.000 A 
ATOM     23  C   UNL     1      -0.246  11.531  20.718  0.00  0.00    +0.000 A 
ATOM     24  C   UNL     1       0.604  10.405  20.754  0.00  0.00    +0.000 A 
ATOM     25  C   UNL     1       0.696   9.627  21.904  0.00  0.00    +0.000 A 
ATOM     26  C   UNL     1      -0.049   9.952  23.017  0.00  0.00    +0.000 A 
ATOM     27  C   UNL     1      -0.852  11.093  22.988  0.00  0.00    +0.000 A 
BRANCH  25  28
ATOM     28  O   UNL     1       1.528   8.552  21.995  0.00  0.00    +0.000 OA
ATOM     29  H   UNL     1       2.004   8.595  22.839  0.00  0.00    +0.000 HD
ENDBRANCH  25  28
ENDBRANCH  18  22
BRANCH   1  30
ATOM     30  C   UNL     1       3.236  16.885  20.203  0.00  0.00    +0.000 C 
ATOM     31  O   UNL     1       3.175  17.252  19.037  0.00  0.00    +0.000 OA
BRANCH  30  33
ATOM     32  C   UNL     1       3.959  18.631  21.581  0.00  0.00    +0.000 C 
ATOM     33  O   UNL     1       4.192  17.315  21.074  0.00  0.00    +0.000 OA
ENDBRANCH  30  33
ENDBRANCH   1  30
TORSDOF 4
ENDMDL
MODEL 9
REMARK VINA RESULT:      -6.3      2.527      8.040
REMARK  Name = 
REMARK  6 active torsions:
REMARK  status: ('A' for Active; 'I' for Inactive)
REMARK    1  A    between atoms: C_1  and  O_2
REMARK    2  A    between atoms: O_2  and  C_3
REMARK    3  A    between atoms: C_3  and  C_5
REMARK    4  A    between atoms: C_22  and  C_23
REMARK    5  A    between atoms: C_26  and  O_27
REMARK    6  A    between atoms: C_31  and  C_32
REMARK                            x       y       z     vdW  Elec       q    Type
REMARK                         _______ _______ _______ _____ _____    ______ ____
ROOT
ATOM      1  C   UNL     1      -3.365  13.022  23.062  0.00  0.00    +0.000 A 
ATOM      2  S   UNL     1      -1.710  13.385  23.211  0.00  0.00    +0.000 S 
ATOM      3  C   UNL     1      -1.483  13.245  21.517  0.00  0.00    +0.000 A 
ATOM      4  N   UNL     1      -0.199  13.367  20.998  0.00  0.00    +0.000 N 
ATOM      5  C   UNL     1       0.708  14.207  21.647  0.00  0.00    +0.000 C 
ATOM      6  O   UNL     1       0.628  14.888  22.656  0.00  0.00    +0.000 OA
ATOM      7  C   UNL     1       1.903  14.273  20.788  0.00  0.00    +0.000 A 
ATOM      8  O   UNL     1       2.996  14.939  21.202  0.00  0.00    +0.000 OA
ATOM      9  C   UNL     1       4.077  14.879  20.378  0.00  0.00    +0.000 A 
ATOM     10  C   UNL     1       5.293  15.289  20.919  0.00  0.00    +0.000 A 
ATOM     11  C   UNL     1       6.399  15.415  20.090  0.00  0.00    +0.000 A 
ATOM     12  C   UNL     1       6.263  15.163  18.722  0.00  0.00    +0.000 A 
ATOM     13  C   UNL     1       5.050  14.681  18.199  0.00  0.00    +0.000 A 
ATOM     14  C   UNL     1       3.957  14.479  19.049  0.00  0.00    +0.000 A 
ATOM     15  C   UNL     1       2.688  13.812  18.609  0.00  0.00    +0.000 A 
ATOM     16  O   UNL     1       2.543  13.463  17.453  0.00  0.00    +0.000 OA
ATOM     17  C   UNL     1       1.653  13.603  19.644  0.00  0.00    +0.000 A 
ATOM     18  C   UNL     1       0.469  12.706  19.880  0.00  0.00    +0.000 C 
ATOM     19  N   UNL     1      -2.574  12.921  20.858  0.00  0.00    +0.000 NA
ATOM     20  C   UNL     1      -3.667  12.825  21.725  0.00  0.00    +0.000 A 
ATOM     21  C   UNL     1      -4.995  12.506  21.135  0.00  0.00    +0.000 C 
ENDROOT
BRANCH  18  22
ATOM     22  C   UNL     1      -0.275  11.788  18.916  0.00  0.00    +0.000 A 
ATOM     23  C   UNL     1      -0.392  10.399  19.040  0.00  0.00    +0.000 A 
ATOM     24  C   UNL     1      -1.326   9.672  18.270  0.00  0.00    +0.000 A 
ATOM     25  C   UNL     1      -2.130  10.319  17.338  0.00  0.00    +0.000 A 
ATOM     26  C   UNL     1      -2.015  11.681  17.157  0.00  0.00    +0.000 A 
ATOM     27  C   UNL     1      -1.121  12.399  17.953  0.00  0.00    +0.000 A 
BRANCH  25  28
ATOM     28  O   UNL     1      -3.067   9.664  16.598  0.00  0.00    +0.000 OA
ATOM     29  H   UNL     1      -2.887   9.818  15.657  0.00  0.00    +0.000 HD
ENDBRANCH  25  28
ENDBRANCH  18  22
BRANCH   1  30
ATOM     30  C   UNL     1      -4.159  12.969  24.271  0.00  0.00    +0.000 C 
ATOM     31  O   UNL     1      -4.755  11.989  24.701  0.00  0.00    +0.000 OA
BRANCH  30  33
ATOM     32  C   UNL     1      -4.881  15.190  24.140  0.00  0.00    +0.000 C 
ATOM     33  O   UNL     1      -4.184  14.187  24.883  0.00  0.00    +0.000 OA
ENDBRANCH  30  33
ENDBRANCH   1  30
TORSDOF 4
ENDMDL
