MODEL 1
REMARK VINA RESULT:      -7.9      0.000      0.000
REMARK  Name = 
REMARK  12 active torsions:
REMARK  status: ('A' for Active; 'I' for Inactive)
REMARK    1  A    between atoms: C_1  and  C_2
REMARK    2  A    between atoms: C_2  and  O_3
REMARK    3  A    between atoms: O_3  and  C_4
REMARK    4  A    between atoms: C_4  and  C_6
REMARK    5  A    between atoms: C_11  and  N_12
REMARK    6  A    between atoms: N_12  and  C_13
REMARK    7  A    between atoms: C_13  and  C_14
REMARK    8  A    between atoms: C_18  and  C_19
REMARK    9  A    between atoms: C_22  and  N_23
REMARK   10  A    between atoms: C_24  and  C_26
REMARK   11  A    between atoms: C_29  and  O_30
REMARK   12  A    between atoms: O_30  and  C_31
REMARK                            x       y       z     vdW  Elec       q    Type
REMARK                         _______ _______ _______ _____ _____    ______ ____
ROOT
ATOM      1  C   UNL     1       3.022   4.549  17.979  0.00  0.00    +0.000 A 
ATOM      2  S   UNL     1       4.133   3.493  17.232  0.00  0.00    +0.000 S 
ATOM      3  C   UNL     1       5.358   4.688  17.162  0.00  0.00    +0.000 A 
ATOM      4  C   UNL     1       6.661   4.532  16.647  0.00  0.00    +0.000 A 
ATOM      5  C   UNL     1       7.528   5.632  16.626  0.00  0.00    +0.000 A 
ATOM      6  C   UNL     1       7.099   6.882  17.048  0.00  0.00    +0.000 A 
ATOM      7  C   UNL     1       5.815   6.992  17.589  0.00  0.00    +0.000 A 
ATOM      8  C   UNL     1       4.915   5.905  17.687  0.00  0.00    +0.000 A 
ATOM      9  C   UNL     1       3.571   5.805  18.211  0.00  0.00    +0.000 A 
ENDROOT
BRANCH   9  10
ATOM     10  N   UNL     1       2.805   6.781  18.860  0.00  0.00    +0.000 N 
ATOM     11  C   UNL     1       2.320   7.964  18.345  0.00  0.00    +0.000 C 
ATOM     12  O   UNL     1       2.517   8.453  17.241  0.00  0.00    +0.000 OA
ATOM     13  H   UNL     1       2.709   6.643  19.864  0.00  0.00    +0.000 HD
BRANCH  11  14
ATOM     14  C   UNL     1       1.475   8.733  19.292  0.00  0.00    +0.000 A 
ATOM     15  C   UNL     1       0.749   9.848  18.863  0.00  0.00    +0.000 A 
ATOM     16  C   UNL     1       0.006  10.579  19.787  0.00  0.00    +0.000 A 
ATOM     17  C   UNL     1      -0.043  10.187  21.127  0.00  0.00    +0.000 A 
ATOM     18  C   UNL     1       0.670   9.063  21.550  0.00  0.00    +0.000 A 
ATOM     19  C   UNL     1       1.423   8.329  20.629  0.00  0.00    +0.000 A 
BRANCH  17  20
ATOM     20  O   UNL     1      -0.787  11.005  21.932  0.00  0.00    +0.000 OA
ATOM     21  C   UNL     1      -0.367  12.361  21.990  0.00  0.00    +0.000 C 
ENDBRANCH  17  20
ENDBRANCH  11  14
ENDBRANCH   9  10
BRANCH   1  22
ATOM     22  C   UNL     1       1.701   4.102  18.394  0.00  0.00    +0.000 C 
ATOM     23  O   UNL     1       0.873   3.612  17.629  0.00  0.00    +0.000 OA
BRANCH  22  24
ATOM     24  O   UNL     1       1.458   4.386  19.704  0.00  0.00    +0.000 OA
BRANCH  24  26
ATOM     25  C   UNL     1       1.809   2.883  21.522  0.00  0.00    +0.000 C 
ATOM     26  C   UNL     1       0.829   3.341  20.457  0.00  0.00    +0.000 C 
ENDBRANCH  24  26
ENDBRANCH  22  24
ENDBRANCH   1  22
BRANCH   6  27
ATOM     27  N   UNL     1       7.905   8.017  17.145  0.00  0.00    +0.000 N 
ATOM     28  H   UNL     1       8.280   8.220  16.218  0.00  0.00    +0.000 HD
BRANCH  27  29
ATOM     29  C   UNL     1       7.387   9.235  17.766  0.00  0.00    +0.000 C 
BRANCH  29  30
ATOM     30  C   UNL     1       8.423  10.201  18.262  0.00  0.00    +0.000 A 
ATOM     31  N   UNL     1       9.414   9.791  19.129  0.00  0.00    +0.000 NA
ATOM     32  C   UNL     1      10.144  10.856  19.360  0.00  0.00    +0.000 A 
ATOM     33  N   UNL     1       9.670  11.944  18.687  0.00  0.00    +0.000 N 
ATOM     34  C   UNL     1       8.565  11.550  17.977  0.00  0.00    +0.000 A 
ATOM     35  C   UNL     1       7.777  12.473  17.126  0.00  0.00    +0.000 C 
ATOM     36  H   UNL     1      10.068  12.873  18.714  0.00  0.00    +0.000 HD
ENDBRANCH  29  30
ENDBRANCH  27  29
ENDBRANCH   6  27
TORSDOF 9
ENDMDL
MODEL 2
REMARK VINA RESULT:      -7.9      0.884      1.428
REMARK  Name = 
REMARK  12 active torsions:
REMARK  status: ('A' for Active; 'I' for Inactive)
REMARK    1  A    between atoms: C_1  and  C_2
REMARK    2  A    between atoms: C_2  and  O_3
REMARK    3  A    between atoms: O_3  and  C_4
REMARK    4  A    between atoms: C_4  and  C_6
REMARK    5  A    between atoms: C_11  and  N_12
REMARK    6  A    between atoms: N_12  and  C_13
REMARK    7  A    between atoms: C_13  and  C_14
REMARK    8  A    between atoms: C_18  and  C_19
REMARK    9  A    between atoms: C_22  and  N_23
REMARK   10  A    between atoms: C_24  and  C_26
REMARK   11  A    between atoms: C_29  and  O_30
REMARK   12  A    between atoms: O_30  and  C_31
REMARK                            x       y       z     vdW  Elec       q    Type
REMARK                         _______ _______ _______ _____ _____    ______ ____
ROOT
ATOM      1  C   UNL     1       3.089   4.863  17.961  0.00  0.00    +0.000 A 
ATOM      2  S   UNL     1       4.286   3.843  17.301  0.00  0.00    +0.000 S 
ATOM      3  C   UNL     1       5.466   5.084  17.295  0.00  0.00    +0.000 A 
ATOM      4  C   UNL     1       6.805   4.974  16.866  0.00  0.00    +0.000 A 
ATOM      5  C   UNL     1       7.629   6.107  16.887  0.00  0.00    +0.000 A 
ATOM      6  C   UNL     1       7.126   7.343  17.264  0.00  0.00    +0.000 A 
ATOM      7  C   UNL     1       5.806   7.409  17.720  0.00  0.00    +0.000 A 
ATOM      8  C   UNL     1       4.944   6.288  17.774  0.00  0.00    +0.000 A 
ATOM      9  C   UNL     1       3.574   6.141  18.213  0.00  0.00    +0.000 A 
ENDROOT
BRANCH   9  10
ATOM     10  N   UNL     1       2.731   7.093  18.799  0.00  0.00    +0.000 N 
ATOM     11  C   UNL     1       2.274   8.275  18.255  0.00  0.00    +0.000 C 
ATOM     12  O   UNL     1       2.566   8.785  17.183  0.00  0.00    +0.000 OA
ATOM     13  H   UNL     1       2.543   6.938  19.787  0.00  0.00    +0.000 HD
BRANCH  11  14
ATOM     14  C   UNL     1       1.328   9.014  19.129  0.00  0.00    +0.000 A 
ATOM     15  C   UNL     1       1.218   8.706  20.488  0.00  0.00    +0.000 A 
ATOM     16  C   UNL     1       0.285   9.382  21.270  0.00  0.00    +0.000 A 
ATOM     17  C   UNL     1      -0.513  10.385  20.715  0.00  0.00    +0.000 A 
ATOM     18  C   UNL     1      -0.388  10.704  19.360  0.00  0.00    +0.000 A 
ATOM     19  C   UNL     1       0.541  10.024  18.568  0.00  0.00    +0.000 A 
BRANCH  17  20
ATOM     20  O   UNL     1      -1.403  10.952  21.585  0.00  0.00    +0.000 OA
ATOM     21  C   UNL     1      -0.976  11.035  22.937  0.00  0.00    +0.000 C 
ENDBRANCH  17  20
ENDBRANCH  11  14
ENDBRANCH   9  10
BRANCH   1  22
ATOM     22  C   UNL     1       1.763   4.368  18.296  0.00  0.00    +0.000 C 
ATOM     23  O   UNL     1       0.912   4.072  17.461  0.00  0.00    +0.000 OA
BRANCH  22  24
ATOM     24  O   UNL     1       1.545   4.372  19.641  0.00  0.00    +0.000 OA
BRANCH  24  26
ATOM     25  C   UNL     1       1.625   2.980  21.576  0.00  0.00    +0.000 C 
ATOM     26  C   UNL     1       1.033   3.150  20.189  0.00  0.00    +0.000 C 
ENDBRANCH  24  26
ENDBRANCH  22  24
ENDBRANCH   1  22
BRANCH   6  27
ATOM     27  N   UNL     1       7.880   8.510  17.399  0.00  0.00    +0.000 N 
ATOM     28  H   UNL     1       7.306   9.296  17.096  0.00  0.00    +0.000 HD
BRANCH  27  29
ATOM     29  C   UNL     1       8.540   8.816  18.668  0.00  0.00    +0.000 C 
BRANCH  29  30
ATOM     30  C   UNL     1       9.189  10.166  18.752  0.00  0.00    +0.000 A 
ATOM     31  N   UNL     1       9.722  10.766  17.630  0.00  0.00    +0.000 NA
ATOM     32  C   UNL     1      10.200  11.917  18.038  0.00  0.00    +0.000 A 
ATOM     33  N   UNL     1      10.007  12.093  19.377  0.00  0.00    +0.000 N 
ATOM     34  C   UNL     1       9.362  10.983  19.858  0.00  0.00    +0.000 A 
ATOM     35  C   UNL     1       8.990  10.816  21.283  0.00  0.00    +0.000 C 
ATOM     36  H   UNL     1      10.293  12.902  19.912  0.00  0.00    +0.000 HD
ENDBRANCH  29  30
ENDBRANCH  27  29
ENDBRANCH   6  27
TORSDOF 9
ENDMDL
MODEL 3
REMARK VINA RESULT:      -7.7      4.143      7.914
REMARK  Name = 
REMARK  12 active torsions:
REMARK  status: ('A' for Active; 'I' for Inactive)
REMARK    1  A    between atoms: C_1  and  C_2
REMARK    2  A    between atoms: C_2  and  O_3
REMARK    3  A    between atoms: O_3  and  C_4
REMARK    4  A    between atoms: C_4  and  C_6
REMARK    5  A    between atoms: C_11  and  N_12
REMARK    6  A    between atoms: N_12  and  C_13
REMARK    7  A    between atoms: C_13  and  C_14
REMARK    8  A    between atoms: C_18  and  C_19
REMARK    9  A    between atoms: C_22  and  N_23
REMARK   10  A    between atoms: C_24  and  C_26
REMARK   11  A    between atoms: C_29  and  O_30
REMARK   12  A    between atoms: O_30  and  C_31
REMARK                            x       y       z     vdW  Elec       q    Type
REMARK                         _______ _______ _______ _____ _____    ______ ____
ROOT
ATOM      1  C   UNL     1       3.281   4.266  19.666  0.00  0.00    +0.000 A 
ATOM      2  S   UNL     1       2.380   4.715  21.042  0.00  0.00    +0.000 S 
ATOM      3  C   UNL     1       2.044   6.275  20.423  0.00  0.00    +0.000 A 
ATOM      4  C   UNL     1       1.281   7.284  21.048  0.00  0.00    +0.000 A 
ATOM      5  C   UNL     1       1.141   8.528  20.418  0.00  0.00    +0.000 A 
ATOM      6  C   UNL     1       1.792   8.796  19.223  0.00  0.00    +0.000 A 
ATOM      7  C   UNL     1       2.507   7.761  18.613  0.00  0.00    +0.000 A 
ATOM      8  C   UNL     1       2.638   6.469  19.174  0.00  0.00    +0.000 A 
ATOM      9  C   UNL     1       3.312   5.276  18.711  0.00  0.00    +0.000 A 
ENDROOT
BRANCH   9  10
ATOM     10  N   UNL     1       3.974   5.055  17.497  0.00  0.00    +0.000 N 
ATOM     11  C   UNL     1       5.288   5.327  17.181  0.00  0.00    +0.000 C 
ATOM     12  O   UNL     1       6.135   5.888  17.861  0.00  0.00    +0.000 OA
ATOM     13  H   UNL     1       3.365   4.775  16.730  0.00  0.00    +0.000 HD
BRANCH  11  14
ATOM     14  C   UNL     1       5.682   4.894  15.818  0.00  0.00    +0.000 A 
ATOM     15  C   UNL     1       4.794   4.182  15.007  0.00  0.00    +0.000 A 
ATOM     16  C   UNL     1       5.210   3.745  13.752  0.00  0.00    +0.000 A 
ATOM     17  C   UNL     1       6.494   4.042  13.288  0.00  0.00    +0.000 A 
ATOM     18  C   UNL     1       7.375   4.769  14.093  0.00  0.00    +0.000 A 
ATOM     19  C   UNL     1       6.964   5.204  15.356  0.00  0.00    +0.000 A 
BRANCH  17  20
ATOM     20  O   UNL     1       6.785   3.534  12.051  0.00  0.00    +0.000 OA
ATOM     21  C   UNL     1       5.988   2.433  11.634  0.00  0.00    +0.000 C 
ENDBRANCH  17  20
ENDBRANCH  11  14
ENDBRANCH   9  10
BRANCH   1  22
ATOM     22  C   UNL     1       3.841   2.932  19.518  0.00  0.00    +0.000 C 
ATOM     23  O   UNL     1       4.900   2.575  20.029  0.00  0.00    +0.000 OA
BRANCH  22  24
ATOM     24  O   UNL     1       3.105   2.163  18.667  0.00  0.00    +0.000 OA
BRANCH  24  26
ATOM     25  C   UNL     1       0.731   2.376  18.600  0.00  0.00    +0.000 C 
ATOM     26  C   UNL     1       1.896   1.620  19.212  0.00  0.00    +0.000 C 
ENDBRANCH  24  26
ENDBRANCH  22  24
ENDBRANCH   1  22
BRANCH   6  27
ATOM     27  N   UNL     1       1.650   9.967  18.477  0.00  0.00    +0.000 N 
ATOM     28  H   UNL     1       1.141   9.740  17.623  0.00  0.00    +0.000 HD
BRANCH  27  29
ATOM     29  C   UNL     1       1.098  11.171  19.098  0.00  0.00    +0.000 C 
BRANCH  29  30
ATOM     30  C   UNL     1      -0.301  11.528  18.687  0.00  0.00    +0.000 A 
ATOM     31  N   UNL     1      -1.237  10.546  18.437  0.00  0.00    +0.000 NA
ATOM     32  C   UNL     1      -2.337  11.181  18.111  0.00  0.00    +0.000 A 
ATOM     33  N   UNL     1      -2.160  12.534  18.133  0.00  0.00    +0.000 N 
ATOM     34  C   UNL     1      -0.861  12.781  18.498  0.00  0.00    +0.000 A 
ATOM     35  C   UNL     1      -0.301  14.148  18.623  0.00  0.00    +0.000 C 
ATOM     36  H   UNL     1      -2.866  13.224  17.917  0.00  0.00    +0.000 HD
ENDBRANCH  29  30
ENDBRANCH  27  29
ENDBRANCH   6  27
TORSDOF 9
ENDMDL
MODEL 4
REMARK VINA RESULT:      -7.7      3.961      7.576
REMARK  Name = 
REMARK  12 active torsions:
REMARK  status: ('A' for Active; 'I' for Inactive)
REMARK    1  A    between atoms: C_1  and  C_2
REMARK    2  A    between atoms: C_2  and  O_3
REMARK    3  A    between atoms: O_3  and  C_4
REMARK    4  A    between atoms: C_4  and  C_6
REMARK    5  A    between atoms: C_11  and  N_12
REMARK    6  A    between atoms: N_12  and  C_13
REMARK    7  A    between atoms: C_13  and  C_14
REMARK    8  A    between atoms: C_18  and  C_19
REMARK    9  A    between atoms: C_22  and  N_23
REMARK   10  A    between atoms: C_24  and  C_26
REMARK   11  A    between atoms: C_29  and  O_30
REMARK   12  A    between atoms: O_30  and  C_31
REMARK                            x       y       z     vdW  Elec       q    Type
REMARK                         _______ _______ _______ _____ _____    ______ ____
ROOT
ATOM      1  C   UNL     1       3.314   4.744  19.645  0.00  0.00    +0.000 A 
ATOM      2  S   UNL     1       2.410   5.295  20.981  0.00  0.00    +0.000 S 
ATOM      3  C   UNL     1       2.045   6.790  20.230  0.00  0.00    +0.000 A 
ATOM      4  C   UNL     1       1.267   7.837  20.768  0.00  0.00    +0.000 A 
ATOM      5  C   UNL     1       1.104   9.018  20.033  0.00  0.00    +0.000 A 
ATOM      6  C   UNL     1       1.747   9.192  18.816  0.00  0.00    +0.000 A 
ATOM      7  C   UNL     1       2.478   8.121  18.296  0.00  0.00    +0.000 A 
ATOM      8  C   UNL     1       2.632   6.885  18.966  0.00  0.00    +0.000 A 
ATOM      9  C   UNL     1       3.326   5.668  18.606  0.00  0.00    +0.000 A 
ENDROOT
BRANCH   9  10
ATOM     10  N   UNL     1       3.988   5.353  17.413  0.00  0.00    +0.000 N 
ATOM     11  C   UNL     1       5.258   5.718  17.022  0.00  0.00    +0.000 C 
ATOM     12  O   UNL     1       6.049   6.456  17.593  0.00  0.00    +0.000 OA
ATOM     13  H   UNL     1       3.401   4.905  16.712  0.00  0.00    +0.000 HD
BRANCH  11  14
ATOM     14  C   UNL     1       5.676   5.145  15.718  0.00  0.00    +0.000 A 
ATOM     15  C   UNL     1       4.797   4.359  14.967  0.00  0.00    +0.000 A 
ATOM     16  C   UNL     1       5.235   3.793  13.772  0.00  0.00    +0.000 A 
ATOM     17  C   UNL     1       6.530   4.033  13.306  0.00  0.00    +0.000 A 
ATOM     18  C   UNL     1       7.401   4.833  14.050  0.00  0.00    +0.000 A 
ATOM     19  C   UNL     1       6.969   5.398  15.253  0.00  0.00    +0.000 A 
BRANCH  17  20
ATOM     20  O   UNL     1       6.841   3.399  12.135  0.00  0.00    +0.000 OA
ATOM     21  C   UNL     1       5.873   2.473  11.659  0.00  0.00    +0.000 C 
ENDBRANCH  17  20
ENDBRANCH  11  14
ENDBRANCH   9  10
BRANCH   1  22
ATOM     22  C   UNL     1       3.897   3.411  19.612  0.00  0.00    +0.000 C 
ATOM     23  O   UNL     1       5.072   3.185  19.332  0.00  0.00    +0.000 OA
BRANCH  22  24
ATOM     24  O   UNL     1       2.962   2.443  19.829  0.00  0.00    +0.000 OA
BRANCH  24  26
ATOM     25  C   UNL     1       0.844   2.370  18.736  0.00  0.00    +0.000 C 
ATOM     26  C   UNL     1       2.301   1.949  18.657  0.00  0.00    +0.000 C 
ENDBRANCH  24  26
ENDBRANCH  22  24
ENDBRANCH   1  22
BRANCH   6  27
ATOM     27  N   UNL     1       1.583  10.292  17.972  0.00  0.00    +0.000 N 
ATOM     28  H   UNL     1       0.611  10.315  17.666  0.00  0.00    +0.000 HD
BRANCH  27  29
ATOM     29  C   UNL     1       2.016  11.620  18.404  0.00  0.00    +0.000 C 
BRANCH  29  30
ATOM     30  C   UNL     1       1.146  12.283  19.431  0.00  0.00    +0.000 A 
ATOM     31  N   UNL     1       1.652  12.637  20.664  0.00  0.00    +0.000 NA
ATOM     32  C   UNL     1       0.653  13.187  21.311  0.00  0.00    +0.000 A 
ATOM     33  N   UNL     1      -0.484  13.203  20.557  0.00  0.00    +0.000 N 
ATOM     34  C   UNL     1      -0.194  12.627  19.348  0.00  0.00    +0.000 A 
ATOM     35  C   UNL     1      -1.195  12.464  18.267  0.00  0.00    +0.000 C 
ATOM     36  H   UNL     1      -1.378  13.575  20.848  0.00  0.00    +0.000 HD
ENDBRANCH  29  30
ENDBRANCH  27  29
ENDBRANCH   6  27
TORSDOF 9
ENDMDL
MODEL 5
REMARK VINA RESULT:      -7.6      3.850      7.389
REMARK  Name = 
REMARK  12 active torsions:
REMARK  status: ('A' for Active; 'I' for Inactive)
REMARK    1  A    between atoms: C_1  and  C_2
REMARK    2  A    between atoms: C_2  and  O_3
REMARK    3  A    between atoms: O_3  and  C_4
REMARK    4  A    between atoms: C_4  and  C_6
REMARK    5  A    between atoms: C_11  and  N_12
REMARK    6  A    between atoms: N_12  and  C_13
REMARK    7  A    between atoms: C_13  and  C_14
REMARK    8  A    between atoms: C_18  and  C_19
REMARK    9  A    between atoms: C_22  and  N_23
REMARK   10  A    between atoms: C_24  and  C_26
REMARK   11  A    between atoms: C_29  and  O_30
REMARK   12  A    between atoms: O_30  and  C_31
REMARK                            x       y       z     vdW  Elec       q    Type
REMARK                         _______ _______ _______ _____ _____    ______ ____
ROOT
ATOM      1  C   UNL     1       3.301   4.651  19.636  0.00  0.00    +0.000 A 
ATOM      2  S   UNL     1       2.362   5.162  20.964  0.00  0.00    +0.000 S 
ATOM      3  C   UNL     1       1.993   6.668  20.237  0.00  0.00    +0.000 A 
ATOM      4  C   UNL     1       1.190   7.693  20.779  0.00  0.00    +0.000 A 
ATOM      5  C   UNL     1       1.027   8.888  20.065  0.00  0.00    +0.000 A 
ATOM      6  C   UNL     1       1.693   9.095  18.866  0.00  0.00    +0.000 A 
ATOM      7  C   UNL     1       2.449   8.044  18.339  0.00  0.00    +0.000 A 
ATOM      8  C   UNL     1       2.605   6.796  18.987  0.00  0.00    +0.000 A 
ATOM      9  C   UNL     1       3.322   5.596  18.617  0.00  0.00    +0.000 A 
ENDROOT
BRANCH   9  10
ATOM     10  N   UNL     1       4.013   5.314  17.432  0.00  0.00    +0.000 N 
ATOM     11  C   UNL     1       5.258   5.761  17.046  0.00  0.00    +0.000 C 
ATOM     12  O   UNL     1       5.993   6.558  17.613  0.00  0.00    +0.000 OA
ATOM     13  H   UNL     1       3.463   4.820  16.731  0.00  0.00    +0.000 HD
BRANCH  11  14
ATOM     14  C   UNL     1       5.724   5.204  15.751  0.00  0.00    +0.000 A 
ATOM     15  C   UNL     1       7.011   5.473  15.276  0.00  0.00    +0.000 A 
ATOM     16  C   UNL     1       7.400   4.978  14.034  0.00  0.00    +0.000 A 
ATOM     17  C   UNL     1       6.528   4.191  13.279  0.00  0.00    +0.000 A 
ATOM     18  C   UNL     1       5.248   3.909  13.763  0.00  0.00    +0.000 A 
ATOM     19  C   UNL     1       4.849   4.408  15.006  0.00  0.00    +0.000 A 
BRANCH  17  20
ATOM     20  O   UNL     1       7.025   3.791  12.069  0.00  0.00    +0.000 OA
ATOM     21  C   UNL     1       6.596   2.513  11.618  0.00  0.00    +0.000 C 
ENDBRANCH  17  20
ENDBRANCH  11  14
ENDBRANCH   9  10
BRANCH   1  22
ATOM     22  C   UNL     1       3.902   3.326  19.588  0.00  0.00    +0.000 C 
ATOM     23  O   UNL     1       5.106   3.126  19.443  0.00  0.00    +0.000 OA
BRANCH  22  24
ATOM     24  O   UNL     1       2.961   2.341  19.621  0.00  0.00    +0.000 OA
BRANCH  24  26
ATOM     25  C   UNL     1       0.714   2.336  18.824  0.00  0.00    +0.000 C 
ATOM     26  C   UNL     1       2.174   2.197  18.432  0.00  0.00    +0.000 C 
ENDBRANCH  24  26
ENDBRANCH  22  24
ENDBRANCH   1  22
BRANCH   6  27
ATOM     27  N   UNL     1       1.532  10.209  18.041  0.00  0.00    +0.000 N 
ATOM     28  H   UNL     1       1.244   9.883  17.120  0.00  0.00    +0.000 HD
BRANCH  27  29
ATOM     29  C   UNL     1       0.695  11.328  18.473  0.00  0.00    +0.000 C 
BRANCH  29  30
ATOM     30  C   UNL     1       1.389  12.379  19.291  0.00  0.00    +0.000 A 
ATOM     31  N   UNL     1       2.504  13.030  18.807  0.00  0.00    +0.000 NA
ATOM     32  C   UNL     1       2.857  13.872  19.748  0.00  0.00    +0.000 A 
ATOM     33  N   UNL     1       2.025  13.796  20.827  0.00  0.00    +0.000 N 
ATOM     34  C   UNL     1       1.076  12.844  20.559  0.00  0.00    +0.000 A 
ATOM     35  C   UNL     1      -0.000  12.481  21.511  0.00  0.00    +0.000 C 
ATOM     36  H   UNL     1       2.103  14.348  21.671  0.00  0.00    +0.000 HD
ENDBRANCH  29  30
ENDBRANCH  27  29
ENDBRANCH   6  27
TORSDOF 9
ENDMDL
MODEL 6
REMARK VINA RESULT:      -7.6      4.011      7.907
REMARK  Name = 
REMARK  12 active torsions:
REMARK  status: ('A' for Active; 'I' for Inactive)
REMARK    1  A    between atoms: C_1  and  C_2
REMARK    2  A    between atoms: C_2  and  O_3
REMARK    3  A    between atoms: O_3  and  C_4
REMARK    4  A    between atoms: C_4  and  C_6
REMARK    5  A    between atoms: C_11  and  N_12
REMARK    6  A    between atoms: N_12  and  C_13
REMARK    7  A    between atoms: C_13  and  C_14
REMARK    8  A    between atoms: C_18  and  C_19
REMARK    9  A    between atoms: C_22  and  N_23
REMARK   10  A    between atoms: C_24  and  C_26
REMARK   11  A    between atoms: C_29  and  O_30
REMARK   12  A    between atoms: O_30  and  C_31
REMARK                            x       y       z     vdW  Elec       q    Type
REMARK                         _______ _______ _______ _____ _____    ______ ____
ROOT
ATOM      1  C   UNL     1       3.345   4.741  19.714  0.00  0.00    +0.000 A 
ATOM      2  S   UNL     1       2.410   5.282  21.033  0.00  0.00    +0.000 S 
ATOM      3  C   UNL     1       2.019   6.761  20.262  0.00  0.00    +0.000 A 
ATOM      4  C   UNL     1       1.208   7.793  20.779  0.00  0.00    +0.000 A 
ATOM      5  C   UNL     1       1.026   8.963  20.031  0.00  0.00    +0.000 A 
ATOM      6  C   UNL     1       1.681   9.141  18.821  0.00  0.00    +0.000 A 
ATOM      7  C   UNL     1       2.445   8.083  18.320  0.00  0.00    +0.000 A 
ATOM      8  C   UNL     1       2.620   6.857  19.005  0.00  0.00    +0.000 A 
ATOM      9  C   UNL     1       3.348   5.654  18.666  0.00  0.00    +0.000 A 
ENDROOT
BRANCH   9  10
ATOM     10  N   UNL     1       4.033   5.344  17.485  0.00  0.00    +0.000 N 
ATOM     11  C   UNL     1       5.308   5.718  17.117  0.00  0.00    +0.000 C 
ATOM     12  O   UNL     1       6.084   6.461  17.701  0.00  0.00    +0.000 OA
ATOM     13  H   UNL     1       3.462   4.893  16.773  0.00  0.00    +0.000 HD
BRANCH  11  14
ATOM     14  C   UNL     1       5.753   5.148  15.820  0.00  0.00    +0.000 A 
ATOM     15  C   UNL     1       6.959   5.547  15.238  0.00  0.00    +0.000 A 
ATOM     16  C   UNL     1       7.324   5.033  13.997  0.00  0.00    +0.000 A 
ATOM     17  C   UNL     1       6.512   4.100  13.349  0.00  0.00    +0.000 A 
ATOM     18  C   UNL     1       5.314   3.689  13.941  0.00  0.00    +0.000 A 
ATOM     19  C   UNL     1       4.939   4.207  15.183  0.00  0.00    +0.000 A 
BRANCH  17  20
ATOM     20  O   UNL     1       6.973   3.694  12.126  0.00  0.00    +0.000 OA
ATOM     21  C   UNL     1       6.275   2.607  11.534  0.00  0.00    +0.000 C 
ENDBRANCH  17  20
ENDBRANCH  11  14
ENDBRANCH   9  10
BRANCH   1  22
ATOM     22  C   UNL     1       3.961   3.422  19.702  0.00  0.00    +0.000 C 
ATOM     23  O   UNL     1       5.160   3.229  19.515  0.00  0.00    +0.000 OA
BRANCH  22  24
ATOM     24  O   UNL     1       3.036   2.429  19.820  0.00  0.00    +0.000 OA
BRANCH  24  26
ATOM     25  C   UNL     1       0.931   2.335  18.703  0.00  0.00    +0.000 C 
ATOM     26  C   UNL     1       2.411   2.017  18.597  0.00  0.00    +0.000 C 
ENDBRANCH  24  26
ENDBRANCH  22  24
ENDBRANCH   1  22
BRANCH   6  27
ATOM     27  N   UNL     1       1.501  10.228  17.963  0.00  0.00    +0.000 N 
ATOM     28  H   UNL     1       0.742  10.003  17.321  0.00  0.00    +0.000 HD
BRANCH  27  29
ATOM     29  C   UNL     1       1.329  11.573  18.510  0.00  0.00    +0.000 C 
BRANCH  29  30
ATOM     30  C   UNL     1      -0.076  11.946  18.883  0.00  0.00    +0.000 A 
ATOM     31  N   UNL     1      -0.323  12.964  19.780  0.00  0.00    +0.000 NA
ATOM     32  C   UNL     1      -1.629  13.035  19.882  0.00  0.00    +0.000 A 
ATOM     33  N   UNL     1      -2.245  12.105  19.096  0.00  0.00    +0.000 N 
ATOM     34  C   UNL     1      -1.270  11.393  18.447  0.00  0.00    +0.000 A 
ATOM     35  C   UNL     1      -1.566  10.287  17.505  0.00  0.00    +0.000 C 
ATOM     36  H   UNL     1      -3.243  11.972  19.014  0.00  0.00    +0.000 HD
ENDBRANCH  29  30
ENDBRANCH  27  29
ENDBRANCH   6  27
TORSDOF 9
ENDMDL
MODEL 7
REMARK VINA RESULT:      -7.5      1.319      1.864
REMARK  Name = 
REMARK  12 active torsions:
REMARK  status: ('A' for Active; 'I' for Inactive)
REMARK    1  A    between atoms: C_1  and  C_2
REMARK    2  A    between atoms: C_2  and  O_3
REMARK    3  A    between atoms: O_3  and  C_4
REMARK    4  A    between atoms: C_4  and  C_6
REMARK    5  A    between atoms: C_11  and  N_12
REMARK    6  A    between atoms: N_12  and  C_13
REMARK    7  A    between atoms: C_13  and  C_14
REMARK    8  A    between atoms: C_18  and  C_19
REMARK    9  A    between atoms: C_22  and  N_23
REMARK   10  A    between atoms: C_24  and  C_26
REMARK   11  A    between atoms: C_29  and  O_30
REMARK   12  A    between atoms: O_30  and  C_31
REMARK                            x       y       z     vdW  Elec       q    Type
REMARK                         _______ _______ _______ _____ _____    ______ ____
ROOT
ATOM      1  C   UNL     1       3.057   4.855  17.820  0.00  0.00    +0.000 A 
ATOM      2  S   UNL     1       4.359   3.791  17.535  0.00  0.00    +0.000 S 
ATOM      3  C   UNL     1       5.510   5.059  17.528  0.00  0.00    +0.000 A 
ATOM      4  C   UNL     1       6.903   4.933  17.349  0.00  0.00    +0.000 A 
ATOM      5  C   UNL     1       7.700   6.085  17.326  0.00  0.00    +0.000 A 
ATOM      6  C   UNL     1       7.128   7.346  17.416  0.00  0.00    +0.000 A 
ATOM      7  C   UNL     1       5.749   7.432  17.633  0.00  0.00    +0.000 A 
ATOM      8  C   UNL     1       4.902   6.303  17.719  0.00  0.00    +0.000 A 
ATOM      9  C   UNL     1       3.479   6.174  17.944  0.00  0.00    +0.000 A 
ENDROOT
BRANCH   9  10
ATOM     10  N   UNL     1       2.540   7.173  18.225  0.00  0.00    +0.000 N 
ATOM     11  C   UNL     1       2.107   7.613  19.458  0.00  0.00    +0.000 C 
ATOM     12  O   UNL     1       2.388   7.175  20.565  0.00  0.00    +0.000 OA
ATOM     13  H   UNL     1       2.037   7.520  17.411  0.00  0.00    +0.000 HD
BRANCH  11  14
ATOM     14  C   UNL     1       1.153   8.748  19.393  0.00  0.00    +0.000 A 
ATOM     15  C   UNL     1       0.575   9.266  20.556  0.00  0.00    +0.000 A 
ATOM     16  C   UNL     1      -0.355  10.298  20.457  0.00  0.00    +0.000 A 
ATOM     17  C   UNL     1      -0.687  10.837  19.212  0.00  0.00    +0.000 A 
ATOM     18  C   UNL     1      -0.095  10.330  18.053  0.00  0.00    +0.000 A 
ATOM     19  C   UNL     1       0.834   9.290  18.145  0.00  0.00    +0.000 A 
BRANCH  17  20
ATOM     20  O   UNL     1      -1.631  11.827  19.254  0.00  0.00    +0.000 OA
ATOM     21  C   UNL     1      -2.772  11.625  18.430  0.00  0.00    +0.000 C 
ENDBRANCH  17  20
ENDBRANCH  11  14
ENDBRANCH   9  10
BRANCH   1  22
ATOM     22  C   UNL     1       1.698   4.370  18.005  0.00  0.00    +0.000 C 
ATOM     23  O   UNL     1       0.897   4.215  17.087  0.00  0.00    +0.000 OA
BRANCH  22  24
ATOM     24  O   UNL     1       1.393   4.208  19.324  0.00  0.00    +0.000 OA
BRANCH  24  26
ATOM     25  C   UNL     1       1.339   2.867  21.295  0.00  0.00    +0.000 C 
ATOM     26  C   UNL     1       1.310   2.851  19.777  0.00  0.00    +0.000 C 
ENDBRANCH  24  26
ENDBRANCH  22  24
ENDBRANCH   1  22
BRANCH   6  27
ATOM     27  N   UNL     1       7.836   8.546  17.488  0.00  0.00    +0.000 N 
ATOM     28  H   UNL     1       7.195   9.307  17.266  0.00  0.00    +0.000 HD
BRANCH  27  29
ATOM     29  C   UNL     1       8.618   8.867  18.682  0.00  0.00    +0.000 C 
BRANCH  29  30
ATOM     30  C   UNL     1       9.202  10.249  18.722  0.00  0.00    +0.000 A 
ATOM     31  N   UNL     1       9.653  10.860  17.571  0.00  0.00    +0.000 NA
ATOM     32  C   UNL     1      10.090  12.039  17.945  0.00  0.00    +0.000 A 
ATOM     33  N   UNL     1       9.949  12.223  19.290  0.00  0.00    +0.000 N 
ATOM     34  C   UNL     1       9.383  11.088  19.811  0.00  0.00    +0.000 A 
ATOM     35  C   UNL     1       9.083  10.920  21.253  0.00  0.00    +0.000 C 
ATOM     36  H   UNL     1      10.217  13.051  19.802  0.00  0.00    +0.000 HD
ENDBRANCH  29  30
ENDBRANCH  27  29
ENDBRANCH   6  27
TORSDOF 9
ENDMDL
MODEL 8
REMARK VINA RESULT:      -7.5      3.936      7.481
REMARK  Name = 
REMARK  12 active torsions:
REMARK  status: ('A' for Active; 'I' for Inactive)
REMARK    1  A    between atoms: C_1  and  C_2
REMARK    2  A    between atoms: C_2  and  O_3
REMARK    3  A    between atoms: O_3  and  C_4
REMARK    4  A    between atoms: C_4  and  C_6
REMARK    5  A    between atoms: C_11  and  N_12
REMARK    6  A    between atoms: N_12  and  C_13
REMARK    7  A    between atoms: C_13  and  C_14
REMARK    8  A    between atoms: C_18  and  C_19
REMARK    9  A    between atoms: C_22  and  N_23
REMARK   10  A    between atoms: C_24  and  C_26
REMARK   11  A    between atoms: C_29  and  O_30
REMARK   12  A    between atoms: O_30  and  C_31
REMARK                            x       y       z     vdW  Elec       q    Type
REMARK                         _______ _______ _______ _____ _____    ______ ____
ROOT
ATOM      1  C   UNL     1       3.215   4.952  19.651  0.00  0.00    +0.000 A 
ATOM      2  S   UNL     1       2.291   5.542  20.957  0.00  0.00    +0.000 S 
ATOM      3  C   UNL     1       1.951   7.021  20.165  0.00  0.00    +0.000 A 
ATOM      4  C   UNL     1       1.171   8.086  20.662  0.00  0.00    +0.000 A 
ATOM      5  C   UNL     1       1.030   9.250  19.897  0.00  0.00    +0.000 A 
ATOM      6  C   UNL     1       1.697   9.391  18.689  0.00  0.00    +0.000 A 
ATOM      7  C   UNL     1       2.430   8.302  18.207  0.00  0.00    +0.000 A 
ATOM      8  C   UNL     1       2.562   7.081  18.910  0.00  0.00    +0.000 A 
ATOM      9  C   UNL     1       3.253   5.851  18.591  0.00  0.00    +0.000 A 
ENDROOT
BRANCH   9  10
ATOM     10  N   UNL     1       3.934   5.503  17.418  0.00  0.00    +0.000 N 
ATOM     11  C   UNL     1       5.238   5.791  17.074  0.00  0.00    +0.000 C 
ATOM     12  O   UNL     1       6.052   6.475  17.676  0.00  0.00    +0.000 OA
ATOM     13  H   UNL     1       3.345   5.097  16.694  0.00  0.00    +0.000 HD
BRANCH  11  14
ATOM     14  C   UNL     1       5.663   5.201  15.780  0.00  0.00    +0.000 A 
ATOM     15  C   UNL     1       4.806   4.367  15.056  0.00  0.00    +0.000 A 
ATOM     16  C   UNL     1       5.252   3.788  13.871  0.00  0.00    +0.000 A 
ATOM     17  C   UNL     1       6.533   4.062  13.386  0.00  0.00    +0.000 A 
ATOM     18  C   UNL     1       7.382   4.910  14.102  0.00  0.00    +0.000 A 
ATOM     19  C   UNL     1       6.942   5.488  15.296  0.00  0.00    +0.000 A 
BRANCH  17  20
ATOM     20  O   UNL     1       6.855   3.410  12.227  0.00  0.00    +0.000 OA
ATOM     21  C   UNL     1       5.829   2.602  11.669  0.00  0.00    +0.000 C 
ENDBRANCH  17  20
ENDBRANCH  11  14
ENDBRANCH   9  10
BRANCH   1  22
ATOM     22  C   UNL     1       3.788   3.615  19.661  0.00  0.00    +0.000 C 
ATOM     23  O   UNL     1       4.971   3.376  19.429  0.00  0.00    +0.000 OA
BRANCH  22  24
ATOM     24  O   UNL     1       2.839   2.657  19.856  0.00  0.00    +0.000 OA
BRANCH  24  26
ATOM     25  C   UNL     1       2.581   2.143  17.542  0.00  0.00    +0.000 C 
ATOM     26  C   UNL     1       1.858   2.537  18.817  0.00  0.00    +0.000 C 
ENDBRANCH  24  26
ENDBRANCH  22  24
ENDBRANCH   1  22
BRANCH   6  27
ATOM     27  N   UNL     1       1.558  10.471  17.816  0.00  0.00    +0.000 N 
ATOM     28  H   UNL     1       0.562  10.631  17.665  0.00  0.00    +0.000 HD
BRANCH  27  29
ATOM     29  C   UNL     1       2.243  11.733  18.093  0.00  0.00    +0.000 C 
BRANCH  29  30
ATOM     30  C   UNL     1       1.409  12.790  18.756  0.00  0.00    +0.000 A 
ATOM     31  N   UNL     1       0.130  13.061  18.317  0.00  0.00    +0.000 NA
ATOM     32  C   UNL     1      -0.317  14.016  19.097  0.00  0.00    +0.000 A 
ATOM     33  N   UNL     1       0.616  14.385  20.022  0.00  0.00    +0.000 N 
ATOM     34  C   UNL     1       1.732  13.614  19.823  0.00  0.00    +0.000 A 
ATOM     35  C   UNL     1       2.960  13.740  20.643  0.00  0.00    +0.000 C 
ATOM     36  H   UNL     1       0.497  15.101  20.726  0.00  0.00    +0.000 HD
ENDBRANCH  29  30
ENDBRANCH  27  29
ENDBRANCH   6  27
TORSDOF 9
ENDMDL
MODEL 9
REMARK VINA RESULT:      -7.5      3.902      7.433
REMARK  Name = 
REMARK  12 active torsions:
REMARK  status: ('A' for Active; 'I' for Inactive)
REMARK    1  A    between atoms: C_1  and  C_2
REMARK    2  A    between atoms: C_2  and  O_3
REMARK    3  A    between atoms: O_3  and  C_4
REMARK    4  A    between atoms: C_4  and  C_6
REMARK    5  A    between atoms: C_11  and  N_12
REMARK    6  A    between atoms: N_12  and  C_13
REMARK    7  A    between atoms: C_13  and  C_14
REMARK    8  A    between atoms: C_18  and  C_19
REMARK    9  A    between atoms: C_22  and  N_23
REMARK   10  A    between atoms: C_24  and  C_26
REMARK   11  A    between atoms: C_29  and  O_30
REMARK   12  A    between atoms: O_30  and  C_31
REMARK                            x       y       z     vdW  Elec       q    Type
REMARK                         _______ _______ _______ _____ _____    ______ ____
ROOT
ATOM      1  C   UNL     1       3.207   4.994  19.637  0.00  0.00    +0.000 A 
ATOM      2  S   UNL     1       2.279   5.613  20.927  0.00  0.00    +0.000 S 
ATOM      3  C   UNL     1       1.963   7.085  20.110  0.00  0.00    +0.000 A 
ATOM      4  C   UNL     1       1.192   8.165  20.586  0.00  0.00    +0.000 A 
ATOM      5  C   UNL     1       1.071   9.320  19.802  0.00  0.00    +0.000 A 
ATOM      6  C   UNL     1       1.748   9.435  18.597  0.00  0.00    +0.000 A 
ATOM      7  C   UNL     1       2.472   8.331  18.138  0.00  0.00    +0.000 A 
ATOM      8  C   UNL     1       2.585   7.119  18.859  0.00  0.00    +0.000 A 
ATOM      9  C   UNL     1       3.263   5.876  18.564  0.00  0.00    +0.000 A 
ENDROOT
BRANCH   9  10
ATOM     10  N   UNL     1       3.950   5.503  17.402  0.00  0.00    +0.000 N 
ATOM     11  C   UNL     1       5.236   5.832  17.030  0.00  0.00    +0.000 C 
ATOM     12  O   UNL     1       6.024   6.579  17.591  0.00  0.00    +0.000 OA
ATOM     13  H   UNL     1       3.373   5.037  16.704  0.00  0.00    +0.000 HD
BRANCH  11  14
ATOM     14  C   UNL     1       5.676   5.200  15.761  0.00  0.00    +0.000 A 
ATOM     15  C   UNL     1       6.933   5.483  15.219  0.00  0.00    +0.000 A 
ATOM     16  C   UNL     1       7.297   4.914  14.001  0.00  0.00    +0.000 A 
ATOM     17  C   UNL     1       6.431   4.041  13.338  0.00  0.00    +0.000 A 
ATOM     18  C   UNL     1       5.182   3.747  13.891  0.00  0.00    +0.000 A 
ATOM     19  C   UNL     1       4.808   4.320  15.109  0.00  0.00    +0.000 A 
BRANCH  17  20
ATOM     20  O   UNL     1       6.899   3.573  12.141  0.00  0.00    +0.000 OA
ATOM     21  C   UNL     1       6.133   2.538  11.542  0.00  0.00    +0.000 C 
ENDBRANCH  17  20
ENDBRANCH  11  14
ENDBRANCH   9  10
BRANCH   1  22
ATOM     22  C   UNL     1       3.764   3.650  19.671  0.00  0.00    +0.000 C 
ATOM     23  O   UNL     1       4.950   3.397  19.471  0.00  0.00    +0.000 OA
BRANCH  22  24
ATOM     24  O   UNL     1       2.799   2.705  19.848  0.00  0.00    +0.000 OA
BRANCH  24  26
ATOM     25  C   UNL     1       2.558   2.126  17.547  0.00  0.00    +0.000 C 
ATOM     26  C   UNL     1       1.833   2.601  18.794  0.00  0.00    +0.000 C 
ENDBRANCH  24  26
ENDBRANCH  22  24
ENDBRANCH   1  22
BRANCH   6  27
ATOM     27  N   UNL     1       1.628  10.504  17.707  0.00  0.00    +0.000 N 
ATOM     28  H   UNL     1       0.637  10.711  17.593  0.00  0.00    +0.000 HD
BRANCH  27  29
ATOM     29  C   UNL     1       2.387  11.734  17.931  0.00  0.00    +0.000 C 
BRANCH  29  30
ATOM     30  C   UNL     1       1.580  12.923  18.365  0.00  0.00    +0.000 A 
ATOM     31  N   UNL     1       0.250  12.789  18.704  0.00  0.00    +0.000 NA
ATOM     32  C   UNL     1      -0.153  13.992  19.034  0.00  0.00    +0.000 A 
ATOM     33  N   UNL     1       0.853  14.907  18.922  0.00  0.00    +0.000 N 
ATOM     34  C   UNL     1       1.975  14.245  18.492  0.00  0.00    +0.000 A 
ATOM     35  C   UNL     1       3.271  14.922  18.250  0.00  0.00    +0.000 C 
ATOM     36  H   UNL     1       0.776  15.895  19.121  0.00  0.00    +0.000 HD
ENDBRANCH  29  30
ENDBRANCH  27  29
ENDBRANCH   6  27
TORSDOF 9
ENDMDL
