MODEL 1
REMARK VINA RESULT:      -6.1      0.000      0.000
REMARK  Name = 
REMARK  9 active torsions:
REMARK  status: ('A' for Active; 'I' for Inactive)
REMARK    1  A    between atoms: C_1  and  C_2
REMARK    2  A    between atoms: C_5  and  C_6
REMARK    3  A    between atoms: C_6  and  N_7
REMARK    4  A    between atoms: N_10  and  C_11
REMARK    5  A    between atoms: C_11  and  C_12
REMARK    6  A    between atoms: C_11  and  C_13
REMARK    7  A    between atoms: C_14  and  C_15
REMARK    8  A    between atoms: C_15  and  C_16
REMARK    9  A    between atoms: C_16  and  O_17
REMARK                            x       y       z     vdW  Elec       q    Type
REMARK                         _______ _______ _______ _____ _____    ______ ____
ROOT
ATOM      1  N   UNL     1       4.902   5.247  18.643  0.00  0.00    +0.000 NA
ATOM      2  C   UNL     1       4.194   6.198  17.768  0.00  0.00    +0.000 C 
ATOM      3  C   UNL     1       2.656   6.058  17.738  0.00  0.00    +0.000 C 
ATOM      4  N   UNL     1       2.025   6.119  19.088  0.00  0.00    +0.000 NA
ATOM      5  C   UNL     1       2.583   4.938  19.810  0.00  0.00    +0.000 C 
ATOM      6  C   UNL     1       4.149   4.910  19.869  0.00  0.00    +0.000 C 
ENDROOT
BRANCH   4   7
ATOM      7  C   UNL     1       2.203   7.471  19.707  0.00  0.00    +0.000 C 
ATOM      8  C   UNL     1       1.892   8.592  18.683  0.00  0.00    +0.000 C 
ATOM      9  C   UNL     1       1.321   7.784  20.926  0.00  0.00    +0.000 C 
ENDBRANCH   4   7
BRANCH   1  10
ATOM     10  C   UNL     1       5.438   4.089  17.919  0.00  0.00    +0.000 C 
BRANCH  10  15
ATOM     11  C   UNL     1       7.150   4.753  12.899  0.00  0.00    +0.000 C 
ATOM     12  C   UNL     1       6.942   4.805  14.373  0.00  0.00    +0.000 A 
ATOM     13  N   UNL     1       7.626   5.585  15.186  0.00  0.00    +0.000 NA
ATOM     14  C   UNL     1       7.178   5.410  16.481  0.00  0.00    +0.000 A 
ATOM     15  C   UNL     1       6.151   4.501  16.656  0.00  0.00    +0.000 A 
ATOM     16  S   UNL     1       5.748   3.821  15.128  0.00  0.00    +0.000 S 
ENDBRANCH  10  15
ENDBRANCH   1  10
BRANCH   5  17
ATOM     17  C   UNL     1       1.987   4.599  21.192  0.00  0.00    +0.000 C 
BRANCH  17  18
ATOM     18  C   UNL     1       1.641   3.124  21.378  0.00  0.00    +0.000 C 
BRANCH  18  19
ATOM     19  O   UNL     1       2.694   2.471  22.084  0.00  0.00    +0.000 OA
ATOM     20  H   UNL     1       2.313   1.712  22.555  0.00  0.00    +0.000 HD
ENDBRANCH  18  19
ENDBRANCH  17  18
ENDBRANCH   5  17
TORSDOF 6
ENDMDL
MODEL 2
REMARK VINA RESULT:      -6.0      2.590      3.829
REMARK  Name = 
REMARK  9 active torsions:
REMARK  status: ('A' for Active; 'I' for Inactive)
REMARK    1  A    between atoms: C_1  and  C_2
REMARK    2  A    between atoms: C_5  and  C_6
REMARK    3  A    between atoms: C_6  and  N_7
REMARK    4  A    between atoms: N_10  and  C_11
REMARK    5  A    between atoms: C_11  and  C_12
REMARK    6  A    between atoms: C_11  and  C_13
REMARK    7  A    between atoms: C_14  and  C_15
REMARK    8  A    between atoms: C_15  and  C_16
REMARK    9  A    between atoms: C_16  and  O_17
REMARK                            x       y       z     vdW  Elec       q    Type
REMARK                         _______ _______ _______ _____ _____    ______ ____
ROOT
ATOM      1  N   UNL     1       3.929   3.555  17.138  0.00  0.00    +0.000 NA
ATOM      2  C   UNL     1       3.994   2.509  18.172  0.00  0.00    +0.000 C 
ATOM      3  C   UNL     1       4.298   3.003  19.603  0.00  0.00    +0.000 C 
ATOM      4  N   UNL     1       3.362   4.062  20.079  0.00  0.00    +0.000 NA
ATOM      5  C   UNL     1       3.583   5.200  19.140  0.00  0.00    +0.000 C 
ATOM      6  C   UNL     1       3.368   4.831  17.632  0.00  0.00    +0.000 C 
ENDROOT
BRANCH   4   7
ATOM      7  C   UNL     1       1.970   3.527  20.224  0.00  0.00    +0.000 C 
ATOM      8  C   UNL     1       1.869   2.574  21.440  0.00  0.00    +0.000 C 
ATOM      9  C   UNL     1       0.859   4.568  20.435  0.00  0.00    +0.000 C 
ENDBRANCH   4   7
BRANCH   1  10
ATOM     10  C   UNL     1       5.177   3.692  16.378  0.00  0.00    +0.000 C 
BRANCH  10  15
ATOM     11  C   UNL     1       7.702   8.226  17.657  0.00  0.00    +0.000 C 
ATOM     12  C   UNL     1       7.231   6.817  17.544  0.00  0.00    +0.000 A 
ATOM     13  N   UNL     1       7.698   5.823  18.273  0.00  0.00    +0.000 NA
ATOM     14  C   UNL     1       7.041   4.655  17.940  0.00  0.00    +0.000 A 
ATOM     15  C   UNL     1       6.071   4.757  16.959  0.00  0.00    +0.000 A 
ATOM     16  S   UNL     1       6.000   6.389  16.419  0.00  0.00    +0.000 S 
ENDBRANCH  10  15
ENDBRANCH   1  10
BRANCH   5  17
ATOM     17  C   UNL     1       2.893   6.541  19.467  0.00  0.00    +0.000 C 
BRANCH  17  18
ATOM     18  C   UNL     1       2.581   7.398  18.244  0.00  0.00    +0.000 C 
BRANCH  18  19
ATOM     19  O   UNL     1       1.811   8.532  18.638  0.00  0.00    +0.000 OA
ATOM     20  H   UNL     1       1.495   8.974  17.833  0.00  0.00    +0.000 HD
ENDBRANCH  18  19
ENDBRANCH  17  18
ENDBRANCH   5  17
TORSDOF 6
ENDMDL
MODEL 3
REMARK VINA RESULT:      -5.9      2.582      3.881
REMARK  Name = 
REMARK  9 active torsions:
REMARK  status: ('A' for Active; 'I' for Inactive)
REMARK    1  A    between atoms: C_1  and  C_2
REMARK    2  A    between atoms: C_5  and  C_6
REMARK    3  A    between atoms: C_6  and  N_7
REMARK    4  A    between atoms: N_10  and  C_11
REMARK    5  A    between atoms: C_11  and  C_12
REMARK    6  A    between atoms: C_11  and  C_13
REMARK    7  A    between atoms: C_14  and  C_15
REMARK    8  A    between atoms: C_15  and  C_16
REMARK    9  A    between atoms: C_16  and  O_17
REMARK                            x       y       z     vdW  Elec       q    Type
REMARK                         _______ _______ _______ _____ _____    ______ ____
ROOT
ATOM      1  N   UNL     1       3.821   3.488  17.142  0.00  0.00    +0.000 NA
ATOM      2  C   UNL     1       3.983   2.499  18.222  0.00  0.00    +0.000 C 
ATOM      3  C   UNL     1       4.293   3.081  19.619  0.00  0.00    +0.000 C 
ATOM      4  N   UNL     1       3.303   4.100  20.073  0.00  0.00    +0.000 NA
ATOM      5  C   UNL     1       3.424   5.203  19.075  0.00  0.00    +0.000 C 
ATOM      6  C   UNL     1       3.193   4.747  17.593  0.00  0.00    +0.000 C 
ENDROOT
BRANCH   4   7
ATOM      7  C   UNL     1       1.954   3.485  20.285  0.00  0.00    +0.000 C 
ATOM      8  C   UNL     1       1.931   2.640  21.582  0.00  0.00    +0.000 C 
ATOM      9  C   UNL     1       0.775   4.461  20.419  0.00  0.00    +0.000 C 
ENDBRANCH   4   7
BRANCH   1  10
ATOM     10  C   UNL     1       5.036   3.666  16.340  0.00  0.00    +0.000 C 
BRANCH  10  15
ATOM     11  C   UNL     1       8.172   7.520  18.310  0.00  0.00    +0.000 C 
ATOM     12  C   UNL     1       7.159   6.723  17.564  0.00  0.00    +0.000 A 
ATOM     13  N   UNL     1       6.373   7.219  16.629  0.00  0.00    +0.000 NA
ATOM     14  C   UNL     1       5.567   6.218  16.123  0.00  0.00    +0.000 A 
ATOM     15  C   UNL     1       5.739   4.959  16.668  0.00  0.00    +0.000 A 
ATOM     16  S   UNL     1       6.951   5.044  17.885  0.00  0.00    +0.000 S 
ENDBRANCH  10  15
ENDBRANCH   1  10
BRANCH   5  17
ATOM     17  C   UNL     1       2.657   6.511  19.360  0.00  0.00    +0.000 C 
BRANCH  17  18
ATOM     18  C   UNL     1       2.941   7.631  18.364  0.00  0.00    +0.000 C 
BRANCH  18  19
ATOM     19  O   UNL     1       1.713   8.110  17.819  0.00  0.00    +0.000 OA
ATOM     20  H   UNL     1       1.014   7.478  18.056  0.00  0.00    +0.000 HD
ENDBRANCH  18  19
ENDBRANCH  17  18
ENDBRANCH   5  17
TORSDOF 6
ENDMDL
MODEL 4
REMARK VINA RESULT:      -5.8      3.681      7.196
REMARK  Name = 
REMARK  9 active torsions:
REMARK  status: ('A' for Active; 'I' for Inactive)
REMARK    1  A    between atoms: C_1  and  C_2
REMARK    2  A    between atoms: C_5  and  C_6
REMARK    3  A    between atoms: C_6  and  N_7
REMARK    4  A    between atoms: N_10  and  C_11
REMARK    5  A    between atoms: C_11  and  C_12
REMARK    6  A    between atoms: C_11  and  C_13
REMARK    7  A    between atoms: C_14  and  C_15
REMARK    8  A    between atoms: C_15  and  C_16
REMARK    9  A    between atoms: C_16  and  O_17
REMARK                            x       y       z     vdW  Elec       q    Type
REMARK                         _______ _______ _______ _____ _____    ______ ____
ROOT
ATOM      1  N   UNL     1       2.430   6.812  20.219  0.00  0.00    +0.000 NA
ATOM      2  C   UNL     1       1.580   5.768  20.818  0.00  0.00    +0.000 C 
ATOM      3  C   UNL     1       1.218   4.589  19.888  0.00  0.00    +0.000 C 
ATOM      4  N   UNL     1       2.406   3.922  19.281  0.00  0.00    +0.000 NA
ATOM      5  C   UNL     1       3.042   4.987  18.451  0.00  0.00    +0.000 C 
ATOM      6  C   UNL     1       3.414   6.281  19.252  0.00  0.00    +0.000 C 
ENDROOT
BRANCH   4   7
ATOM      7  C   UNL     1       3.241   3.250  20.327  0.00  0.00    +0.000 C 
ATOM      8  C   UNL     1       2.350   2.639  21.436  0.00  0.00    +0.000 C 
ATOM      9  C   UNL     1       4.134   2.095  19.846  0.00  0.00    +0.000 C 
ENDBRANCH   4   7
BRANCH   1  10
ATOM     10  C   UNL     1       1.666   7.969  19.737  0.00  0.00    +0.000 C 
BRANCH  10  15
ATOM     11  C   UNL     1      -1.204  11.155  22.929  0.00  0.00    +0.000 C 
ATOM     12  C   UNL     1      -0.191  10.237  22.336  0.00  0.00    +0.000 A 
ATOM     13  N   UNL     1       0.825   9.730  23.006  0.00  0.00    +0.000 NA
ATOM     14  C   UNL     1       1.561   8.907  22.177  0.00  0.00    +0.000 A 
ATOM     15  C   UNL     1       1.107   8.783  20.876  0.00  0.00    +0.000 A 
ATOM     16  S   UNL     1      -0.294   9.763  20.685  0.00  0.00    +0.000 S 
ENDBRANCH  10  15
ENDBRANCH   1  10
BRANCH   5  17
ATOM     17  C   UNL     1       4.209   4.572  17.530  0.00  0.00    +0.000 C 
BRANCH  17  18
ATOM     18  C   UNL     1       5.565   5.134  17.948  0.00  0.00    +0.000 C 
BRANCH  18  19
ATOM     19  O   UNL     1       6.458   4.062  18.240  0.00  0.00    +0.000 OA
ATOM     20  H   UNL     1       6.242   3.724  19.125  0.00  0.00    +0.000 HD
ENDBRANCH  18  19
ENDBRANCH  17  18
ENDBRANCH   5  17
TORSDOF 6
ENDMDL
MODEL 5
REMARK VINA RESULT:      -5.7      2.031      2.684
REMARK  Name = 
REMARK  9 active torsions:
REMARK  status: ('A' for Active; 'I' for Inactive)
REMARK    1  A    between atoms: C_1  and  C_2
REMARK    2  A    between atoms: C_5  and  C_6
REMARK    3  A    between atoms: C_6  and  N_7
REMARK    4  A    between atoms: N_10  and  C_11
REMARK    5  A    between atoms: C_11  and  C_12
REMARK    6  A    between atoms: C_11  and  C_13
REMARK    7  A    between atoms: C_14  and  C_15
REMARK    8  A    between atoms: C_15  and  C_16
REMARK    9  A    between atoms: C_16  and  O_17
REMARK                            x       y       z     vdW  Elec       q    Type
REMARK                         _______ _______ _______ _____ _____    ______ ____
ROOT
ATOM      1  N   UNL     1       5.235   5.251  19.290  0.00  0.00    +0.000 NA
ATOM      2  C   UNL     1       4.089   6.152  19.502  0.00  0.00    +0.000 C 
ATOM      3  C   UNL     1       2.898   5.955  18.538  0.00  0.00    +0.000 C 
ATOM      4  N   UNL     1       2.383   4.555  18.506  0.00  0.00    +0.000 NA
ATOM      5  C   UNL     1       3.531   3.751  17.995  0.00  0.00    +0.000 C 
ATOM      6  C   UNL     1       4.840   3.899  18.843  0.00  0.00    +0.000 C 
ENDROOT
BRANCH   4   7
ATOM      7  C   UNL     1       1.784   4.170  19.824  0.00  0.00    +0.000 C 
ATOM      8  C   UNL     1       1.258   5.417  20.577  0.00  0.00    +0.000 C 
ATOM      9  C   UNL     1       0.594   3.199  19.773  0.00  0.00    +0.000 C 
ENDBRANCH   4   7
BRANCH   1  10
ATOM     10  C   UNL     1       6.309   5.864  18.501  0.00  0.00    +0.000 C 
BRANCH  10  15
ATOM     11  C   UNL     1       6.398   4.009  13.489  0.00  0.00    +0.000 C 
ATOM     12  C   UNL     1       6.165   4.789  14.737  0.00  0.00    +0.000 A 
ATOM     13  N   UNL     1       5.396   5.857  14.805  0.00  0.00    +0.000 NA
ATOM     14  C   UNL     1       5.375   6.331  16.103  0.00  0.00    +0.000 A 
ATOM     15  C   UNL     1       6.126   5.623  17.024  0.00  0.00    +0.000 A 
ATOM     16  S   UNL     1       6.907   4.320  16.218  0.00  0.00    +0.000 S 
ENDBRANCH  10  15
ENDBRANCH   1  10
BRANCH   5  17
ATOM     17  C   UNL     1       3.271   2.267  17.663  0.00  0.00    +0.000 C 
BRANCH  17  18
ATOM     18  C   UNL     1       3.502   1.315  18.834  0.00  0.00    +0.000 C 
BRANCH  18  19
ATOM     19  O   UNL     1       4.496   0.355  18.481  0.00  0.00    +0.000 OA
ATOM     20  H   UNL     1       4.621  -0.239  19.240  0.00  0.00    +0.000 HD
ENDBRANCH  18  19
ENDBRANCH  17  18
ENDBRANCH   5  17
TORSDOF 6
ENDMDL
MODEL 6
REMARK VINA RESULT:      -5.6      3.547      6.444
REMARK  Name = 
REMARK  9 active torsions:
REMARK  status: ('A' for Active; 'I' for Inactive)
REMARK    1  A    between atoms: C_1  and  C_2
REMARK    2  A    between atoms: C_5  and  C_6
REMARK    3  A    between atoms: C_6  and  N_7
REMARK    4  A    between atoms: N_10  and  C_11
REMARK    5  A    between atoms: C_11  and  C_12
REMARK    6  A    between atoms: C_11  and  C_13
REMARK    7  A    between atoms: C_14  and  C_15
REMARK    8  A    between atoms: C_15  and  C_16
REMARK    9  A    between atoms: C_16  and  O_17
REMARK                            x       y       z     vdW  Elec       q    Type
REMARK                         _______ _______ _______ _____ _____    ______ ____
ROOT
ATOM      1  N   UNL     1       2.840   6.414  18.890  0.00  0.00    +0.000 NA
ATOM      2  C   UNL     1       1.972   5.322  18.418  0.00  0.00    +0.000 C 
ATOM      3  C   UNL     1       2.663   4.249  17.547  0.00  0.00    +0.000 C 
ATOM      4  N   UNL     1       3.860   3.638  18.193  0.00  0.00    +0.000 NA
ATOM      5  C   UNL     1       4.809   4.777  18.364  0.00  0.00    +0.000 C 
ATOM      6  C   UNL     1       4.222   5.977  19.182  0.00  0.00    +0.000 C 
ENDROOT
BRANCH   4   7
ATOM      7  C   UNL     1       3.476   2.852  19.408  0.00  0.00    +0.000 C 
ATOM      8  C   UNL     1       2.255   1.946  19.116  0.00  0.00    +0.000 C 
ATOM      9  C   UNL     1       4.549   1.911  19.978  0.00  0.00    +0.000 C 
ENDBRANCH   4   7
BRANCH   1  10
ATOM     10  C   UNL     1       2.746   7.622  18.062  0.00  0.00    +0.000 C 
BRANCH  10  15
ATOM     11  C   UNL     1      -0.341  10.588  21.263  0.00  0.00    +0.000 C 
ATOM     12  C   UNL     1       0.399   9.995  20.114  0.00  0.00    +0.000 A 
ATOM     13  N   UNL     1       0.387  10.492  18.894  0.00  0.00    +0.000 NA
ATOM     14  C   UNL     1       1.187   9.723  18.072  0.00  0.00    +0.000 A 
ATOM     15  C   UNL     1       1.813   8.641  18.665  0.00  0.00    +0.000 A 
ATOM     16  S   UNL     1       1.355   8.578  20.322  0.00  0.00    +0.000 S 
ENDBRANCH  10  15
ENDBRANCH   1  10
BRANCH   5  17
ATOM     17  C   UNL     1       6.239   4.449  18.842  0.00  0.00    +0.000 C 
BRANCH  17  18
ATOM     18  C   UNL     1       7.089   5.677  19.157  0.00  0.00    +0.000 C 
BRANCH  18  19
ATOM     19  O   UNL     1       7.814   5.459  20.366  0.00  0.00    +0.000 OA
ATOM     20  H   UNL     1       7.616   4.560  20.676  0.00  0.00    +0.000 HD
ENDBRANCH  18  19
ENDBRANCH  17  18
ENDBRANCH   5  17
TORSDOF 6
ENDMDL
MODEL 7
REMARK VINA RESULT:      -5.6      1.632      1.823
REMARK  Name = 
REMARK  9 active torsions:
REMARK  status: ('A' for Active; 'I' for Inactive)
REMARK    1  A    between atoms: C_1  and  C_2
REMARK    2  A    between atoms: C_5  and  C_6
REMARK    3  A    between atoms: C_6  and  N_7
REMARK    4  A    between atoms: N_10  and  C_11
REMARK    5  A    between atoms: C_11  and  C_12
REMARK    6  A    between atoms: C_11  and  C_13
REMARK    7  A    between atoms: C_14  and  C_15
REMARK    8  A    between atoms: C_15  and  C_16
REMARK    9  A    between atoms: C_16  and  O_17
REMARK                            x       y       z     vdW  Elec       q    Type
REMARK                         _______ _______ _______ _____ _____    ______ ____
ROOT
ATOM      1  N   UNL     1       6.253   5.397  18.486  0.00  0.00    +0.000 NA
ATOM      2  C   UNL     1       5.732   6.527  17.698  0.00  0.00    +0.000 C 
ATOM      3  C   UNL     1       4.392   6.273  16.973  0.00  0.00    +0.000 C 
ATOM      4  N   UNL     1       3.304   5.804  17.879  0.00  0.00    +0.000 NA
ATOM      5  C   UNL     1       3.799   4.499  18.407  0.00  0.00    +0.000 C 
ATOM      6  C   UNL     1       5.190   4.589  19.122  0.00  0.00    +0.000 C 
ENDROOT
BRANCH   4   7
ATOM      7  C   UNL     1       2.927   6.867  18.866  0.00  0.00    +0.000 C 
ATOM      8  C   UNL     1       2.235   8.057  18.158  0.00  0.00    +0.000 C 
ATOM      9  C   UNL     1       1.961   6.446  19.984  0.00  0.00    +0.000 C 
ENDBRANCH   4   7
BRANCH   1  10
ATOM     10  C   UNL     1       7.267   4.615  17.769  0.00  0.00    +0.000 C 
BRANCH  10  15
ATOM     11  C   UNL     1       5.533   3.627  12.810  0.00  0.00    +0.000 C 
ATOM     12  C   UNL     1       6.229   4.147  14.021  0.00  0.00    +0.000 A 
ATOM     13  N   UNL     1       7.105   5.132  14.001  0.00  0.00    +0.000 NA
ATOM     14  C   UNL     1       7.548   5.384  15.285  0.00  0.00    +0.000 A 
ATOM     15  C   UNL     1       7.009   4.594  16.284  0.00  0.00    +0.000 A 
ATOM     16  S   UNL     1       5.915   3.472  15.573  0.00  0.00    +0.000 S 
ENDBRANCH  10  15
ENDBRANCH   1  10
BRANCH   5  17
ATOM     17  C   UNL     1       2.820   3.649  19.243  0.00  0.00    +0.000 C 
BRANCH  17  18
ATOM     18  C   UNL     1       1.667   3.053  18.439  0.00  0.00    +0.000 C 
BRANCH  18  19
ATOM     19  O   UNL     1       1.654   1.636  18.601  0.00  0.00    +0.000 OA
ATOM     20  H   UNL     1       1.500   1.236  17.729  0.00  0.00    +0.000 HD
ENDBRANCH  18  19
ENDBRANCH  17  18
ENDBRANCH   5  17
TORSDOF 6
ENDMDL
MODEL 8
REMARK VINA RESULT:      -5.6      1.866      3.150
REMARK  Name = 
REMARK  9 active torsions:
REMARK  status: ('A' for Active; 'I' for Inactive)
REMARK    1  A    between atoms: C_1  and  C_2
REMARK    2  A    between atoms: C_5  and  C_6
REMARK    3  A    between atoms: C_6  and  N_7
REMARK    4  A    between atoms: N_10  and  C_11
REMARK    5  A    between atoms: C_11  and  C_12
REMARK    6  A    between atoms: C_11  and  C_13
REMARK    7  A    between atoms: C_14  and  C_15
REMARK    8  A    between atoms: C_15  and  C_16
REMARK    9  A    between atoms: C_16  and  O_17
REMARK                            x       y       z     vdW  Elec       q    Type
REMARK                         _______ _______ _______ _____ _____    ______ ____
ROOT
ATOM      1  N   UNL     1       3.894   5.146  17.474  0.00  0.00    +0.000 NA
ATOM      2  C   UNL     1       4.436   3.883  18.004  0.00  0.00    +0.000 C 
ATOM      3  C   UNL     1       4.544   3.797  19.542  0.00  0.00    +0.000 C 
ATOM      4  N   UNL     1       3.260   4.079  20.247  0.00  0.00    +0.000 NA
ATOM      5  C   UNL     1       2.942   5.491  19.884  0.00  0.00    +0.000 C 
ATOM      6  C   UNL     1       2.858   5.747  18.340  0.00  0.00    +0.000 C 
ENDROOT
BRANCH   4   7
ATOM      7  C   UNL     1       2.238   3.026  19.948  0.00  0.00    +0.000 C 
ATOM      8  C   UNL     1       1.514   2.576  21.241  0.00  0.00    +0.000 C 
ATOM      9  C   UNL     1       1.116   3.424  18.976  0.00  0.00    +0.000 C 
ENDBRANCH   4   7
BRANCH   1  10
ATOM     10  C   UNL     1       4.939   6.080  17.036  0.00  0.00    +0.000 C 
BRANCH  10  15
ATOM     11  C   UNL     1       6.691   3.702  12.581  0.00  0.00    +0.000 C 
ATOM     12  C   UNL     1       6.560   4.429  13.875  0.00  0.00    +0.000 A 
ATOM     13  N   UNL     1       7.573   4.970  14.522  0.00  0.00    +0.000 NA
ATOM     14  C   UNL     1       7.114   5.584  15.670  0.00  0.00    +0.000 A 
ATOM     15  C   UNL     1       5.752   5.515  15.899  0.00  0.00    +0.000 A 
ATOM     16  S   UNL     1       5.022   4.620  14.624  0.00  0.00    +0.000 S 
ENDBRANCH  10  15
ENDBRANCH   1  10
BRANCH   5  17
ATOM     17  C   UNL     1       1.756   6.163  20.605  0.00  0.00    +0.000 C 
BRANCH  17  18
ATOM     18  C   UNL     1       1.715   7.682  20.458  0.00  0.00    +0.000 C 
BRANCH  18  19
ATOM     19  O   UNL     1       1.701   8.287  21.749  0.00  0.00    +0.000 OA
ATOM     20  H   UNL     1       0.953   7.916  22.246  0.00  0.00    +0.000 HD
ENDBRANCH  18  19
ENDBRANCH  17  18
ENDBRANCH   5  17
TORSDOF 6
ENDMDL
MODEL 9
REMARK VINA RESULT:      -5.5      3.400      6.746
REMARK  Name = 
REMARK  9 active torsions:
REMARK  status: ('A' for Active; 'I' for Inactive)
REMARK    1  A    between atoms: C_1  and  C_2
REMARK    2  A    between atoms: C_5  and  C_6
REMARK    3  A    between atoms: C_6  and  N_7
REMARK    4  A    between atoms: N_10  and  C_11
REMARK    5  A    between atoms: C_11  and  C_12
REMARK    6  A    between atoms: C_11  and  C_13
REMARK    7  A    between atoms: C_14  and  C_15
REMARK    8  A    between atoms: C_15  and  C_16
REMARK    9  A    between atoms: C_16  and  O_17
REMARK                            x       y       z     vdW  Elec       q    Type
REMARK                         _______ _______ _______ _____ _____    ______ ____
ROOT
ATOM      1  N   UNL     1       2.749   6.312  19.120  0.00  0.00    +0.000 NA
ATOM      2  C   UNL     1       1.597   5.418  18.910  0.00  0.00    +0.000 C 
ATOM      3  C   UNL     1       1.677   4.508  17.665  0.00  0.00    +0.000 C 
ATOM      4  N   UNL     1       2.917   3.681  17.609  0.00  0.00    +0.000 NA
ATOM      5  C   UNL     1       4.023   4.679  17.525  0.00  0.00    +0.000 C 
ATOM      6  C   UNL     1       4.035   5.716  18.699  0.00  0.00    +0.000 C 
ENDROOT
BRANCH   4   7
ATOM      7  C   UNL     1       2.951   2.683  18.726  0.00  0.00    +0.000 C 
ATOM      8  C   UNL     1       1.524   2.192  19.071  0.00  0.00    +0.000 C 
ATOM      9  C   UNL     1       3.766   1.406  18.473  0.00  0.00    +0.000 C 
ENDBRANCH   4   7
BRANCH   1  10
ATOM     10  C   UNL     1       2.518   7.673  18.624  0.00  0.00    +0.000 C 
BRANCH  10  15
ATOM     11  C   UNL     1      -0.238   9.639  22.761  0.00  0.00    +0.000 C 
ATOM     12  C   UNL     1       0.357   9.358  21.424  0.00  0.00    +0.000 A 
ATOM     13  N   UNL     1       0.124  10.080  20.347  0.00  0.00    +0.000 NA
ATOM     14  C   UNL     1       0.840   9.569  19.282  0.00  0.00    +0.000 A 
ATOM     15  C   UNL     1       1.621   8.459  19.547  0.00  0.00    +0.000 A 
ATOM     16  S   UNL     1       1.427   8.028  21.201  0.00  0.00    +0.000 S 
ENDBRANCH  10  15
ENDBRANCH   1  10
BRANCH   5  17
ATOM     17  C   UNL     1       5.447   4.145  17.265  0.00  0.00    +0.000 C 
BRANCH  17  18
ATOM     18  C   UNL     1       6.548   4.938  17.965  0.00  0.00    +0.000 C 
BRANCH  18  19
ATOM     19  O   UNL     1       7.758   4.183  17.959  0.00  0.00    +0.000 OA
ATOM     20  H   UNL     1       8.502   4.809  17.940  0.00  0.00    +0.000 HD
ENDBRANCH  18  19
ENDBRANCH  17  18
ENDBRANCH   5  17
TORSDOF 6
ENDMDL
