MODEL 1
REMARK VINA RESULT:      -7.9      0.000      0.000
REMARK  Name = 
REMARK  4 active torsions:
REMARK  status: ('A' for Active; 'I' for Inactive)
REMARK    1  A    between atoms: C_1  and  C_2
REMARK    2  A    between atoms: C_4  and  C_5
REMARK    3  A    between atoms: C_5  and  C_6
REMARK    4  A    between atoms: C_6  and  O_8
REMARK                            x       y       z     vdW  Elec       q    Type
REMARK                         _______ _______ _______ _____ _____    ______ ____
ROOT
ATOM      1  C   UNL     1       6.694   7.030  17.119  0.00  0.00    +0.000 C 
ATOM      2  C   UNL     1       5.874   6.019  16.314  0.00  0.00    +0.000 C 
ATOM      3  O   UNL     1       6.847   5.153  15.686  0.00  0.00    +0.000 OA
ATOM      4  C   UNL     1       6.295   4.022  14.990  0.00  0.00    +0.000 C 
ATOM      5  C   UNL     1       5.573   3.116  16.002  0.00  0.00    +0.000 C 
ATOM      6  C   UNL     1       4.738   3.890  16.984  0.00  0.00    +0.000 C 
ATOM      7  C   UNL     1       4.858   5.224  17.105  0.00  0.00    +0.000 C 
ATOM      8  C   UNL     1       3.920   5.975  17.972  0.00  0.00    +0.000 C 
ATOM      9  O   UNL     1       3.837   7.197  17.912  0.00  0.00    +0.000 OA
ATOM     10  C   UNL     1       3.035   5.223  18.875  0.00  0.00    +0.000 A 
ATOM     11  C   UNL     1       2.255   5.917  19.810  0.00  0.00    +0.000 A 
ATOM     12  C   UNL     1       1.375   5.222  20.638  0.00  0.00    +0.000 A 
ATOM     13  C   UNL     1       1.269   3.835  20.534  0.00  0.00    +0.000 A 
ATOM     14  C   UNL     1       2.054   3.140  19.606  0.00  0.00    +0.000 A 
ATOM     15  C   UNL     1       2.941   3.839  18.776  0.00  0.00    +0.000 A 
ATOM     16  C   UNL     1       3.754   3.111  17.786  0.00  0.00    +0.000 C 
ATOM     17  O   UNL     1       3.629   1.903  17.638  0.00  0.00    +0.000 OA
ENDROOT
BRANCH   4  18
ATOM     18  C   UNL     1       5.454   4.493  13.797  0.00  0.00    +0.000 C 
BRANCH  18  19
ATOM     19  C   UNL     1       5.498   3.542  12.634  0.00  0.00    +0.000 C 
ATOM     20  O   UNL     1       4.571   3.342  11.864  0.00  0.00    +0.000 OA
BRANCH  19  21
ATOM     21  O   UNL     1       6.678   2.892  12.534  0.00  0.00    +0.000 OA
ATOM     22  H   UNL     1       6.891   2.559  11.640  0.00  0.00    +0.000 HD
ENDBRANCH  19  21
ENDBRANCH  18  19
ENDBRANCH   4  18
TORSDOF 3
ENDMDL
MODEL 2
REMARK VINA RESULT:      -7.7      1.755      4.221
REMARK  Name = 
REMARK  4 active torsions:
REMARK  status: ('A' for Active; 'I' for Inactive)
REMARK    1  A    between atoms: C_1  and  C_2
REMARK    2  A    between atoms: C_4  and  C_5
REMARK    3  A    between atoms: C_5  and  C_6
REMARK    4  A    between atoms: C_6  and  O_8
REMARK                            x       y       z     vdW  Elec       q    Type
REMARK                         _______ _______ _______ _____ _____    ______ ____
ROOT
ATOM      1  C   UNL     1       5.128   3.870  14.700  0.00  0.00    +0.000 C 
ATOM      2  C   UNL     1       5.521   4.672  15.942  0.00  0.00    +0.000 C 
ATOM      3  O   UNL     1       5.818   6.001  15.460  0.00  0.00    +0.000 OA
ATOM      4  C   UNL     1       6.070   6.978  16.486  0.00  0.00    +0.000 C 
ATOM      5  C   UNL     1       4.797   7.153  17.333  0.00  0.00    +0.000 C 
ATOM      6  C   UNL     1       4.138   5.845  17.670  0.00  0.00    +0.000 C 
ATOM      7  C   UNL     1       4.491   4.704  17.051  0.00  0.00    +0.000 C 
ATOM      8  C   UNL     1       3.929   3.411  17.507  0.00  0.00    +0.000 C 
ATOM      9  O   UNL     1       4.411   2.343  17.144  0.00  0.00    +0.000 OA
ATOM     10  C   UNL     1       2.812   3.424  18.464  0.00  0.00    +0.000 A 
ATOM     11  C   UNL     1       2.169   2.222  18.787  0.00  0.00    +0.000 A 
ATOM     12  C   UNL     1       1.141   2.210  19.728  0.00  0.00    +0.000 A 
ATOM     13  C   UNL     1       0.754   3.397  20.351  0.00  0.00    +0.000 A 
ATOM     14  C   UNL     1       1.389   4.600  20.022  0.00  0.00    +0.000 A 
ATOM     15  C   UNL     1       2.421   4.611  19.074  0.00  0.00    +0.000 A 
ATOM     16  C   UNL     1       3.104   5.873  18.740  0.00  0.00    +0.000 C 
ATOM     17  O   UNL     1       2.820   6.913  19.322  0.00  0.00    +0.000 OA
ENDROOT
BRANCH   4  18
ATOM     18  C   UNL     1       7.343   6.615  17.260  0.00  0.00    +0.000 C 
BRANCH  18  19
ATOM     19  C   UNL     1       7.921   7.778  18.019  0.00  0.00    +0.000 C 
ATOM     20  O   UNL     1       7.805   8.949  17.692  0.00  0.00    +0.000 OA
BRANCH  19  21
ATOM     21  O   UNL     1       8.622   7.395  19.109  0.00  0.00    +0.000 OA
ATOM     22  H   UNL     1       8.524   7.977  19.887  0.00  0.00    +0.000 HD
ENDBRANCH  19  21
ENDBRANCH  18  19
ENDBRANCH   4  18
TORSDOF 3
ENDMDL
MODEL 3
REMARK VINA RESULT:      -7.7      0.970      1.170
REMARK  Name = 
REMARK  4 active torsions:
REMARK  status: ('A' for Active; 'I' for Inactive)
REMARK    1  A    between atoms: C_1  and  C_2
REMARK    2  A    between atoms: C_4  and  C_5
REMARK    3  A    between atoms: C_5  and  C_6
REMARK    4  A    between atoms: C_6  and  O_8
REMARK                            x       y       z     vdW  Elec       q    Type
REMARK                         _______ _______ _______ _____ _____    ______ ____
ROOT
ATOM      1  C   UNL     1       7.221   7.117  17.491  0.00  0.00    +0.000 C 
ATOM      2  C   UNL     1       6.427   6.151  16.610  0.00  0.00    +0.000 C 
ATOM      3  O   UNL     1       7.397   5.198  16.120  0.00  0.00    +0.000 OA
ATOM      4  C   UNL     1       6.844   4.094  15.380  0.00  0.00    +0.000 C 
ATOM      5  C   UNL     1       5.937   3.272  16.313  0.00  0.00    +0.000 C 
ATOM      6  C   UNL     1       5.054   4.133  17.173  0.00  0.00    +0.000 C 
ATOM      7  C   UNL     1       5.264   5.457  17.285  0.00  0.00    +0.000 C 
ATOM      8  C   UNL     1       4.291   6.300  18.020  0.00  0.00    +0.000 C 
ATOM      9  O   UNL     1       4.312   7.522  17.930  0.00  0.00    +0.000 OA
ATOM     10  C   UNL     1       3.248   5.641  18.821  0.00  0.00    +0.000 A 
ATOM     11  C   UNL     1       2.419   6.416  19.643  0.00  0.00    +0.000 A 
ATOM     12  C   UNL     1       1.394   5.812  20.370  0.00  0.00    +0.000 A 
ATOM     13  C   UNL     1       1.192   4.435  20.276  0.00  0.00    +0.000 A 
ATOM     14  C   UNL     1       2.026   3.659  19.462  0.00  0.00    +0.000 A 
ATOM     15  C   UNL     1       3.057   4.266  18.734  0.00  0.00    +0.000 A 
ATOM     16  C   UNL     1       3.924   3.453  17.863  0.00  0.00    +0.000 C 
ATOM     17  O   UNL     1       3.722   2.254  17.720  0.00  0.00    +0.000 OA
ENDROOT
BRANCH   4  18
ATOM     18  C   UNL     1       6.191   4.597  14.087  0.00  0.00    +0.000 C 
BRANCH  18  19
ATOM     19  C   UNL     1       7.182   4.828  12.980  0.00  0.00    +0.000 C 
ATOM     20  O   UNL     1       7.155   4.269  11.894  0.00  0.00    +0.000 OA
BRANCH  19  21
ATOM     21  O   UNL     1       8.147   5.713  13.317  0.00  0.00    +0.000 OA
ATOM     22  H   UNL     1       8.883   5.782  12.678  0.00  0.00    +0.000 HD
ENDBRANCH  19  21
ENDBRANCH  18  19
ENDBRANCH   4  18
TORSDOF 3
ENDMDL
MODEL 4
REMARK VINA RESULT:      -7.5      1.703      2.153
REMARK  Name = 
REMARK  4 active torsions:
REMARK  status: ('A' for Active; 'I' for Inactive)
REMARK    1  A    between atoms: C_1  and  C_2
REMARK    2  A    between atoms: C_4  and  C_5
REMARK    3  A    between atoms: C_5  and  C_6
REMARK    4  A    between atoms: C_6  and  O_8
REMARK                            x       y       z     vdW  Elec       q    Type
REMARK                         _______ _______ _______ _____ _____    ______ ____
ROOT
ATOM      1  C   UNL     1       3.980   7.483  17.056  0.00  0.00    +0.000 C 
ATOM      2  C   UNL     1       4.501   6.059  16.848  0.00  0.00    +0.000 C 
ATOM      3  O   UNL     1       5.934   6.193  16.719  0.00  0.00    +0.000 OA
ATOM      4  C   UNL     1       6.658   4.950  16.664  0.00  0.00    +0.000 C 
ATOM      5  C   UNL     1       6.461   4.198  17.992  0.00  0.00    +0.000 C 
ATOM      6  C   UNL     1       5.039   4.232  18.475  0.00  0.00    +0.000 C 
ATOM      7  C   UNL     1       4.135   5.066  17.930  0.00  0.00    +0.000 C 
ATOM      8  C   UNL     1       2.709   4.972  18.325  0.00  0.00    +0.000 C 
ATOM      9  O   UNL     1       1.831   5.531  17.677  0.00  0.00    +0.000 OA
ATOM     10  C   UNL     1       2.350   4.139  19.482  0.00  0.00    +0.000 A 
ATOM     11  C   UNL     1       1.034   4.159  19.963  0.00  0.00    +0.000 A 
ATOM     12  C   UNL     1       0.666   3.339  21.028  0.00  0.00    +0.000 A 
ATOM     13  C   UNL     1       1.608   2.493  21.613  0.00  0.00    +0.000 A 
ATOM     14  C   UNL     1       2.926   2.478  21.139  0.00  0.00    +0.000 A 
ATOM     15  C   UNL     1       3.296   3.305  20.071  0.00  0.00    +0.000 A 
ATOM     16  C   UNL     1       4.677   3.277  19.558  0.00  0.00    +0.000 C 
ATOM     17  O   UNL     1       5.500   2.497  20.018  0.00  0.00    +0.000 OA
ENDROOT
BRANCH   4  18
ATOM     18  C   UNL     1       6.282   4.174  15.396  0.00  0.00    +0.000 C 
BRANCH  18  19
ATOM     19  C   UNL     1       6.959   4.702  14.162  0.00  0.00    +0.000 C 
ATOM     20  O   UNL     1       6.716   4.333  13.023  0.00  0.00    +0.000 OA
BRANCH  19  21
ATOM     21  O   UNL     1       7.904   5.628  14.439  0.00  0.00    +0.000 OA
ATOM     22  H   UNL     1       8.016   6.319  13.757  0.00  0.00    +0.000 HD
ENDBRANCH  19  21
ENDBRANCH  18  19
ENDBRANCH   4  18
TORSDOF 3
ENDMDL
MODEL 5
REMARK VINA RESULT:      -7.5      1.788      4.231
REMARK  Name = 
REMARK  4 active torsions:
REMARK  status: ('A' for Active; 'I' for Inactive)
REMARK    1  A    between atoms: C_1  and  C_2
REMARK    2  A    between atoms: C_4  and  C_5
REMARK    3  A    between atoms: C_5  and  C_6
REMARK    4  A    between atoms: C_6  and  O_8
REMARK                            x       y       z     vdW  Elec       q    Type
REMARK                         _______ _______ _______ _____ _____    ______ ____
ROOT
ATOM      1  C   UNL     1       5.210   3.842  14.626  0.00  0.00    +0.000 C 
ATOM      2  C   UNL     1       5.686   4.382  15.976  0.00  0.00    +0.000 C 
ATOM      3  O   UNL     1       6.254   5.680  15.688  0.00  0.00    +0.000 OA
ATOM      4  C   UNL     1       6.635   6.446  16.845  0.00  0.00    +0.000 C 
ATOM      5  C   UNL     1       5.379   6.753  17.678  0.00  0.00    +0.000 C 
ATOM      6  C   UNL     1       4.468   5.566  17.816  0.00  0.00    +0.000 C 
ATOM      7  C   UNL     1       4.627   4.469  17.054  0.00  0.00    +0.000 C 
ATOM      8  C   UNL     1       3.809   3.262  17.315  0.00  0.00    +0.000 C 
ATOM      9  O   UNL     1       4.096   2.178  16.818  0.00  0.00    +0.000 OA
ATOM     10  C   UNL     1       2.668   3.367  18.237  0.00  0.00    +0.000 A 
ATOM     11  C   UNL     1       1.793   2.281  18.376  0.00  0.00    +0.000 A 
ATOM     12  C   UNL     1       0.736   2.347  19.282  0.00  0.00    +0.000 A 
ATOM     13  C   UNL     1       0.551   3.494  20.054  0.00  0.00    +0.000 A 
ATOM     14  C   UNL     1       1.419   4.583  19.909  0.00  0.00    +0.000 A 
ATOM     15  C   UNL     1       2.480   4.517  18.996  0.00  0.00    +0.000 A 
ATOM     16  C   UNL     1       3.405   5.655  18.856  0.00  0.00    +0.000 C 
ATOM     17  O   UNL     1       3.296   6.644  19.568  0.00  0.00    +0.000 OA
ENDROOT
BRANCH   4  18
ATOM     18  C   UNL     1       7.776   5.744  17.592  0.00  0.00    +0.000 C 
BRANCH  18  19
ATOM     19  C   UNL     1       7.915   6.201  19.017  0.00  0.00    +0.000 C 
ATOM     20  O   UNL     1       7.480   5.600  19.986  0.00  0.00    +0.000 OA
BRANCH  19  21
ATOM     21  O   UNL     1       8.560   7.385  19.127  0.00  0.00    +0.000 OA
ATOM     22  H   UNL     1       9.439   7.415  18.702  0.00  0.00    +0.000 HD
ENDBRANCH  19  21
ENDBRANCH  18  19
ENDBRANCH   4  18
TORSDOF 3
ENDMDL
MODEL 6
REMARK VINA RESULT:      -7.4      2.403      4.532
REMARK  Name = 
REMARK  4 active torsions:
REMARK  status: ('A' for Active; 'I' for Inactive)
REMARK    1  A    between atoms: C_1  and  C_2
REMARK    2  A    between atoms: C_4  and  C_5
REMARK    3  A    between atoms: C_5  and  C_6
REMARK    4  A    between atoms: C_6  and  O_8
REMARK                            x       y       z     vdW  Elec       q    Type
REMARK                         _______ _______ _______ _____ _____    ______ ____
ROOT
ATOM      1  C   UNL     1       2.356   3.012  19.126  0.00  0.00    +0.000 C 
ATOM      2  C   UNL     1       3.389   4.110  18.862  0.00  0.00    +0.000 C 
ATOM      3  O   UNL     1       3.884   3.854  17.529  0.00  0.00    +0.000 OA
ATOM      4  C   UNL     1       4.769   4.861  17.006  0.00  0.00    +0.000 C 
ATOM      5  C   UNL     1       3.999   6.187  16.881  0.00  0.00    +0.000 C 
ATOM      6  C   UNL     1       3.138   6.475  18.079  0.00  0.00    +0.000 C 
ATOM      7  C   UNL     1       2.883   5.529  19.000  0.00  0.00    +0.000 C 
ATOM      8  C   UNL     1       2.155   5.883  20.242  0.00  0.00    +0.000 C 
ATOM      9  O   UNL     1       2.126   5.122  21.203  0.00  0.00    +0.000 OA
ATOM     10  C   UNL     1       1.511   7.203  20.332  0.00  0.00    +0.000 A 
ATOM     11  C   UNL     1       0.692   7.496  21.431  0.00  0.00    +0.000 A 
ATOM     12  C   UNL     1       0.115   8.758  21.555  0.00  0.00    +0.000 A 
ATOM     13  C   UNL     1       0.356   9.733  20.586  0.00  0.00    +0.000 A 
ATOM     14  C   UNL     1       1.167   9.438  19.484  0.00  0.00    +0.000 A 
ATOM     15  C   UNL     1       1.745   8.168  19.358  0.00  0.00    +0.000 A 
ATOM     16  C   UNL     1       2.614   7.863  18.208  0.00  0.00    +0.000 C 
ATOM     17  O   UNL     1       2.886   8.724  17.381  0.00  0.00    +0.000 OA
ENDROOT
BRANCH   4  18
ATOM     18  C   UNL     1       6.059   4.913  17.834  0.00  0.00    +0.000 C 
BRANCH  18  19
ATOM     19  C   UNL     1       7.301   4.935  16.987  0.00  0.00    +0.000 C 
ATOM     20  O   UNL     1       7.484   5.683  16.039  0.00  0.00    +0.000 OA
BRANCH  19  21
ATOM     21  O   UNL     1       8.209   4.007  17.365  0.00  0.00    +0.000 OA
ATOM     22  H   UNL     1       7.831   3.205  17.774  0.00  0.00    +0.000 HD
ENDBRANCH  19  21
ENDBRANCH  18  19
ENDBRANCH   4  18
TORSDOF 3
ENDMDL
MODEL 7
REMARK VINA RESULT:      -7.2      1.767      2.588
REMARK  Name = 
REMARK  4 active torsions:
REMARK  status: ('A' for Active; 'I' for Inactive)
REMARK    1  A    between atoms: C_1  and  C_2
REMARK    2  A    between atoms: C_4  and  C_5
REMARK    3  A    between atoms: C_5  and  C_6
REMARK    4  A    between atoms: C_6  and  O_8
REMARK                            x       y       z     vdW  Elec       q    Type
REMARK                         _______ _______ _______ _____ _____    ______ ____
ROOT
ATOM      1  C   UNL     1       2.940   8.314  17.776  0.00  0.00    +0.000 C 
ATOM      2  C   UNL     1       3.675   7.078  17.252  0.00  0.00    +0.000 C 
ATOM      3  O   UNL     1       5.035   7.511  17.026  0.00  0.00    +0.000 OA
ATOM      4  C   UNL     1       5.955   6.463  16.669  0.00  0.00    +0.000 C 
ATOM      5  C   UNL     1       6.059   5.469  17.838  0.00  0.00    +0.000 C 
ATOM      6  C   UNL     1       4.722   5.138  18.441  0.00  0.00    +0.000 C 
ATOM      7  C   UNL     1       3.625   5.860  18.150  0.00  0.00    +0.000 C 
ATOM      8  C   UNL     1       2.298   5.421  18.642  0.00  0.00    +0.000 C 
ATOM      9  O   UNL     1       1.262   5.900  18.194  0.00  0.00    +0.000 OA
ATOM     10  C   UNL     1       2.236   4.345  19.643  0.00  0.00    +0.000 A 
ATOM     11  C   UNL     1       1.007   4.023  20.233  0.00  0.00    +0.000 A 
ATOM     12  C   UNL     1       0.923   2.974  21.146  0.00  0.00    +0.000 A 
ATOM     13  C   UNL     1       2.064   2.242  21.472  0.00  0.00    +0.000 A 
ATOM     14  C   UNL     1       3.295   2.568  20.891  0.00  0.00    +0.000 A 
ATOM     15  C   UNL     1       3.379   3.625  19.974  0.00  0.00    +0.000 A 
ATOM     16  C   UNL     1       4.670   3.958  19.347  0.00  0.00    +0.000 C 
ATOM     17  O   UNL     1       5.669   3.287  19.573  0.00  0.00    +0.000 OA
ENDROOT
BRANCH   4  18
ATOM     18  C   UNL     1       5.570   5.861  15.312  0.00  0.00    +0.000 C 
BRANCH  18  19
ATOM     19  C   UNL     1       6.571   4.859  14.808  0.00  0.00    +0.000 C 
ATOM     20  O   UNL     1       6.361   3.662  14.694  0.00  0.00    +0.000 OA
BRANCH  19  21
ATOM     21  O   UNL     1       7.765   5.418  14.510  0.00  0.00    +0.000 OA
ATOM     22  H   UNL     1       8.461   5.288  15.184  0.00  0.00    +0.000 HD
ENDBRANCH  19  21
ENDBRANCH  18  19
ENDBRANCH   4  18
TORSDOF 3
ENDMDL
MODEL 8
REMARK VINA RESULT:      -7.2      2.705      4.278
REMARK  Name = 
REMARK  4 active torsions:
REMARK  status: ('A' for Active; 'I' for Inactive)
REMARK    1  A    between atoms: C_1  and  C_2
REMARK    2  A    between atoms: C_4  and  C_5
REMARK    3  A    between atoms: C_5  and  C_6
REMARK    4  A    between atoms: C_6  and  O_8
REMARK                            x       y       z     vdW  Elec       q    Type
REMARK                         _______ _______ _______ _____ _____    ______ ____
ROOT
ATOM      1  C   UNL     1       5.694   6.751  16.798  0.00  0.00    +0.000 C 
ATOM      2  C   UNL     1       4.626   5.744  17.229  0.00  0.00    +0.000 C 
ATOM      3  O   UNL     1       5.358   4.598  17.718  0.00  0.00    +0.000 OA
ATOM      4  C   UNL     1       4.549   3.573  18.322  0.00  0.00    +0.000 C 
ATOM      5  C   UNL     1       3.862   4.149  19.572  0.00  0.00    +0.000 C 
ATOM      6  C   UNL     1       3.304   5.526  19.346  0.00  0.00    +0.000 C 
ATOM      7  C   UNL     1       3.634   6.245  18.257  0.00  0.00    +0.000 C 
ATOM      8  C   UNL     1       2.955   7.534  17.988  0.00  0.00    +0.000 C 
ATOM      9  O   UNL     1       3.042   8.085  16.896  0.00  0.00    +0.000 OA
ATOM     10  C   UNL     1       2.114   8.124  19.041  0.00  0.00    +0.000 A 
ATOM     11  C   UNL     1       1.590   9.411  18.864  0.00  0.00    +0.000 A 
ATOM     12  C   UNL     1       0.752   9.964  19.830  0.00  0.00    +0.000 A 
ATOM     13  C   UNL     1       0.430   9.232  20.974  0.00  0.00    +0.000 A 
ATOM     14  C   UNL     1       0.960   7.949  21.156  0.00  0.00    +0.000 A 
ATOM     15  C   UNL     1       1.805   7.395  20.185  0.00  0.00    +0.000 A 
ATOM     16  C   UNL     1       2.348   6.038  20.367  0.00  0.00    +0.000 C 
ATOM     17  O   UNL     1       2.027   5.358  21.333  0.00  0.00    +0.000 OA
ENDROOT
BRANCH   4  18
ATOM     18  C   UNL     1       3.618   2.948  17.276  0.00  0.00    +0.000 C 
BRANCH  18  19
ATOM     19  C   UNL     1       2.355   2.390  17.871  0.00  0.00    +0.000 C 
ATOM     20  O   UNL     1       1.268   2.944  17.841  0.00  0.00    +0.000 OA
BRANCH  19  21
ATOM     21  O   UNL     1       2.547   1.199  18.482  0.00  0.00    +0.000 OA
ATOM     22  H   UNL     1       2.019   0.461  18.119  0.00  0.00    +0.000 HD
ENDBRANCH  19  21
ENDBRANCH  18  19
ENDBRANCH   4  18
TORSDOF 3
ENDMDL
MODEL 9
REMARK VINA RESULT:      -7.2      2.917      4.610
REMARK  Name = 
REMARK  4 active torsions:
REMARK  status: ('A' for Active; 'I' for Inactive)
REMARK    1  A    between atoms: C_1  and  C_2
REMARK    2  A    between atoms: C_4  and  C_5
REMARK    3  A    between atoms: C_5  and  C_6
REMARK    4  A    between atoms: C_6  and  O_8
REMARK                            x       y       z     vdW  Elec       q    Type
REMARK                         _______ _______ _______ _____ _____    ______ ____
ROOT
ATOM      1  C   UNL     1       6.593   5.269  17.760  0.00  0.00    +0.000 C 
ATOM      2  C   UNL     1       5.235   4.600  17.984  0.00  0.00    +0.000 C 
ATOM      3  O   UNL     1       5.486   3.538  18.933  0.00  0.00    +0.000 OA
ATOM      4  C   UNL     1       4.311   2.860  19.410  0.00  0.00    +0.000 C 
ATOM      5  C   UNL     1       3.434   3.862  20.181  0.00  0.00    +0.000 C 
ATOM      6  C   UNL     1       3.319   5.189  19.485  0.00  0.00    +0.000 C 
ATOM      7  C   UNL     1       4.127   5.514  18.461  0.00  0.00    +0.000 C 
ATOM      8  C   UNL     1       3.893   6.766  17.702  0.00  0.00    +0.000 C 
ATOM      9  O   UNL     1       4.439   6.968  16.623  0.00  0.00    +0.000 OA
ATOM     10  C   UNL     1       2.938   7.748  18.236  0.00  0.00    +0.000 A 
ATOM     11  C   UNL     1       2.818   8.999  17.617  0.00  0.00    +0.000 A 
ATOM     12  C   UNL     1       1.883   9.923  18.081  0.00  0.00    +0.000 A 
ATOM     13  C   UNL     1       1.062   9.599  19.161  0.00  0.00    +0.000 A 
ATOM     14  C   UNL     1       1.187   8.352  19.787  0.00  0.00    +0.000 A 
ATOM     15  C   UNL     1       2.130   7.426  19.321  0.00  0.00    +0.000 A 
ATOM     16  C   UNL     1       2.249   6.107  19.966  0.00  0.00    +0.000 C 
ATOM     17  O   UNL     1       1.496   5.782  20.875  0.00  0.00    +0.000 OA
ENDROOT
BRANCH   4  18
ATOM     18  C   UNL     1       3.622   2.118  18.258  0.00  0.00    +0.000 C 
BRANCH  18  19
ATOM     19  C   UNL     1       2.132   2.315  18.239  0.00  0.00    +0.000 C 
ATOM     20  O   UNL     1       1.550   3.163  17.580  0.00  0.00    +0.000 OA
BRANCH  19  21
ATOM     21  O   UNL     1       1.481   1.462  19.061  0.00  0.00    +0.000 OA
ATOM     22  H   UNL     1       0.706   1.018  18.664  0.00  0.00    +0.000 HD
ENDBRANCH  19  21
ENDBRANCH  18  19
ENDBRANCH   4  18
TORSDOF 3
ENDMDL
