MODEL 1
REMARK VINA RESULT:      -8.1      0.000      0.000
REMARK  Name = 
REMARK  10 active torsions:
REMARK  status: ('A' for Active; 'I' for Inactive)
REMARK    1  A    between atoms: C_1  and  O_2
REMARK    2  A    between atoms: O_2  and  C_3
REMARK    3  A    between atoms: C_6  and  C_7
REMARK    4  A    between atoms: C_7  and  N_8
REMARK    5  A    between atoms: N_11  and  C_12
REMARK    6  A    between atoms: C_12  and  C_13
REMARK    7  A    between atoms: C_23  and  C_24
REMARK    8  A    between atoms: C_24  and  C_25
REMARK    9  A    between atoms: C_25  and  O_26
REMARK   10  A    between atoms: C_28  and  C_29
REMARK                            x       y       z     vdW  Elec       q    Type
REMARK                         _______ _______ _______ _____ _____    ______ ____
ROOT
ATOM      1  N   UNL     1       1.939   6.348  19.095  0.00  0.00    +0.000 NA
ATOM      2  C   UNL     1       2.504   6.966  17.874  0.00  0.00    +0.000 C 
ATOM      3  C   UNL     1       3.979   6.626  17.488  0.00  0.00    +0.000 C 
ATOM      4  N   UNL     1       4.582   5.351  17.925  0.00  0.00    +0.000 NA
ATOM      5  C   UNL     1       3.937   4.825  19.140  0.00  0.00    +0.000 C 
ATOM      6  C   UNL     1       2.380   4.932  19.184  0.00  0.00    +0.000 C 
ENDROOT
BRANCH   1   7
ATOM      7  C   UNL     1       2.269   7.132  20.319  0.00  0.00    +0.000 C 
BRANCH   7  11
ATOM      8  C   UNL     1      -0.275  10.642  20.822  0.00  0.00    +0.000 A 
ATOM      9  C   UNL     1       0.318  10.337  19.598  0.00  0.00    +0.000 A 
ATOM     10  C   UNL     1       1.112   9.197  19.448  0.00  0.00    +0.000 A 
ATOM     11  C   UNL     1       1.371   8.351  20.530  0.00  0.00    +0.000 A 
ATOM     12  C   UNL     1       0.733   8.627  21.757  0.00  0.00    +0.000 A 
ATOM     13  C   UNL     1      -0.092   9.769  21.909  0.00  0.00    +0.000 A 
ATOM     14  C   UNL     1      -0.794  10.055  23.209  0.00  0.00    +0.000 C 
BRANCH   8  16
ATOM     15  C   UNL     1      -0.331  13.017  20.954  0.00  0.00    +0.000 C 
ATOM     16  O   UNL     1      -1.015  11.773  21.060  0.00  0.00    +0.000 OA
ENDBRANCH   8  16
ENDBRANCH   7  11
ENDBRANCH   1   7
BRANCH   4  17
ATOM     17  C   UNL     1       4.767   4.336  16.870  0.00  0.00    +0.000 C 
BRANCH  17  18
ATOM     18  C   UNL     1       5.833   4.732  15.886  0.00  0.00    +0.000 A 
ATOM     19  C   UNL     1       6.947   5.494  16.171  0.00  0.00    +0.000 A 
ATOM     20  N   UNL     1       7.711   5.591  15.045  0.00  0.00    +0.000 N 
ATOM     21  C   UNL     1       7.131   4.888  14.015  0.00  0.00    +0.000 A 
ATOM     22  C   UNL     1       7.577   4.705  12.698  0.00  0.00    +0.000 A 
ATOM     23  C   UNL     1       6.789   3.926  11.849  0.00  0.00    +0.000 A 
ATOM     24  C   UNL     1       5.606   3.349  12.305  0.00  0.00    +0.000 A 
ATOM     25  C   UNL     1       5.179   3.538  13.627  0.00  0.00    +0.000 A 
ATOM     26  C   UNL     1       5.952   4.329  14.507  0.00  0.00    +0.000 A 
ATOM     27  H   UNL     1       8.584   6.091  14.971  0.00  0.00    +0.000 HD
ENDBRANCH  17  18
ENDBRANCH   4  17
BRANCH   6  28
ATOM     28  C   UNL     1       1.799   4.054  18.041  0.00  0.00    +0.000 C 
BRANCH  28  29
ATOM     29  C   UNL     1       1.441   2.611  18.336  0.00  0.00    +0.000 C 
BRANCH  29  30
ATOM     30  O   UNL     1       2.443   1.775  17.740  0.00  0.00    +0.000 OA
ATOM     31  H   UNL     1       2.857   2.277  17.014  0.00  0.00    +0.000 HD
ENDBRANCH  29  30
ENDBRANCH  28  29
ENDBRANCH   6  28
TORSDOF 8
ENDMDL
MODEL 2
REMARK VINA RESULT:      -8.0      0.739      1.395
REMARK  Name = 
REMARK  10 active torsions:
REMARK  status: ('A' for Active; 'I' for Inactive)
REMARK    1  A    between atoms: C_1  and  O_2
REMARK    2  A    between atoms: O_2  and  C_3
REMARK    3  A    between atoms: C_6  and  C_7
REMARK    4  A    between atoms: C_7  and  N_8
REMARK    5  A    between atoms: N_11  and  C_12
REMARK    6  A    between atoms: C_12  and  C_13
REMARK    7  A    between atoms: C_23  and  C_24
REMARK    8  A    between atoms: C_24  and  C_25
REMARK    9  A    between atoms: C_25  and  O_26
REMARK   10  A    between atoms: C_28  and  C_29
REMARK                            x       y       z     vdW  Elec       q    Type
REMARK                         _______ _______ _______ _____ _____    ______ ____
ROOT
ATOM      1  N   UNL     1       1.999   6.392  19.019  0.00  0.00    +0.000 NA
ATOM      2  C   UNL     1       2.590   7.008  17.809  0.00  0.00    +0.000 C 
ATOM      3  C   UNL     1       4.051   6.619  17.419  0.00  0.00    +0.000 C 
ATOM      4  N   UNL     1       4.604   5.314  17.835  0.00  0.00    +0.000 NA
ATOM      5  C   UNL     1       3.937   4.793  19.040  0.00  0.00    +0.000 C 
ATOM      6  C   UNL     1       2.385   4.959  19.083  0.00  0.00    +0.000 C 
ENDROOT
BRANCH   1   7
ATOM      7  C   UNL     1       2.356   7.142  20.257  0.00  0.00    +0.000 C 
BRANCH   7  11
ATOM      8  C   UNL     1      -0.414  10.349  21.299  0.00  0.00    +0.000 A 
ATOM      9  C   UNL     1       0.009   9.411  22.241  0.00  0.00    +0.000 A 
ATOM     10  C   UNL     1       0.913   8.403  21.896  0.00  0.00    +0.000 A 
ATOM     11  C   UNL     1       1.390   8.279  20.587  0.00  0.00    +0.000 A 
ATOM     12  C   UNL     1       1.005   9.254  19.645  0.00  0.00    +0.000 A 
ATOM     13  C   UNL     1       0.107  10.292  19.995  0.00  0.00    +0.000 A 
ATOM     14  C   UNL     1      -0.287  11.349  18.998  0.00  0.00    +0.000 C 
BRANCH   8  16
ATOM     15  C   UNL     1      -1.399  11.828  22.880  0.00  0.00    +0.000 C 
ATOM     16  O   UNL     1      -1.344  11.327  21.549  0.00  0.00    +0.000 OA
ENDBRANCH   8  16
ENDBRANCH   7  11
ENDBRANCH   1   7
BRANCH   4  17
ATOM     17  C   UNL     1       4.752   4.312  16.762  0.00  0.00    +0.000 C 
BRANCH  17  18
ATOM     18  C   UNL     1       5.819   4.695  15.775  0.00  0.00    +0.000 A 
ATOM     19  C   UNL     1       6.936   5.457  16.051  0.00  0.00    +0.000 A 
ATOM     20  N   UNL     1       7.699   5.541  14.923  0.00  0.00    +0.000 N 
ATOM     21  C   UNL     1       7.116   4.829  13.900  0.00  0.00    +0.000 A 
ATOM     22  C   UNL     1       7.560   4.633  12.586  0.00  0.00    +0.000 A 
ATOM     23  C   UNL     1       6.769   3.848  11.744  0.00  0.00    +0.000 A 
ATOM     24  C   UNL     1       5.585   3.279  12.207  0.00  0.00    +0.000 A 
ATOM     25  C   UNL     1       5.159   3.482  13.527  0.00  0.00    +0.000 A 
ATOM     26  C   UNL     1       5.935   4.279  14.399  0.00  0.00    +0.000 A 
ATOM     27  H   UNL     1       8.573   6.037  14.844  0.00  0.00    +0.000 HD
ENDBRANCH  17  18
ENDBRANCH   4  17
BRANCH   6  28
ATOM     28  C   UNL     1       1.773   4.123  17.925  0.00  0.00    +0.000 C 
BRANCH  28  29
ATOM     29  C   UNL     1       1.615   2.627  18.105  0.00  0.00    +0.000 C 
BRANCH  29  30
ATOM     30  O   UNL     1       0.340   2.385  18.715  0.00  0.00    +0.000 OA
ATOM     31  H   UNL     1       0.008   1.529  18.384  0.00  0.00    +0.000 HD
ENDBRANCH  29  30
ENDBRANCH  28  29
ENDBRANCH   6  28
TORSDOF 8
ENDMDL
MODEL 3
REMARK VINA RESULT:      -7.6      3.581      6.140
REMARK  Name = 
REMARK  10 active torsions:
REMARK  status: ('A' for Active; 'I' for Inactive)
REMARK    1  A    between atoms: C_1  and  O_2
REMARK    2  A    between atoms: O_2  and  C_3
REMARK    3  A    between atoms: C_6  and  C_7
REMARK    4  A    between atoms: C_7  and  N_8
REMARK    5  A    between atoms: N_11  and  C_12
REMARK    6  A    between atoms: C_12  and  C_13
REMARK    7  A    between atoms: C_23  and  C_24
REMARK    8  A    between atoms: C_24  and  C_25
REMARK    9  A    between atoms: C_25  and  O_26
REMARK   10  A    between atoms: C_28  and  C_29
REMARK                            x       y       z     vdW  Elec       q    Type
REMARK                         _______ _______ _______ _____ _____    ______ ____
ROOT
ATOM      1  N   UNL     1      -0.763  11.978  19.172  0.00  0.00    +0.000 NA
ATOM      2  C   UNL     1       0.536  12.254  18.518  0.00  0.00    +0.000 C 
ATOM      3  C   UNL     1       1.721  11.272  18.784  0.00  0.00    +0.000 C 
ATOM      4  N   UNL     1       1.449   9.867  19.148  0.00  0.00    +0.000 NA
ATOM      5  C   UNL     1       0.128   9.709  19.781  0.00  0.00    +0.000 C 
ATOM      6  C   UNL     1      -1.038  10.519  19.131  0.00  0.00    +0.000 C 
ENDROOT
BRANCH   1   7
ATOM      7  C   UNL     1      -0.822  12.537  20.552  0.00  0.00    +0.000 C 
BRANCH   7  11
ATOM      8  C   UNL     1      -4.907  12.853  22.057  0.00  0.00    +0.000 A 
ATOM      9  C   UNL     1      -4.621  12.926  20.694  0.00  0.00    +0.000 A 
ATOM     10  C   UNL     1      -3.310  12.801  20.228  0.00  0.00    +0.000 A 
ATOM     11  C   UNL     1      -2.240  12.641  21.114  0.00  0.00    +0.000 A 
ATOM     12  C   UNL     1      -2.530  12.516  22.488  0.00  0.00    +0.000 A 
ATOM     13  C   UNL     1      -3.860  12.619  22.965  0.00  0.00    +0.000 A 
ATOM     14  C   UNL     1      -4.175  12.462  24.429  0.00  0.00    +0.000 C 
BRANCH   8  16
ATOM     15  C   UNL     1      -7.092  13.758  21.805  0.00  0.00    +0.000 C 
ATOM     16  O   UNL     1      -6.159  13.027  22.592  0.00  0.00    +0.000 OA
ENDBRANCH   8  16
ENDBRANCH   7  11
ENDBRANCH   1   7
BRANCH   4  17
ATOM     17  C   UNL     1       1.722   8.869  18.097  0.00  0.00    +0.000 C 
BRANCH  17  18
ATOM     18  C   UNL     1       2.461   7.673  18.632  0.00  0.00    +0.000 A 
ATOM     19  C   UNL     1       2.206   7.040  19.831  0.00  0.00    +0.000 A 
ATOM     20  N   UNL     1       3.036   5.963  19.942  0.00  0.00    +0.000 N 
ATOM     21  C   UNL     1       3.830   5.857  18.824  0.00  0.00    +0.000 A 
ATOM     22  C   UNL     1       4.805   4.900  18.512  0.00  0.00    +0.000 A 
ATOM     23  C   UNL     1       5.466   5.023  17.288  0.00  0.00    +0.000 A 
ATOM     24  C   UNL     1       5.155   6.060  16.412  0.00  0.00    +0.000 A 
ATOM     25  C   UNL     1       4.173   7.006  16.739  0.00  0.00    +0.000 A 
ATOM     26  C   UNL     1       3.494   6.911  17.975  0.00  0.00    +0.000 A 
ATOM     27  H   UNL     1       3.062   5.323  20.721  0.00  0.00    +0.000 HD
ENDBRANCH  17  18
ENDBRANCH   4  17
BRANCH   6  28
ATOM     28  C   UNL     1      -1.250   9.992  17.684  0.00  0.00    +0.000 C 
BRANCH  28  29
ATOM     29  C   UNL     1      -2.452  10.475  16.897  0.00  0.00    +0.000 C 
BRANCH  29  30
ATOM     30  O   UNL     1      -2.140  11.768  16.361  0.00  0.00    +0.000 OA
ATOM     31  H   UNL     1      -2.982  12.212  16.145  0.00  0.00    +0.000 HD
ENDBRANCH  29  30
ENDBRANCH  28  29
ENDBRANCH   6  28
TORSDOF 8
ENDMDL
MODEL 4
REMARK VINA RESULT:      -7.5      3.899     10.430
REMARK  Name = 
REMARK  10 active torsions:
REMARK  status: ('A' for Active; 'I' for Inactive)
REMARK    1  A    between atoms: C_1  and  O_2
REMARK    2  A    between atoms: O_2  and  C_3
REMARK    3  A    between atoms: C_6  and  C_7
REMARK    4  A    between atoms: C_7  and  N_8
REMARK    5  A    between atoms: N_11  and  C_12
REMARK    6  A    between atoms: C_12  and  C_13
REMARK    7  A    between atoms: C_23  and  C_24
REMARK    8  A    between atoms: C_24  and  C_25
REMARK    9  A    between atoms: C_25  and  O_26
REMARK   10  A    between atoms: C_28  and  C_29
REMARK                            x       y       z     vdW  Elec       q    Type
REMARK                         _______ _______ _______ _____ _____    ______ ____
ROOT
ATOM      1  N   UNL     1       1.146  10.211  19.386  0.00  0.00    +0.000 NA
ATOM      2  C   UNL     1       1.289  11.617  18.945  0.00  0.00    +0.000 C 
ATOM      3  C   UNL     1      -0.000  12.398  18.537  0.00  0.00    +0.000 C 
ATOM      4  N   UNL     1      -1.309  12.011  19.102  0.00  0.00    +0.000 NA
ATOM      5  C   UNL     1      -1.334  10.597  19.515  0.00  0.00    +0.000 C 
ATOM      6  C   UNL     1      -0.056  10.082  20.251  0.00  0.00    +0.000 C 
ENDROOT
BRANCH   1   7
ATOM      7  C   UNL     1       1.132   9.264  18.236  0.00  0.00    +0.000 C 
BRANCH   7  11
ATOM      8  C   UNL     1       3.973   5.983  18.697  0.00  0.00    +0.000 A 
ATOM      9  C   UNL     1       2.937   6.188  19.608  0.00  0.00    +0.000 A 
ATOM     10  C   UNL     1       2.023   7.230  19.433  0.00  0.00    +0.000 A 
ATOM     11  C   UNL     1       2.143   8.124  18.365  0.00  0.00    +0.000 A 
ATOM     12  C   UNL     1       3.158   7.891  17.415  0.00  0.00    +0.000 A 
ATOM     13  C   UNL     1       4.074   6.822  17.573  0.00  0.00    +0.000 A 
ATOM     14  C   UNL     1       5.144   6.555  16.549  0.00  0.00    +0.000 C 
BRANCH   8  16
ATOM     15  C   UNL     1       4.506   3.735  19.262  0.00  0.00    +0.000 C 
ATOM     16  O   UNL     1       4.942   5.021  18.836  0.00  0.00    +0.000 OA
ENDBRANCH   8  16
ENDBRANCH   7  11
ENDBRANCH   1   7
BRANCH   4  17
ATOM     17  C   UNL     1      -1.866  12.931  20.112  0.00  0.00    +0.000 C 
BRANCH  17  18
ATOM     18  C   UNL     1      -3.297  12.607  20.441  0.00  0.00    +0.000 A 
ATOM     19  C   UNL     1      -3.877  12.701  21.690  0.00  0.00    +0.000 A 
ATOM     20  N   UNL     1      -5.200  12.385  21.584  0.00  0.00    +0.000 N 
ATOM     21  C   UNL     1      -5.517  12.098  20.276  0.00  0.00    +0.000 A 
ATOM     22  C   UNL     1      -6.751  11.742  19.716  0.00  0.00    +0.000 A 
ATOM     23  C   UNL     1      -6.797  11.511  18.339  0.00  0.00    +0.000 A 
ATOM     24  C   UNL     1      -5.650  11.638  17.558  0.00  0.00    +0.000 A 
ATOM     25  C   UNL     1      -4.425  12.000  18.135  0.00  0.00    +0.000 A 
ATOM     26  C   UNL     1      -4.348  12.232  19.527  0.00  0.00    +0.000 A 
ATOM     27  H   UNL     1      -5.862  12.374  22.344  0.00  0.00    +0.000 HD
ENDBRANCH  17  18
ENDBRANCH   4  17
BRANCH   6  28
ATOM     28  C   UNL     1       0.084  10.862  21.588  0.00  0.00    +0.000 C 
BRANCH  28  29
ATOM     29  C   UNL     1      -0.633  10.342  22.817  0.00  0.00    +0.000 C 
BRANCH  29  30
ATOM     30  O   UNL     1       0.350   9.797  23.708  0.00  0.00    +0.000 OA
ATOM     31  H   UNL     1       0.031   9.929  24.620  0.00  0.00    +0.000 HD
ENDBRANCH  29  30
ENDBRANCH  28  29
ENDBRANCH   6  28
TORSDOF 8
ENDMDL
MODEL 5
REMARK VINA RESULT:      -7.5      1.033      1.187
REMARK  Name = 
REMARK  10 active torsions:
REMARK  status: ('A' for Active; 'I' for Inactive)
REMARK    1  A    between atoms: C_1  and  O_2
REMARK    2  A    between atoms: O_2  and  C_3
REMARK    3  A    between atoms: C_6  and  C_7
REMARK    4  A    between atoms: C_7  and  N_8
REMARK    5  A    between atoms: N_11  and  C_12
REMARK    6  A    between atoms: C_12  and  C_13
REMARK    7  A    between atoms: C_23  and  C_24
REMARK    8  A    between atoms: C_24  and  C_25
REMARK    9  A    between atoms: C_25  and  O_26
REMARK   10  A    between atoms: C_28  and  C_29
REMARK                            x       y       z     vdW  Elec       q    Type
REMARK                         _______ _______ _______ _____ _____    ______ ____
ROOT
ATOM      1  N   UNL     1       1.783   6.472  19.568  0.00  0.00    +0.000 NA
ATOM      2  C   UNL     1       2.808   6.910  18.593  0.00  0.00    +0.000 C 
ATOM      3  C   UNL     1       4.236   6.286  18.692  0.00  0.00    +0.000 C 
ATOM      4  N   UNL     1       4.418   4.946  19.287  0.00  0.00    +0.000 NA
ATOM      5  C   UNL     1       3.337   4.613  20.232  0.00  0.00    +0.000 C 
ATOM      6  C   UNL     1       1.895   5.006  19.780  0.00  0.00    +0.000 C 
ENDROOT
BRANCH   1   7
ATOM      7  C   UNL     1       1.856   7.246  20.839  0.00  0.00    +0.000 C 
BRANCH   7  11
ATOM      8  C   UNL     1      -0.468  10.937  20.695  0.00  0.00    +0.000 A 
ATOM      9  C   UNL     1       0.160  10.422  19.562  0.00  0.00    +0.000 A 
ATOM     10  C   UNL     1       0.882   9.227  19.620  0.00  0.00    +0.000 A 
ATOM     11  C   UNL     1       1.032   8.533  20.824  0.00  0.00    +0.000 A 
ATOM     12  C   UNL     1       0.358   9.023  21.961  0.00  0.00    +0.000 A 
ATOM     13  C   UNL     1      -0.396  10.221  21.903  0.00  0.00    +0.000 A 
ATOM     14  C   UNL     1      -1.136  10.734  23.109  0.00  0.00    +0.000 C 
BRANCH   8  16
ATOM     15  C   UNL     1      -2.194  12.296  19.783  0.00  0.00    +0.000 C 
ATOM     16  O   UNL     1      -1.142  12.132  20.728  0.00  0.00    +0.000 OA
ENDBRANCH   8  16
ENDBRANCH   7  11
ENDBRANCH   1   7
BRANCH   4  17
ATOM     17  C   UNL     1       4.727   3.860  18.337  0.00  0.00    +0.000 C 
BRANCH  17  18
ATOM     18  C   UNL     1       5.851   4.226  17.408  0.00  0.00    +0.000 A 
ATOM     19  C   UNL     1       7.134   4.559  17.789  0.00  0.00    +0.000 A 
ATOM     20  N   UNL     1       7.884   4.767  16.669  0.00  0.00    +0.000 N 
ATOM     21  C   UNL     1       7.123   4.560  15.542  0.00  0.00    +0.000 A 
ATOM     22  C   UNL     1       7.488   4.647  14.191  0.00  0.00    +0.000 A 
ATOM     23  C   UNL     1       6.508   4.373  13.235  0.00  0.00    +0.000 A 
ATOM     24  C   UNL     1       5.217   4.019  13.621  0.00  0.00    +0.000 A 
ATOM     25  C   UNL     1       4.871   3.932  14.977  0.00  0.00    +0.000 A 
ATOM     26  C   UNL     1       5.840   4.212  15.966  0.00  0.00    +0.000 A 
ATOM     27  H   UNL     1       8.860   5.023  16.657  0.00  0.00    +0.000 HD
ENDBRANCH  17  18
ENDBRANCH   4  17
BRANCH   6  28
ATOM     28  C   UNL     1       1.544   4.189  18.504  0.00  0.00    +0.000 C 
BRANCH  28  29
ATOM     29  C   UNL     1       1.024   2.775  18.661  0.00  0.00    +0.000 C 
BRANCH  29  30
ATOM     30  O   UNL     1       1.812   1.916  17.826  0.00  0.00    +0.000 OA
ATOM     31  H   UNL     1       1.202   1.425  17.244  0.00  0.00    +0.000 HD
ENDBRANCH  29  30
ENDBRANCH  28  29
ENDBRANCH   6  28
TORSDOF 8
ENDMDL
MODEL 6
REMARK VINA RESULT:      -7.5      4.092     10.405
REMARK  Name = 
REMARK  10 active torsions:
REMARK  status: ('A' for Active; 'I' for Inactive)
REMARK    1  A    between atoms: C_1  and  O_2
REMARK    2  A    between atoms: O_2  and  C_3
REMARK    3  A    between atoms: C_6  and  C_7
REMARK    4  A    between atoms: C_7  and  N_8
REMARK    5  A    between atoms: N_11  and  C_12
REMARK    6  A    between atoms: C_12  and  C_13
REMARK    7  A    between atoms: C_23  and  C_24
REMARK    8  A    between atoms: C_24  and  C_25
REMARK    9  A    between atoms: C_25  and  O_26
REMARK   10  A    between atoms: C_28  and  C_29
REMARK                            x       y       z     vdW  Elec       q    Type
REMARK                         _______ _______ _______ _____ _____    ______ ____
ROOT
ATOM      1  N   UNL     1       1.403   9.852  19.133  0.00  0.00    +0.000 NA
ATOM      2  C   UNL     1       0.656   9.600  17.880  0.00  0.00    +0.000 C 
ATOM      3  C   UNL     1      -0.899   9.746  17.904  0.00  0.00    +0.000 C 
ATOM      4  N   UNL     1      -1.542  10.638  18.890  0.00  0.00    +0.000 NA
ATOM      5  C   UNL     1      -0.707  10.824  20.090  0.00  0.00    +0.000 C 
ATOM      6  C   UNL     1       0.820  11.027  19.830  0.00  0.00    +0.000 C 
ENDROOT
BRANCH   1   7
ATOM      7  C   UNL     1       1.465   8.640  19.998  0.00  0.00    +0.000 C 
BRANCH   7  11
ATOM      8  C   UNL     1       3.647   5.263  18.303  0.00  0.00    +0.000 A 
ATOM      9  C   UNL     1       2.772   5.104  19.377  0.00  0.00    +0.000 A 
ATOM     10  C   UNL     1       2.065   6.193  19.893  0.00  0.00    +0.000 A 
ATOM     11  C   UNL     1       2.243   7.480  19.378  0.00  0.00    +0.000 A 
ATOM     12  C   UNL     1       3.087   7.636  18.260  0.00  0.00    +0.000 A 
ATOM     13  C   UNL     1       3.790   6.533  17.716  0.00  0.00    +0.000 A 
ATOM     14  C   UNL     1       4.674   6.691  16.509  0.00  0.00    +0.000 C 
BRANCH   8  16
ATOM     15  C   UNL     1       3.930   2.928  17.946  0.00  0.00    +0.000 C 
ATOM     16  O   UNL     1       4.420   4.254  17.782  0.00  0.00    +0.000 OA
ENDBRANCH   8  16
ENDBRANCH   7  11
ENDBRANCH   1   7
BRANCH   4  17
ATOM     17  C   UNL     1      -2.091  11.897  18.352  0.00  0.00    +0.000 C 
BRANCH  17  18
ATOM     18  C   UNL     1      -3.524  11.749  17.921  0.00  0.00    +0.000 A 
ATOM     19  C   UNL     1      -3.951  11.321  16.681  0.00  0.00    +0.000 A 
ATOM     20  N   UNL     1      -5.314  11.258  16.685  0.00  0.00    +0.000 N 
ATOM     21  C   UNL     1      -5.803  11.620  17.918  0.00  0.00    +0.000 A 
ATOM     22  C   UNL     1      -7.129  11.682  18.368  0.00  0.00    +0.000 A 
ATOM     23  C   UNL     1      -7.349  12.079  19.689  0.00  0.00    +0.000 A 
ATOM     24  C   UNL     1      -6.280  12.394  20.524  0.00  0.00    +0.000 A 
ATOM     25  C   UNL     1      -4.959  12.321  20.059  0.00  0.00    +0.000 A 
ATOM     26  C   UNL     1      -4.708  11.931  18.724  0.00  0.00    +0.000 A 
ATOM     27  H   UNL     1      -5.889  10.973  15.907  0.00  0.00    +0.000 HD
ENDBRANCH  17  18
ENDBRANCH   4  17
BRANCH   6  28
ATOM     28  C   UNL     1       1.007  12.348  19.033  0.00  0.00    +0.000 C 
BRANCH  28  29
ATOM     29  C   UNL     1       2.406  12.769  18.632  0.00  0.00    +0.000 C 
BRANCH  29  30
ATOM     30  O   UNL     1       2.644  12.306  17.295  0.00  0.00    +0.000 OA
ATOM     31  H   UNL     1       3.521  11.880  17.279  0.00  0.00    +0.000 HD
ENDBRANCH  29  30
ENDBRANCH  28  29
ENDBRANCH   6  28
TORSDOF 8
ENDMDL
MODEL 7
REMARK VINA RESULT:      -7.4      3.779     10.925
REMARK  Name = 
REMARK  10 active torsions:
REMARK  status: ('A' for Active; 'I' for Inactive)
REMARK    1  A    between atoms: C_1  and  O_2
REMARK    2  A    between atoms: O_2  and  C_3
REMARK    3  A    between atoms: C_6  and  C_7
REMARK    4  A    between atoms: C_7  and  N_8
REMARK    5  A    between atoms: N_11  and  C_12
REMARK    6  A    between atoms: C_12  and  C_13
REMARK    7  A    between atoms: C_23  and  C_24
REMARK    8  A    between atoms: C_24  and  C_25
REMARK    9  A    between atoms: C_25  and  O_26
REMARK   10  A    between atoms: C_28  and  C_29
REMARK                            x       y       z     vdW  Elec       q    Type
REMARK                         _______ _______ _______ _____ _____    ______ ____
ROOT
ATOM      1  N   UNL     1       1.114  10.031  19.659  0.00  0.00    +0.000 NA
ATOM      2  C   UNL     1       1.335  11.485  19.484  0.00  0.00    +0.000 C 
ATOM      3  C   UNL     1       0.127  12.368  19.039  0.00  0.00    +0.000 C 
ATOM      4  N   UNL     1      -1.253  11.941  19.347  0.00  0.00    +0.000 NA
ATOM      5  C   UNL     1      -1.354  10.480  19.510  0.00  0.00    +0.000 C 
ATOM      6  C   UNL     1      -0.199   9.806  20.317  0.00  0.00    +0.000 C 
ENDROOT
BRANCH   1   7
ATOM      7  C   UNL     1       1.251   9.287  18.375  0.00  0.00    +0.000 C 
BRANCH   7  11
ATOM      8  C   UNL     1       3.975   5.891  18.681  0.00  0.00    +0.000 A 
ATOM      9  C   UNL     1       3.017   6.153  19.660  0.00  0.00    +0.000 A 
ATOM     10  C   UNL     1       2.138   7.232  19.536  0.00  0.00    +0.000 A 
ATOM     11  C   UNL     1       2.218   8.106  18.448  0.00  0.00    +0.000 A 
ATOM     12  C   UNL     1       3.151   7.817  17.431  0.00  0.00    +0.000 A 
ATOM     13  C   UNL     1       4.029   6.711  17.540  0.00  0.00    +0.000 A 
ATOM     14  C   UNL     1       5.010   6.385  16.445  0.00  0.00    +0.000 C 
BRANCH   8  16
ATOM     15  C   UNL     1       4.423   3.590  19.084  0.00  0.00    +0.000 C 
ATOM     16  O   UNL     1       4.909   4.889  18.763  0.00  0.00    +0.000 OA
ENDBRANCH   8  16
ENDBRANCH   7  11
ENDBRANCH   1   7
BRANCH   4  17
ATOM     17  C   UNL     1      -1.936  12.701  20.412  0.00  0.00    +0.000 C 
BRANCH  17  18
ATOM     18  C   UNL     1      -3.432  12.575  20.325  0.00  0.00    +0.000 A 
ATOM     19  C   UNL     1      -4.147  12.238  19.194  0.00  0.00    +0.000 A 
ATOM     20  N   UNL     1      -5.470  12.163  19.518  0.00  0.00    +0.000 N 
ATOM     21  C   UNL     1      -5.647  12.427  20.856  0.00  0.00    +0.000 A 
ATOM     22  C   UNL     1      -6.827  12.444  21.613  0.00  0.00    +0.000 A 
ATOM     23  C   UNL     1      -6.722  12.738  22.974  0.00  0.00    +0.000 A 
ATOM     24  C   UNL     1      -5.481  12.998  23.551  0.00  0.00    +0.000 A 
ATOM     25  C   UNL     1      -4.310  12.971  22.780  0.00  0.00    +0.000 A 
ATOM     26  C   UNL     1      -4.388  12.685  21.398  0.00  0.00    +0.000 A 
ATOM     27  H   UNL     1      -6.217  11.934  18.880  0.00  0.00    +0.000 HD
ENDBRANCH  17  18
ENDBRANCH   4  17
BRANCH   6  28
ATOM     28  C   UNL     1      -0.239  10.350  21.772  0.00  0.00    +0.000 C 
BRANCH  28  29
ATOM     29  C   UNL     1       0.328   9.496  22.888  0.00  0.00    +0.000 C 
BRANCH  29  30
ATOM     30  O   UNL     1       1.728   9.311  22.639  0.00  0.00    +0.000 OA
ATOM     31  H   UNL     1       2.008   9.989  21.995  0.00  0.00    +0.000 HD
ENDBRANCH  29  30
ENDBRANCH  28  29
ENDBRANCH   6  28
TORSDOF 8
ENDMDL
MODEL 8
REMARK VINA RESULT:      -7.3      4.981      7.939
REMARK  Name = 
REMARK  10 active torsions:
REMARK  status: ('A' for Active; 'I' for Inactive)
REMARK    1  A    between atoms: C_1  and  O_2
REMARK    2  A    between atoms: O_2  and  C_3
REMARK    3  A    between atoms: C_6  and  C_7
REMARK    4  A    between atoms: C_7  and  N_8
REMARK    5  A    between atoms: N_11  and  C_12
REMARK    6  A    between atoms: C_12  and  C_13
REMARK    7  A    between atoms: C_23  and  C_24
REMARK    8  A    between atoms: C_24  and  C_25
REMARK    9  A    between atoms: C_25  and  O_26
REMARK   10  A    between atoms: C_28  and  C_29
REMARK                            x       y       z     vdW  Elec       q    Type
REMARK                         _______ _______ _______ _____ _____    ______ ____
ROOT
ATOM      1  N   UNL     1       7.851   7.497  17.430  0.00  0.00    +0.000 NA
ATOM      2  C   UNL     1       8.181   6.735  18.656  0.00  0.00    +0.000 C 
ATOM      3  C   UNL     1       7.022   6.012  19.411  0.00  0.00    +0.000 C 
ATOM      4  N   UNL     1       5.810   5.594  18.678  0.00  0.00    +0.000 NA
ATOM      5  C   UNL     1       5.585   6.413  17.474  0.00  0.00    +0.000 C 
ATOM      6  C   UNL     1       6.856   6.739  16.628  0.00  0.00    +0.000 C 
ENDROOT
BRANCH   1   7
ATOM      7  C   UNL     1       7.405   8.885  17.739  0.00  0.00    +0.000 C 
BRANCH   7  11
ATOM      8  C   UNL     1      10.569  11.424  19.347  0.00  0.00    +0.000 A 
ATOM      9  C   UNL     1       9.868  10.528  20.153  0.00  0.00    +0.000 A 
ATOM     10  C   UNL     1       8.873   9.707  19.618  0.00  0.00    +0.000 A 
ATOM     11  C   UNL     1       8.520   9.787  18.268  0.00  0.00    +0.000 A 
ATOM     12  C   UNL     1       9.260  10.654  17.439  0.00  0.00    +0.000 A 
ATOM     13  C   UNL     1      10.286  11.473  17.971  0.00  0.00    +0.000 A 
ATOM     14  C   UNL     1      11.094  12.383  17.084  0.00  0.00    +0.000 C 
BRANCH   8  16
ATOM     15  C   UNL     1      11.032  13.498  20.417  0.00  0.00    +0.000 C 
ATOM     16  O   UNL     1      11.515  12.303  19.812  0.00  0.00    +0.000 OA
ENDBRANCH   8  16
ENDBRANCH   7  11
ENDBRANCH   1   7
BRANCH   4  17
ATOM     17  C   UNL     1       5.674   4.144  18.439  0.00  0.00    +0.000 C 
BRANCH  17  18
ATOM     18  C   UNL     1       4.242   3.738  18.228  0.00  0.00    +0.000 A 
ATOM     19  C   UNL     1       3.688   3.336  17.030  0.00  0.00    +0.000 A 
ATOM     20  N   UNL     1       2.386   2.990  17.244  0.00  0.00    +0.000 N 
ATOM     21  C   UNL     1       2.067   3.138  18.573  0.00  0.00    +0.000 A 
ATOM     22  C   UNL     1       0.856   2.884  19.233  0.00  0.00    +0.000 A 
ATOM     23  C   UNL     1       0.807   3.114  20.610  0.00  0.00    +0.000 A 
ATOM     24  C   UNL     1       1.928   3.574  21.295  0.00  0.00    +0.000 A 
ATOM     25  C   UNL     1       3.133   3.817  20.620  0.00  0.00    +0.000 A 
ATOM     26  C   UNL     1       3.210   3.601  19.225  0.00  0.00    +0.000 A 
ATOM     27  H   UNL     1       1.745   2.659  16.539  0.00  0.00    +0.000 HD
ENDBRANCH  17  18
ENDBRANCH   4  17
BRANCH   6  28
ATOM     28  C   UNL     1       7.428   5.405  16.073  0.00  0.00    +0.000 C 
BRANCH  28  29
ATOM     29  C   UNL     1       6.874   4.855  14.775  0.00  0.00    +0.000 C 
BRANCH  29  30
ATOM     30  O   UNL     1       7.575   5.482  13.692  0.00  0.00    +0.000 OA
ATOM     31  H   UNL     1       7.156   6.348  13.527  0.00  0.00    +0.000 HD
ENDBRANCH  29  30
ENDBRANCH  28  29
ENDBRANCH   6  28
TORSDOF 8
ENDMDL
MODEL 9
REMARK VINA RESULT:      -7.3      3.724     10.867
REMARK  Name = 
REMARK  10 active torsions:
REMARK  status: ('A' for Active; 'I' for Inactive)
REMARK    1  A    between atoms: C_1  and  O_2
REMARK    2  A    between atoms: O_2  and  C_3
REMARK    3  A    between atoms: C_6  and  C_7
REMARK    4  A    between atoms: C_7  and  N_8
REMARK    5  A    between atoms: N_11  and  C_12
REMARK    6  A    between atoms: C_12  and  C_13
REMARK    7  A    between atoms: C_23  and  C_24
REMARK    8  A    between atoms: C_24  and  C_25
REMARK    9  A    between atoms: C_25  and  O_26
REMARK   10  A    between atoms: C_28  and  C_29
REMARK                            x       y       z     vdW  Elec       q    Type
REMARK                         _______ _______ _______ _____ _____    ______ ____
ROOT
ATOM      1  N   UNL     1       1.336  10.351  19.349  0.00  0.00    +0.000 NA
ATOM      2  C   UNL     1       1.342  11.783  18.971  0.00  0.00    +0.000 C 
ATOM      3  C   UNL     1      -0.021  12.462  18.627  0.00  0.00    +0.000 C 
ATOM      4  N   UNL     1      -1.276  11.934  19.200  0.00  0.00    +0.000 NA
ATOM      5  C   UNL     1      -1.164  10.507  19.547  0.00  0.00    +0.000 C 
ATOM      6  C   UNL     1       0.172  10.076  20.231  0.00  0.00    +0.000 C 
ENDROOT
BRANCH   1   7
ATOM      7  C   UNL     1       1.378   9.460  18.155  0.00  0.00    +0.000 C 
BRANCH   7  11
ATOM      8  C   UNL     1       3.721   5.817  18.692  0.00  0.00    +0.000 A 
ATOM      9  C   UNL     1       4.011   6.732  17.682  0.00  0.00    +0.000 A 
ATOM     10  C   UNL     1       3.265   7.904  17.537  0.00  0.00    +0.000 A 
ATOM     11  C   UNL     1       2.179   8.176  18.374  0.00  0.00    +0.000 A 
ATOM     12  C   UNL     1       1.913   7.279  19.428  0.00  0.00    +0.000 A 
ATOM     13  C   UNL     1       2.680   6.100  19.595  0.00  0.00    +0.000 A 
ATOM     14  C   UNL     1       2.414   5.152  20.733  0.00  0.00    +0.000 C 
BRANCH   8  16
ATOM     15  C   UNL     1       5.244   4.218  17.809  0.00  0.00    +0.000 C 
ATOM     16  O   UNL     1       4.369   4.618  18.857  0.00  0.00    +0.000 OA
ENDBRANCH   8  16
ENDBRANCH   7  11
ENDBRANCH   1   7
BRANCH   4  17
ATOM     17  C   UNL     1      -1.888  12.753  20.263  0.00  0.00    +0.000 C 
BRANCH  17  18
ATOM     18  C   UNL     1      -3.386  12.629  20.280  0.00  0.00    +0.000 A 
ATOM     19  C   UNL     1      -4.176  12.271  19.207  0.00  0.00    +0.000 A 
ATOM     20  N   UNL     1      -5.474  12.205  19.621  0.00  0.00    +0.000 N 
ATOM     21  C   UNL     1      -5.561  12.497  20.962  0.00  0.00    +0.000 A 
ATOM     22  C   UNL     1      -6.687  12.531  21.796  0.00  0.00    +0.000 A 
ATOM     23  C   UNL     1      -6.490  12.852  23.141  0.00  0.00    +0.000 A 
ATOM     24  C   UNL     1      -5.213  13.121  23.628  0.00  0.00    +0.000 A 
ATOM     25  C   UNL     1      -4.097  13.076  22.781  0.00  0.00    +0.000 A 
ATOM     26  C   UNL     1      -4.268  12.763  21.413  0.00  0.00    +0.000 A 
ATOM     27  H   UNL     1      -6.262  11.965  19.039  0.00  0.00    +0.000 HD
ENDBRANCH  17  18
ENDBRANCH   4  17
BRANCH   6  28
ATOM     28  C   UNL     1       0.275  10.804  21.600  0.00  0.00    +0.000 C 
BRANCH  28  29
ATOM     29  C   UNL     1      -0.586  10.324  22.751  0.00  0.00    +0.000 C 
BRANCH  29  30
ATOM     30  O   UNL     1       0.277   9.740  23.737  0.00  0.00    +0.000 OA
ATOM     31  H   UNL     1       0.729   8.980  23.324  0.00  0.00    +0.000 HD
ENDBRANCH  29  30
ENDBRANCH  28  29
ENDBRANCH   6  28
TORSDOF 8
ENDMDL
