MODEL 1
REMARK VINA RESULT:      -7.1      0.000      0.000
REMARK  Name = 
REMARK  12 active torsions:
REMARK  status: ('A' for Active; 'I' for Inactive)
REMARK    1  A    between atoms: C_4  and  O_5
REMARK    2  A    between atoms: N_8  and  C_9
REMARK    3  A    between atoms: C_11  and  C_12
REMARK    4  A    between atoms: C_12  and  O_13
REMARK    5  A    between atoms: O_13  and  P_14
REMARK    6  A    between atoms: P_14  and  O_16
REMARK    7  A    between atoms: P_14  and  C_17
REMARK    8  A    between atoms: C_17  and  P_18
REMARK    9  A    between atoms: P_18  and  O_20
REMARK   10  A    between atoms: P_18  and  O_21
REMARK   11  A    between atoms: C_22  and  O_23
REMARK   12  A    between atoms: C_24  and  O_25
REMARK                            x       y       z     vdW  Elec       q    Type
REMARK                         _______ _______ _______ _____ _____    ______ ____
ROOT
ATOM      1  C   UNL     1       2.870   5.863  19.633  0.00  0.00    +0.000 C 
ATOM      2  O   UNL     1       3.968   5.492  18.768  0.00  0.00    +0.000 OA
ATOM      3  C   UNL     1       3.831   4.108  18.376  0.00  0.00    +0.000 C 
ATOM      4  C   UNL     1       2.736   3.520  19.269  0.00  0.00    +0.000 C 
ATOM      5  C   UNL     1       1.846   4.716  19.579  0.00  0.00    +0.000 C 
ENDROOT
BRANCH   1  12
ATOM      6  O   UNL     1       1.407   7.464  21.370  0.00  0.00    +0.000 OA
ATOM      7  C   UNL     1       1.616   7.868  20.220  0.00  0.00    +0.000 A 
ATOM      8  C   UNL     1       1.089   9.197  19.834  0.00  0.00    +0.000 A 
ATOM      9  C   UNL     1       1.333   9.670  18.604  0.00  0.00    +0.000 A 
ATOM     10  C   UNL     1       2.071   8.888  17.646  0.00  0.00    +0.000 A 
ATOM     11  C   UNL     1       2.541   7.691  17.987  0.00  0.00    +0.000 A 
ATOM     12  N   UNL     1       2.342   7.165  19.262  0.00  0.00    +0.000 N 
BRANCH   9  13
ATOM     13  O   UNL     1       0.911  10.893  18.144  0.00  0.00    +0.000 OA
ATOM     14  H   UNL     1       1.308  11.585  18.698  0.00  0.00    +0.000 HD
ENDBRANCH   9  13
ENDBRANCH   1  12
BRANCH   4  15
ATOM     15  O   UNL     1       3.286   3.024  20.493  0.00  0.00    +0.000 OA
ATOM     16  H   UNL     1       2.766   3.348  21.244  0.00  0.00    +0.000 HD
ENDBRANCH   4  15
BRANCH   5  17
ATOM     17  O   UNL     1       1.117   4.510  20.784  0.00  0.00    +0.000 OA
ATOM     18  H   UNL     1       1.769   4.520  21.510  0.00  0.00    +0.000 HD
ENDBRANCH   5  17
BRANCH   3  19
ATOM     19  C   UNL     1       3.481   4.007  16.887  0.00  0.00    +0.000 C 
BRANCH  19  20
ATOM     20  O   UNL     1       4.664   4.005  16.070  0.00  0.00    +0.000 OA
BRANCH  20  21
ATOM     21  P   UNL     1       5.899   5.072  16.642  0.00  0.00    +0.000 P 
ATOM     22  O   UNL     1       6.875   4.550  15.581  0.00  0.00    +0.000 OA
BRANCH  21  23
ATOM     23  O   UNL     1       5.032   6.254  15.919  0.00  0.00    +0.000 OA
ATOM     24  H   UNL     1       4.982   7.028  16.525  0.00  0.00    +0.000 HD
ENDBRANCH  21  23
BRANCH  21  25
ATOM     25  C   UNL     1       7.206   6.202  17.247  0.00  0.00    +0.000 C 
BRANCH  25  26
ATOM     26  P   UNL     1       7.584   5.816  18.996  0.00  0.00    +0.000 P 
ATOM     27  O   UNL     1       8.414   4.590  18.591  0.00  0.00    +0.000 OA
BRANCH  26  28
ATOM     28  O   UNL     1       8.646   7.060  19.091  0.00  0.00    +0.000 OA
ATOM     29  H   UNL     1       8.582   7.524  19.948  0.00  0.00    +0.000 HD
ENDBRANCH  26  28
BRANCH  26  30
ATOM     30  O   UNL     1       7.941   5.451  20.649  0.00  0.00    +0.000 OA
ATOM     31  H   UNL     1       8.729   4.868  20.575  0.00  0.00    +0.000 HD
ENDBRANCH  26  30
ENDBRANCH  25  26
ENDBRANCH  21  25
ENDBRANCH  20  21
ENDBRANCH  19  20
ENDBRANCH   3  19
TORSDOF 12
ENDMDL
MODEL 2
REMARK VINA RESULT:      -7.1      1.457      2.038
REMARK  Name = 
REMARK  12 active torsions:
REMARK  status: ('A' for Active; 'I' for Inactive)
REMARK    1  A    between atoms: C_4  and  O_5
REMARK    2  A    between atoms: N_8  and  C_9
REMARK    3  A    between atoms: C_11  and  C_12
REMARK    4  A    between atoms: C_12  and  O_13
REMARK    5  A    between atoms: O_13  and  P_14
REMARK    6  A    between atoms: P_14  and  O_16
REMARK    7  A    between atoms: P_14  and  C_17
REMARK    8  A    between atoms: C_17  and  P_18
REMARK    9  A    between atoms: P_18  and  O_20
REMARK   10  A    between atoms: P_18  and  O_21
REMARK   11  A    between atoms: C_22  and  O_23
REMARK   12  A    between atoms: C_24  and  O_25
REMARK                            x       y       z     vdW  Elec       q    Type
REMARK                         _______ _______ _______ _____ _____    ______ ____
ROOT
ATOM      1  C   UNL     1       3.140   3.929  19.080  0.00  0.00    +0.000 C 
ATOM      2  O   UNL     1       4.403   4.031  18.382  0.00  0.00    +0.000 OA
ATOM      3  C   UNL     1       4.411   3.125  17.257  0.00  0.00    +0.000 C 
ATOM      4  C   UNL     1       3.191   2.218  17.434  0.00  0.00    +0.000 C 
ATOM      5  C   UNL     1       2.203   3.091  18.193  0.00  0.00    +0.000 C 
ENDROOT
BRANCH   1  12
ATOM      6  O   UNL     1       1.629   4.438  21.356  0.00  0.00    +0.000 OA
ATOM      7  C   UNL     1       1.881   5.373  20.585  0.00  0.00    +0.000 A 
ATOM      8  C   UNL     1       1.377   6.722  20.928  0.00  0.00    +0.000 A 
ATOM      9  C   UNL     1       1.667   7.756  20.126  0.00  0.00    +0.000 A 
ATOM     10  C   UNL     1       2.431   7.563  18.922  0.00  0.00    +0.000 A 
ATOM     11  C   UNL     1       2.881   6.352  18.607  0.00  0.00    +0.000 A 
ATOM     12  N   UNL     1       2.635   5.248  19.421  0.00  0.00    +0.000 N 
BRANCH   9  13
ATOM     13  O   UNL     1       1.269   9.050  20.353  0.00  0.00    +0.000 OA
ATOM     14  H   UNL     1       1.874   9.647  19.881  0.00  0.00    +0.000 HD
ENDBRANCH   9  13
ENDBRANCH   1  12
BRANCH   4  15
ATOM     15  O   UNL     1       3.513   1.078  18.238  0.00  0.00    +0.000 OA
ATOM     16  H   UNL     1       3.236   1.232  19.154  0.00  0.00    +0.000 HD
ENDBRANCH   4  15
BRANCH   5  17
ATOM     17  O   UNL     1       1.261   2.295  18.906  0.00  0.00    +0.000 OA
ATOM     18  H   UNL     1       0.415   2.780  18.886  0.00  0.00    +0.000 HD
ENDBRANCH   5  17
BRANCH   3  19
ATOM     19  C   UNL     1       4.366   3.907  15.941  0.00  0.00    +0.000 C 
BRANCH  19  20
ATOM     20  O   UNL     1       5.687   4.255  15.491  0.00  0.00    +0.000 OA
BRANCH  20  21
ATOM     21  P   UNL     1       6.465   5.436  16.488  0.00  0.00    +0.000 P 
ATOM     22  O   UNL     1       7.670   5.476  15.541  0.00  0.00    +0.000 OA
BRANCH  21  23
ATOM     23  O   UNL     1       5.371   6.485  15.875  0.00  0.00    +0.000 OA
ATOM     24  H   UNL     1       4.643   6.602  16.527  0.00  0.00    +0.000 HD
ENDBRANCH  21  23
BRANCH  21  25
ATOM     25  C   UNL     1       7.287   6.686  17.542  0.00  0.00    +0.000 C 
BRANCH  25  26
ATOM     26  P   UNL     1       7.826   5.904  19.107  0.00  0.00    +0.000 P 
ATOM     27  O   UNL     1       6.382   5.837  19.621  0.00  0.00    +0.000 OA
BRANCH  26  28
ATOM     28  O   UNL     1       8.097   4.474  18.355  0.00  0.00    +0.000 OA
ATOM     29  H   UNL     1       7.265   4.067  18.044  0.00  0.00    +0.000 HD
ENDBRANCH  26  28
BRANCH  26  30
ATOM     30  O   UNL     1       8.335   5.165  20.586  0.00  0.00    +0.000 OA
ATOM     31  H   UNL     1       8.265   4.206  20.382  0.00  0.00    +0.000 HD
ENDBRANCH  26  30
ENDBRANCH  25  26
ENDBRANCH  21  25
ENDBRANCH  20  21
ENDBRANCH  19  20
ENDBRANCH   3  19
TORSDOF 12
ENDMDL
MODEL 3
REMARK VINA RESULT:      -7.0      1.848      3.159
REMARK  Name = 
REMARK  12 active torsions:
REMARK  status: ('A' for Active; 'I' for Inactive)
REMARK    1  A    between atoms: C_4  and  O_5
REMARK    2  A    between atoms: N_8  and  C_9
REMARK    3  A    between atoms: C_11  and  C_12
REMARK    4  A    between atoms: C_12  and  O_13
REMARK    5  A    between atoms: O_13  and  P_14
REMARK    6  A    between atoms: P_14  and  O_16
REMARK    7  A    between atoms: P_14  and  C_17
REMARK    8  A    between atoms: C_17  and  P_18
REMARK    9  A    between atoms: P_18  and  O_20
REMARK   10  A    between atoms: P_18  and  O_21
REMARK   11  A    between atoms: C_22  and  O_23
REMARK   12  A    between atoms: C_24  and  O_25
REMARK                            x       y       z     vdW  Elec       q    Type
REMARK                         _______ _______ _______ _____ _____    ______ ____
ROOT
ATOM      1  C   UNL     1       2.092   5.018  20.442  0.00  0.00    +0.000 C 
ATOM      2  O   UNL     1       3.451   4.627  20.748  0.00  0.00    +0.000 OA
ATOM      3  C   UNL     1       3.603   3.204  20.552  0.00  0.00    +0.000 C 
ATOM      4  C   UNL     1       2.189   2.646  20.379  0.00  0.00    +0.000 C 
ATOM      5  C   UNL     1       1.416   3.809  19.772  0.00  0.00    +0.000 C 
ENDROOT
BRANCH   1  12
ATOM      6  O   UNL     1       2.519   5.057  17.696  0.00  0.00    +0.000 OA
ATOM      7  C   UNL     1       2.312   6.127  18.283  0.00  0.00    +0.000 A 
ATOM      8  C   UNL     1       2.284   7.373  17.485  0.00  0.00    +0.000 A 
ATOM      9  C   UNL     1       2.027   8.539  18.094  0.00  0.00    +0.000 A 
ATOM     10  C   UNL     1       1.811   8.596  19.516  0.00  0.00    +0.000 A 
ATOM     11  C   UNL     1       1.841   7.479  20.238  0.00  0.00    +0.000 A 
ATOM     12  N   UNL     1       2.075   6.237  19.651  0.00  0.00    +0.000 N 
BRANCH   9  13
ATOM     13  O   UNL     1       1.958   9.751  17.454  0.00  0.00    +0.000 OA
ATOM     14  H   UNL     1       1.626  10.414  18.082  0.00  0.00    +0.000 HD
ENDBRANCH   9  13
ENDBRANCH   1  12
BRANCH   4  15
ATOM     15  O   UNL     1       1.609   2.318  21.646  0.00  0.00    +0.000 OA
ATOM     16  H   UNL     1       0.650   2.210  21.552  0.00  0.00    +0.000 HD
ENDBRANCH   4  15
BRANCH   5  17
ATOM     17  O   UNL     1       0.022   3.686  20.031  0.00  0.00    +0.000 OA
ATOM     18  H   UNL     1      -0.069   3.074  20.785  0.00  0.00    +0.000 HD
ENDBRANCH   5  17
BRANCH   3  19
ATOM     19  C   UNL     1       4.490   2.924  19.335  0.00  0.00    +0.000 C 
BRANCH  19  20
ATOM     20  O   UNL     1       5.681   3.729  19.357  0.00  0.00    +0.000 OA
BRANCH  20  21
ATOM     21  P   UNL     1       5.894   4.685  17.931  0.00  0.00    +0.000 P 
ATOM     22  O   UNL     1       5.756   5.976  18.747  0.00  0.00    +0.000 OA
BRANCH  21  23
ATOM     23  O   UNL     1       7.466   4.250  18.030  0.00  0.00    +0.000 OA
ATOM     24  H   UNL     1       8.004   4.876  17.494  0.00  0.00    +0.000 HD
ENDBRANCH  21  23
BRANCH  21  25
ATOM     25  C   UNL     1       6.119   5.696  16.422  0.00  0.00    +0.000 C 
BRANCH  25  26
ATOM     26  P   UNL     1       6.238   4.597  14.963  0.00  0.00    +0.000 P 
ATOM     27  O   UNL     1       7.764   4.748  14.920  0.00  0.00    +0.000 OA
BRANCH  26  28
ATOM     28  O   UNL     1       5.949   3.270  15.880  0.00  0.00    +0.000 OA
ATOM     29  H   UNL     1       5.612   2.527  15.343  0.00  0.00    +0.000 HD
ENDBRANCH  26  28
BRANCH  26  30
ATOM     30  O   UNL     1       6.350   3.558  13.585  0.00  0.00    +0.000 OA
ATOM     31  H   UNL     1       7.106   3.942  13.087  0.00  0.00    +0.000 HD
ENDBRANCH  26  30
ENDBRANCH  25  26
ENDBRANCH  21  25
ENDBRANCH  20  21
ENDBRANCH  19  20
ENDBRANCH   3  19
TORSDOF 12
ENDMDL
MODEL 4
REMARK VINA RESULT:      -7.0      0.955      1.150
REMARK  Name = 
REMARK  12 active torsions:
REMARK  status: ('A' for Active; 'I' for Inactive)
REMARK    1  A    between atoms: C_4  and  O_5
REMARK    2  A    between atoms: N_8  and  C_9
REMARK    3  A    between atoms: C_11  and  C_12
REMARK    4  A    between atoms: C_12  and  O_13
REMARK    5  A    between atoms: O_13  and  P_14
REMARK    6  A    between atoms: P_14  and  O_16
REMARK    7  A    between atoms: P_14  and  C_17
REMARK    8  A    between atoms: C_17  and  P_18
REMARK    9  A    between atoms: P_18  and  O_20
REMARK   10  A    between atoms: P_18  and  O_21
REMARK   11  A    between atoms: C_22  and  O_23
REMARK   12  A    between atoms: C_24  and  O_25
REMARK                            x       y       z     vdW  Elec       q    Type
REMARK                         _______ _______ _______ _____ _____    ______ ____
ROOT
ATOM      1  C   UNL     1       2.541   5.311  19.860  0.00  0.00    +0.000 C 
ATOM      2  O   UNL     1       3.751   4.721  19.328  0.00  0.00    +0.000 OA
ATOM      3  C   UNL     1       3.511   3.335  19.000  0.00  0.00    +0.000 C 
ATOM      4  C   UNL     1       2.157   2.979  19.617  0.00  0.00    +0.000 C 
ATOM      5  C   UNL     1       1.404   4.303  19.615  0.00  0.00    +0.000 C 
ENDROOT
BRANCH   1  12
ATOM      6  O   UNL     1       1.267   7.369  21.225  0.00  0.00    +0.000 OA
ATOM      7  C   UNL     1       1.658   7.572  20.068  0.00  0.00    +0.000 A 
ATOM      8  C   UNL     1       1.443   8.912  19.478  0.00  0.00    +0.000 A 
ATOM      9  C   UNL     1       1.889   9.166  18.240  0.00  0.00    +0.000 A 
ATOM     10  C   UNL     1       2.544   8.143  17.468  0.00  0.00    +0.000 A 
ATOM     11  C   UNL     1       2.735   6.935  17.993  0.00  0.00    +0.000 A 
ATOM     12  N   UNL     1       2.317   6.627  19.286  0.00  0.00    +0.000 N 
BRANCH   9  13
ATOM     13  O   UNL     1       1.761  10.374  17.601  0.00  0.00    +0.000 OA
ATOM     14  H   UNL     1       0.904  10.393  17.144  0.00  0.00    +0.000 HD
ENDBRANCH   9  13
ENDBRANCH   1  12
BRANCH   4  15
ATOM     15  O   UNL     1       2.311   2.537  20.970  0.00  0.00    +0.000 OA
ATOM     16  H   UNL     1       3.108   2.932  21.357  0.00  0.00    +0.000 HD
ENDBRANCH   4  15
BRANCH   5  17
ATOM     17  O   UNL     1       0.380   4.308  20.604  0.00  0.00    +0.000 OA
ATOM     18  H   UNL     1      -0.268   4.983  20.330  0.00  0.00    +0.000 HD
ENDBRANCH   5  17
BRANCH   3  19
ATOM     19  C   UNL     1       3.526   3.136  17.480  0.00  0.00    +0.000 C 
BRANCH  19  20
ATOM     20  O   UNL     1       4.077   4.281  16.807  0.00  0.00    +0.000 OA
BRANCH  20  21
ATOM     21  P   UNL     1       5.786   4.450  17.021  0.00  0.00    +0.000 P 
ATOM     22  O   UNL     1       6.037   3.967  15.588  0.00  0.00    +0.000 OA
BRANCH  21  23
ATOM     23  O   UNL     1       5.508   6.057  16.918  0.00  0.00    +0.000 OA
ATOM     24  H   UNL     1       5.463   6.312  15.968  0.00  0.00    +0.000 HD
ENDBRANCH  21  23
BRANCH  21  25
ATOM     25  C   UNL     1       7.593   4.629  17.248  0.00  0.00    +0.000 C 
BRANCH  25  26
ATOM     26  P   UNL     1       7.948   5.072  18.988  0.00  0.00    +0.000 P 
ATOM     27  O   UNL     1       7.919   6.570  18.658  0.00  0.00    +0.000 OA
BRANCH  26  28
ATOM     28  O   UNL     1       6.422   4.689  19.447  0.00  0.00    +0.000 OA
ATOM     29  H   UNL     1       6.417   4.100  20.226  0.00  0.00    +0.000 HD
ENDBRANCH  26  28
BRANCH  26  30
ATOM     30  O   UNL     1       8.283   5.491  20.633  0.00  0.00    +0.000 OA
ATOM     31  H   UNL     1       7.474   5.188  21.101  0.00  0.00    +0.000 HD
ENDBRANCH  26  30
ENDBRANCH  25  26
ENDBRANCH  21  25
ENDBRANCH  20  21
ENDBRANCH  19  20
ENDBRANCH   3  19
TORSDOF 12
ENDMDL
MODEL 5
REMARK VINA RESULT:      -6.9      1.752      3.224
REMARK  Name = 
REMARK  12 active torsions:
REMARK  status: ('A' for Active; 'I' for Inactive)
REMARK    1  A    between atoms: C_4  and  O_5
REMARK    2  A    between atoms: N_8  and  C_9
REMARK    3  A    between atoms: C_11  and  C_12
REMARK    4  A    between atoms: C_12  and  O_13
REMARK    5  A    between atoms: O_13  and  P_14
REMARK    6  A    between atoms: P_14  and  O_16
REMARK    7  A    between atoms: P_14  and  C_17
REMARK    8  A    between atoms: C_17  and  P_18
REMARK    9  A    between atoms: P_18  and  O_20
REMARK   10  A    between atoms: P_18  and  O_21
REMARK   11  A    between atoms: C_22  and  O_23
REMARK   12  A    between atoms: C_24  and  O_25
REMARK                            x       y       z     vdW  Elec       q    Type
REMARK                         _______ _______ _______ _____ _____    ______ ____
ROOT
ATOM      1  C   UNL     1       2.807   5.746  19.926  0.00  0.00    +0.000 C 
ATOM      2  O   UNL     1       4.126   5.410  19.433  0.00  0.00    +0.000 OA
ATOM      3  C   UNL     1       4.154   4.024  19.028  0.00  0.00    +0.000 C 
ATOM      4  C   UNL     1       2.859   3.400  19.554  0.00  0.00    +0.000 C 
ATOM      5  C   UNL     1       1.882   4.567  19.573  0.00  0.00    +0.000 C 
ENDROOT
BRANCH   1  12
ATOM      6  O   UNL     1       1.276   7.546  21.387  0.00  0.00    +0.000 OA
ATOM      7  C   UNL     1       1.604   7.842  20.231  0.00  0.00    +0.000 A 
ATOM      8  C   UNL     1       1.178   9.153  19.692  0.00  0.00    +0.000 A 
ATOM      9  C   UNL     1       1.551   9.510  18.455  0.00  0.00    +0.000 A 
ATOM     10  C   UNL     1       2.330   8.620  17.635  0.00  0.00    +0.000 A 
ATOM     11  C   UNL     1       2.712   7.439  18.114  0.00  0.00    +0.000 A 
ATOM     12  N   UNL     1       2.377   7.031  19.403  0.00  0.00    +0.000 N 
BRANCH   9  13
ATOM     13  O   UNL     1       1.229  10.705  17.861  0.00  0.00    +0.000 OA
ATOM     14  H   UNL     1       1.786  11.402  18.247  0.00  0.00    +0.000 HD
ENDBRANCH   9  13
ENDBRANCH   1  12
BRANCH   4  15
ATOM     15  O   UNL     1       3.030   2.918  20.891  0.00  0.00    +0.000 OA
ATOM     16  H   UNL     1       3.879   3.223  21.245  0.00  0.00    +0.000 HD
ENDBRANCH   4  15
BRANCH   5  17
ATOM     17  O   UNL     1       0.831   4.336  20.505  0.00  0.00    +0.000 OA
ATOM     18  H   UNL     1       0.312   5.161  20.551  0.00  0.00    +0.000 HD
ENDBRANCH   5  17
BRANCH   3  19
ATOM     19  C   UNL     1       4.272   3.916  17.504  0.00  0.00    +0.000 C 
BRANCH  19  20
ATOM     20  O   UNL     1       4.662   5.169  16.917  0.00  0.00    +0.000 OA
BRANCH  20  21
ATOM     21  P   UNL     1       5.823   5.003  15.644  0.00  0.00    +0.000 P 
ATOM     22  O   UNL     1       6.899   5.674  16.506  0.00  0.00    +0.000 OA
BRANCH  21  23
ATOM     23  O   UNL     1       5.842   3.418  16.046  0.00  0.00    +0.000 OA
ATOM     24  H   UNL     1       6.527   2.962  15.505  0.00  0.00    +0.000 HD
ENDBRANCH  21  23
BRANCH  21  25
ATOM     25  C   UNL     1       7.050   4.826  14.298  0.00  0.00    +0.000 C 
BRANCH  25  26
ATOM     26  P   UNL     1       6.480   3.549  13.117  0.00  0.00    +0.000 P 
ATOM     27  O   UNL     1       5.029   4.038  13.223  0.00  0.00    +0.000 OA
BRANCH  26  28
ATOM     28  O   UNL     1       7.130   4.362  11.851  0.00  0.00    +0.000 OA
ATOM     29  H   UNL     1       8.087   4.186  11.763  0.00  0.00    +0.000 HD
ENDBRANCH  26  28
BRANCH  26  30
ATOM     30  O   UNL     1       5.941   2.343  12.000  0.00  0.00    +0.000 OA
ATOM     31  H   UNL     1       6.563   1.601  12.169  0.00  0.00    +0.000 HD
ENDBRANCH  26  30
ENDBRANCH  25  26
ENDBRANCH  21  25
ENDBRANCH  20  21
ENDBRANCH  19  20
ENDBRANCH   3  19
TORSDOF 12
ENDMDL
MODEL 6
REMARK VINA RESULT:      -6.8      1.442      2.810
REMARK  Name = 
REMARK  12 active torsions:
REMARK  status: ('A' for Active; 'I' for Inactive)
REMARK    1  A    between atoms: C_4  and  O_5
REMARK    2  A    between atoms: N_8  and  C_9
REMARK    3  A    between atoms: C_11  and  C_12
REMARK    4  A    between atoms: C_12  and  O_13
REMARK    5  A    between atoms: O_13  and  P_14
REMARK    6  A    between atoms: P_14  and  O_16
REMARK    7  A    between atoms: P_14  and  C_17
REMARK    8  A    between atoms: C_17  and  P_18
REMARK    9  A    between atoms: P_18  and  O_20
REMARK   10  A    between atoms: P_18  and  O_21
REMARK   11  A    between atoms: C_22  and  O_23
REMARK   12  A    between atoms: C_24  and  O_25
REMARK                            x       y       z     vdW  Elec       q    Type
REMARK                         _______ _______ _______ _____ _____    ______ ____
ROOT
ATOM      1  C   UNL     1       2.006   4.994  19.614  0.00  0.00    +0.000 C 
ATOM      2  O   UNL     1       3.147   4.693  20.451  0.00  0.00    +0.000 OA
ATOM      3  C   UNL     1       3.656   3.381  20.126  0.00  0.00    +0.000 C 
ATOM      4  C   UNL     1       2.603   2.727  19.228  0.00  0.00    +0.000 C 
ATOM      5  C   UNL     1       1.949   3.909  18.525  0.00  0.00    +0.000 C 
ENDROOT
BRANCH   1  12
ATOM      6  O   UNL     1       1.181   7.207  21.078  0.00  0.00    +0.000 OA
ATOM      7  C   UNL     1       1.629   7.379  19.938  0.00  0.00    +0.000 A 
ATOM      8  C   UNL     1       1.720   8.762  19.419  0.00  0.00    +0.000 A 
ATOM      9  C   UNL     1       2.235   8.976  18.200  0.00  0.00    +0.000 A 
ATOM     10  C   UNL     1       2.667   7.875  17.379  0.00  0.00    +0.000 A 
ATOM     11  C   UNL     1       2.582   6.630  17.840  0.00  0.00    +0.000 A 
ATOM     12  N   UNL     1       2.083   6.354  19.111  0.00  0.00    +0.000 N 
BRANCH   9  13
ATOM     13  O   UNL     1       2.384  10.214  17.626  0.00  0.00    +0.000 OA
ATOM     14  H   UNL     1       1.703  10.321  16.940  0.00  0.00    +0.000 HD
ENDBRANCH   9  13
ENDBRANCH   1  12
BRANCH   4  15
ATOM     15  O   UNL     1       1.614   2.050  20.010  0.00  0.00    +0.000 OA
ATOM     16  H   UNL     1       2.043   1.447  20.636  0.00  0.00    +0.000 HD
ENDBRANCH   4  15
BRANCH   5  17
ATOM     17  O   UNL     1       0.637   3.576  18.082  0.00  0.00    +0.000 OA
ATOM     18  H   UNL     1       0.024   4.160  18.566  0.00  0.00    +0.000 HD
ENDBRANCH   5  17
BRANCH   3  19
ATOM     19  C   UNL     1       5.019   3.493  19.433  0.00  0.00    +0.000 C 
BRANCH  19  20
ATOM     20  O   UNL     1       5.515   4.842  19.468  0.00  0.00    +0.000 OA
BRANCH  20  21
ATOM     21  P   UNL     1       6.348   5.307  18.024  0.00  0.00    +0.000 P 
ATOM     22  O   UNL     1       7.703   5.063  18.700  0.00  0.00    +0.000 OA
BRANCH  21  23
ATOM     23  O   UNL     1       5.867   3.859  17.436  0.00  0.00    +0.000 OA
ATOM     24  H   UNL     1       6.651   3.268  17.368  0.00  0.00    +0.000 HD
ENDBRANCH  21  23
BRANCH  21  25
ATOM     25  C   UNL     1       7.229   5.798  16.497  0.00  0.00    +0.000 C 
BRANCH  25  26
ATOM     26  P   UNL     1       6.780   4.655  15.140  0.00  0.00    +0.000 P 
ATOM     27  O   UNL     1       5.392   5.297  15.002  0.00  0.00    +0.000 OA
BRANCH  26  28
ATOM     28  O   UNL     1       7.745   5.454  14.084  0.00  0.00    +0.000 OA
ATOM     29  H   UNL     1       7.305   5.585  13.222  0.00  0.00    +0.000 HD
ENDBRANCH  26  28
BRANCH  26  30
ATOM     30  O   UNL     1       6.355   3.576  13.857  0.00  0.00    +0.000 OA
ATOM     31  H   UNL     1       6.984   2.831  13.985  0.00  0.00    +0.000 HD
ENDBRANCH  26  30
ENDBRANCH  25  26
ENDBRANCH  21  25
ENDBRANCH  20  21
ENDBRANCH  19  20
ENDBRANCH   3  19
TORSDOF 12
ENDMDL
MODEL 7
REMARK VINA RESULT:      -6.8      3.485      6.842
REMARK  Name = 
REMARK  12 active torsions:
REMARK  status: ('A' for Active; 'I' for Inactive)
REMARK    1  A    between atoms: C_4  and  O_5
REMARK    2  A    between atoms: N_8  and  C_9
REMARK    3  A    between atoms: C_11  and  C_12
REMARK    4  A    between atoms: C_12  and  O_13
REMARK    5  A    between atoms: O_13  and  P_14
REMARK    6  A    between atoms: P_14  and  O_16
REMARK    7  A    between atoms: P_14  and  C_17
REMARK    8  A    between atoms: C_17  and  P_18
REMARK    9  A    between atoms: P_18  and  O_20
REMARK   10  A    between atoms: P_18  and  O_21
REMARK   11  A    between atoms: C_22  and  O_23
REMARK   12  A    between atoms: C_24  and  O_25
REMARK                            x       y       z     vdW  Elec       q    Type
REMARK                         _______ _______ _______ _____ _____    ______ ____
ROOT
ATOM      1  C   UNL     1       7.213   5.027  16.748  0.00  0.00    +0.000 C 
ATOM      2  O   UNL     1       6.591   4.301  17.834  0.00  0.00    +0.000 OA
ATOM      3  C   UNL     1       6.248   5.218  18.897  0.00  0.00    +0.000 C 
ATOM      4  C   UNL     1       6.943   6.539  18.560  0.00  0.00    +0.000 C 
ATOM      5  C   UNL     1       7.020   6.525  17.040  0.00  0.00    +0.000 C 
ENDROOT
BRANCH   1  12
ATOM      6  O   UNL     1       8.354   5.720  14.310  0.00  0.00    +0.000 OA
ATOM      7  C   UNL     1       7.341   5.009  14.315  0.00  0.00    +0.000 A 
ATOM      8  C   UNL     1       6.800   4.547  13.017  0.00  0.00    +0.000 A 
ATOM      9  C   UNL     1       5.725   3.747  12.998  0.00  0.00    +0.000 A 
ATOM     10  C   UNL     1       5.072   3.361  14.222  0.00  0.00    +0.000 A 
ATOM     11  C   UNL     1       5.552   3.778  15.391  0.00  0.00    +0.000 A 
ATOM     12  N   UNL     1       6.685   4.586  15.468  0.00  0.00    +0.000 N 
BRANCH   9  13
ATOM     13  O   UNL     1       5.149   3.245  11.857  0.00  0.00    +0.000 OA
ATOM     14  H   UNL     1       4.186   3.360  11.920  0.00  0.00    +0.000 HD
ENDBRANCH   9  13
ENDBRANCH   1  12
BRANCH   4  15
ATOM     15  O   UNL     1       8.273   6.566  19.089  0.00  0.00    +0.000 OA
ATOM     16  H   UNL     1       8.334   7.229  19.794  0.00  0.00    +0.000 HD
ENDBRANCH   4  15
BRANCH   5  17
ATOM     17  O   UNL     1       8.072   7.364  16.575  0.00  0.00    +0.000 OA
ATOM     18  H   UNL     1       7.700   8.262  16.496  0.00  0.00    +0.000 HD
ENDBRANCH   5  17
BRANCH   3  19
ATOM     19  C   UNL     1       4.727   5.372  18.998  0.00  0.00    +0.000 C 
BRANCH  19  20
ATOM     20  O   UNL     1       4.058   4.699  17.917  0.00  0.00    +0.000 OA
BRANCH  20  21
ATOM     21  P   UNL     1       2.947   3.483  18.447  0.00  0.00    +0.000 P 
ATOM     22  O   UNL     1       2.278   3.460  17.067  0.00  0.00    +0.000 OA
BRANCH  21  23
ATOM     23  O   UNL     1       4.220   2.462  18.351  0.00  0.00    +0.000 OA
ATOM     24  H   UNL     1       4.649   2.405  19.236  0.00  0.00    +0.000 HD
ENDBRANCH  21  23
BRANCH  21  25
ATOM     25  C   UNL     1       1.772   2.196  19.007  0.00  0.00    +0.000 C 
BRANCH  25  26
ATOM     26  P   UNL     1       1.460   2.393  20.799  0.00  0.00    +0.000 P 
ATOM     27  O   UNL     1       2.925   2.771  21.056  0.00  0.00    +0.000 OA
BRANCH  26  28
ATOM     28  O   UNL     1       0.673   3.810  20.555  0.00  0.00    +0.000 OA
ATOM     29  H   UNL     1       1.099   4.546  21.034  0.00  0.00    +0.000 HD
ENDBRANCH  26  28
BRANCH  26  30
ATOM     30  O   UNL     1       1.166   2.580  22.494  0.00  0.00    +0.000 OA
ATOM     31  H   UNL     1       1.039   3.551  22.584  0.00  0.00    +0.000 HD
ENDBRANCH  26  30
ENDBRANCH  25  26
ENDBRANCH  21  25
ENDBRANCH  20  21
ENDBRANCH  19  20
ENDBRANCH   3  19
TORSDOF 12
ENDMDL
MODEL 8
REMARK VINA RESULT:      -6.7      2.500      6.114
REMARK  Name = 
REMARK  12 active torsions:
REMARK  status: ('A' for Active; 'I' for Inactive)
REMARK    1  A    between atoms: C_4  and  O_5
REMARK    2  A    between atoms: N_8  and  C_9
REMARK    3  A    between atoms: C_11  and  C_12
REMARK    4  A    between atoms: C_12  and  O_13
REMARK    5  A    between atoms: O_13  and  P_14
REMARK    6  A    between atoms: P_14  and  O_16
REMARK    7  A    between atoms: P_14  and  C_17
REMARK    8  A    between atoms: C_17  and  P_18
REMARK    9  A    between atoms: P_18  and  O_20
REMARK   10  A    between atoms: P_18  and  O_21
REMARK   11  A    between atoms: C_22  and  O_23
REMARK   12  A    between atoms: C_24  and  O_25
REMARK                            x       y       z     vdW  Elec       q    Type
REMARK                         _______ _______ _______ _____ _____    ______ ____
ROOT
ATOM      1  C   UNL     1       5.218   3.966  17.945  0.00  0.00    +0.000 C 
ATOM      2  O   UNL     1       5.506   5.233  18.581  0.00  0.00    +0.000 OA
ATOM      3  C   UNL     1       6.126   6.125  17.628  0.00  0.00    +0.000 C 
ATOM      4  C   UNL     1       6.486   5.266  16.414  0.00  0.00    +0.000 C 
ATOM      5  C   UNL     1       5.440   4.160  16.435  0.00  0.00    +0.000 C 
ENDROOT
BRANCH   1  12
ATOM      6  O   UNL     1       4.713   2.393  20.180  0.00  0.00    +0.000 OA
ATOM      7  C   UNL     1       3.768   2.710  19.447  0.00  0.00    +0.000 A 
ATOM      8  C   UNL     1       2.410   2.248  19.812  0.00  0.00    +0.000 A 
ATOM      9  C   UNL     1       1.366   2.608  19.053  0.00  0.00    +0.000 A 
ATOM     10  C   UNL     1       1.555   3.408  17.871  0.00  0.00    +0.000 A 
ATOM     11  C   UNL     1       2.774   3.821  17.536  0.00  0.00    +0.000 A 
ATOM     12  N   UNL     1       3.890   3.501  18.307  0.00  0.00    +0.000 N 
BRANCH   9  13
ATOM     13  O   UNL     1       0.063   2.254  19.304  0.00  0.00    +0.000 OA
ATOM     14  H   UNL     1      -0.472   2.465  18.521  0.00  0.00    +0.000 HD
ENDBRANCH   9  13
ENDBRANCH   1  12
BRANCH   4  15
ATOM     15  O   UNL     1       7.783   4.679  16.570  0.00  0.00    +0.000 OA
ATOM     16  H   UNL     1       8.465   5.304  16.282  0.00  0.00    +0.000 HD
ENDBRANCH   4  15
BRANCH   5  17
ATOM     17  O   UNL     1       5.908   3.003  15.748  0.00  0.00    +0.000 OA
ATOM     18  H   UNL     1       6.359   3.320  14.944  0.00  0.00    +0.000 HD
ENDBRANCH   5  17
BRANCH   3  19
ATOM     19  C   UNL     1       5.170   7.267  17.266  0.00  0.00    +0.000 C 
BRANCH  19  20
ATOM     20  O   UNL     1       3.800   6.832  17.288  0.00  0.00    +0.000 OA
BRANCH  20  21
ATOM     21  P   UNL     1       2.811   7.726  18.392  0.00  0.00    +0.000 P 
ATOM     22  O   UNL     1       1.540   7.203  17.713  0.00  0.00    +0.000 OA
BRANCH  21  23
ATOM     23  O   UNL     1       3.239   6.593  19.490  0.00  0.00    +0.000 OA
ATOM     24  H   UNL     1       3.486   5.767  19.015  0.00  0.00    +0.000 HD
ENDBRANCH  21  23
BRANCH  21  25
ATOM     25  C   UNL     1       1.766   8.671  19.559  0.00  0.00    +0.000 C 
BRANCH  25  26
ATOM     26  P   UNL     1       0.724   9.852  18.627  0.00  0.00    +0.000 P 
ATOM     27  O   UNL     1       1.073  10.990  19.595  0.00  0.00    +0.000 OA
BRANCH  26  28
ATOM     28  O   UNL     1       1.827   9.945  17.419  0.00  0.00    +0.000 OA
ATOM     29  H   UNL     1       2.082   9.060  17.094  0.00  0.00    +0.000 HD
ENDBRANCH  26  28
BRANCH  26  30
ATOM     30  O   UNL     1      -0.260  10.969  17.745  0.00  0.00    +0.000 OA
ATOM     31  H   UNL     1      -1.151  10.823  18.133  0.00  0.00    +0.000 HD
ENDBRANCH  26  30
ENDBRANCH  25  26
ENDBRANCH  21  25
ENDBRANCH  20  21
ENDBRANCH  19  20
ENDBRANCH   3  19
TORSDOF 12
ENDMDL
MODEL 9
REMARK VINA RESULT:      -6.7      1.808      3.239
REMARK  Name = 
REMARK  12 active torsions:
REMARK  status: ('A' for Active; 'I' for Inactive)
REMARK    1  A    between atoms: C_4  and  O_5
REMARK    2  A    between atoms: N_8  and  C_9
REMARK    3  A    between atoms: C_11  and  C_12
REMARK    4  A    between atoms: C_12  and  O_13
REMARK    5  A    between atoms: O_13  and  P_14
REMARK    6  A    between atoms: P_14  and  O_16
REMARK    7  A    between atoms: P_14  and  C_17
REMARK    8  A    between atoms: C_17  and  P_18
REMARK    9  A    between atoms: P_18  and  O_20
REMARK   10  A    between atoms: P_18  and  O_21
REMARK   11  A    between atoms: C_22  and  O_23
REMARK   12  A    between atoms: C_24  and  O_25
REMARK                            x       y       z     vdW  Elec       q    Type
REMARK                         _______ _______ _______ _____ _____    ______ ____
ROOT
ATOM      1  C   UNL     1       3.016   5.512  19.809  0.00  0.00    +0.000 C 
ATOM      2  O   UNL     1       4.431   5.304  19.590  0.00  0.00    +0.000 OA
ATOM      3  C   UNL     1       4.658   3.954  19.131  0.00  0.00    +0.000 C 
ATOM      4  C   UNL     1       3.339   3.206  19.340  0.00  0.00    +0.000 C 
ATOM      5  C   UNL     1       2.286   4.297  19.211  0.00  0.00    +0.000 C 
ENDROOT
BRANCH   1  12
ATOM      6  O   UNL     1       1.349   7.263  21.179  0.00  0.00    +0.000 OA
ATOM      7  C   UNL     1       1.751   7.580  20.053  0.00  0.00    +0.000 A 
ATOM      8  C   UNL     1       1.337   8.890  19.500  0.00  0.00    +0.000 A 
ATOM      9  C   UNL     1       1.789   9.270  18.297  0.00  0.00    +0.000 A 
ATOM     10  C   UNL     1       2.643   8.407  17.524  0.00  0.00    +0.000 A 
ATOM     11  C   UNL     1       3.014   7.226  18.015  0.00  0.00    +0.000 A 
ATOM     12  N   UNL     1       2.597   6.795  19.273  0.00  0.00    +0.000 N 
BRANCH   9  13
ATOM     13  O   UNL     1       1.486  10.466  17.696  0.00  0.00    +0.000 OA
ATOM     14  H   UNL     1       2.317  10.911  17.456  0.00  0.00    +0.000 HD
ENDBRANCH   9  13
ENDBRANCH   1  12
BRANCH   4  15
ATOM     15  O   UNL     1       3.270   2.649  20.657  0.00  0.00    +0.000 OA
ATOM     16  H   UNL     1       4.037   2.934  21.176  0.00  0.00    +0.000 HD
ENDBRANCH   4  15
BRANCH   5  17
ATOM     17  O   UNL     1       1.087   3.930  19.886  0.00  0.00    +0.000 OA
ATOM     18  H   UNL     1       1.279   3.980  20.841  0.00  0.00    +0.000 HD
ENDBRANCH   5  17
BRANCH   3  19
ATOM     19  C   UNL     1       5.098   3.956  17.663  0.00  0.00    +0.000 C 
BRANCH  19  20
ATOM     20  O   UNL     1       6.174   4.882  17.438  0.00  0.00    +0.000 OA
BRANCH  20  21
ATOM     21  P   UNL     1       6.666   4.978  15.782  0.00  0.00    +0.000 P 
ATOM     22  O   UNL     1       5.293   5.527  15.381  0.00  0.00    +0.000 OA
BRANCH  21  23
ATOM     23  O   UNL     1       7.552   6.268  16.255  0.00  0.00    +0.000 OA
ATOM     24  H   UNL     1       8.324   6.362  15.652  0.00  0.00    +0.000 HD
ENDBRANCH  21  23
BRANCH  21  25
ATOM     25  C   UNL     1       7.188   5.079  14.031  0.00  0.00    +0.000 C 
BRANCH  25  26
ATOM     26  P   UNL     1       6.051   4.084  12.998  0.00  0.00    +0.000 P 
ATOM     27  O   UNL     1       7.196   3.664  12.067  0.00  0.00    +0.000 OA
BRANCH  26  28
ATOM     28  O   UNL     1       5.958   2.915  14.142  0.00  0.00    +0.000 OA
ATOM     29  H   UNL     1       5.985   3.289  15.043  0.00  0.00    +0.000 HD
ENDBRANCH  26  28
BRANCH  26  30
ATOM     30  O   UNL     1       4.977   3.144  12.021  0.00  0.00    +0.000 OA
ATOM     31  H   UNL     1       5.546   2.396  11.734  0.00  0.00    +0.000 HD
ENDBRANCH  26  30
ENDBRANCH  25  26
ENDBRANCH  21  25
ENDBRANCH  20  21
ENDBRANCH  19  20
ENDBRANCH   3  19
TORSDOF 12
ENDMDL
