MODEL 1
REMARK VINA RESULT:      -7.9      0.000      0.000
REMARK  Name = 
REMARK  7 active torsions:
REMARK  status: ('A' for Active; 'I' for Inactive)
REMARK    1  A    between atoms: C_1  and  C_2
REMARK    2  A    between atoms: C_2  and  N_3
REMARK    3  A    between atoms: N_3  and  C_4
REMARK    4  A    between atoms: C_5  and  O_7
REMARK    5  A    between atoms: O_7  and  C_8
REMARK    6  A    between atoms: C_8  and  C_9
REMARK    7  A    between atoms: N_13  and  C_14
REMARK                            x       y       z     vdW  Elec       q    Type
REMARK                         _______ _______ _______ _____ _____    ______ ____
ROOT
ATOM      1  C   UNL     1       6.626   6.303  16.545  0.00  0.00    +0.000 C 
ATOM      2  C   UNL     1       7.465   7.172  17.488  0.00  0.00    +0.000 C 
ATOM      3  C   UNL     1       7.972   6.357  18.672  0.00  0.00    +0.000 C 
ATOM      4  C   UNL     1       6.823   5.630  19.380  0.00  0.00    +0.000 C 
ATOM      5  N   UNL     1       6.055   4.781  18.450  0.00  0.00    +0.000 NA
ATOM      6  C   UNL     1       5.521   5.591  17.338  0.00  0.00    +0.000 C 
ENDROOT
BRANCH   5   7
ATOM      7  C   UNL     1       4.963   4.043  19.136  0.00  0.00    +0.000 C 
ATOM      8  C   UNL     1       3.892   4.976  19.778  0.00  0.00    +0.000 C 
ATOM      9  C   UNL     1       2.658   4.133  19.755  0.00  0.00    +0.000 A 
ATOM     10  C   UNL     1       1.463   4.371  20.408  0.00  0.00    +0.000 A 
ATOM     11  C   UNL     1       0.406   3.486  20.195  0.00  0.00    +0.000 A 
ATOM     12  C   UNL     1       0.559   2.384  19.339  0.00  0.00    +0.000 A 
ATOM     13  C   UNL     1       1.766   2.160  18.677  0.00  0.00    +0.000 A 
ATOM     14  C   UNL     1       2.812   3.043  18.895  0.00  0.00    +0.000 A 
ATOM     15  C   UNL     1       4.159   3.056  18.241  0.00  0.00    +0.000 C 
ENDBRANCH   5   7
BRANCH   1  16
ATOM     16  C   UNL     1       7.489   5.294  15.765  0.00  0.00    +0.000 C 
BRANCH  16  17
ATOM     17  O   UNL     1       7.126   5.282  14.373  0.00  0.00    +0.000 OA
BRANCH  17  20
ATOM     18  N   UNL     1       6.553   3.924  12.627  0.00  0.00    +0.000 N 
ATOM     19  C   UNL     1       7.385   4.763  11.780  0.00  0.00    +0.000 C 
ATOM     20  C   UNL     1       6.421   4.191  13.977  0.00  0.00    +0.000 C 
ATOM     21  O   UNL     1       5.725   3.515  14.729  0.00  0.00    +0.000 OA
BRANCH  18  23
ATOM     22  C   UNL     1       4.408   3.215  11.566  0.00  0.00    +0.000 C 
ATOM     23  C   UNL     1       5.797   2.819  12.047  0.00  0.00    +0.000 C 
ENDBRANCH  18  23
ENDBRANCH  17  20
ENDBRANCH  16  17
ENDBRANCH   1  16
TORSDOF 5
ENDMDL
MODEL 2
REMARK VINA RESULT:      -7.6      3.145      5.501
REMARK  Name = 
REMARK  7 active torsions:
REMARK  status: ('A' for Active; 'I' for Inactive)
REMARK    1  A    between atoms: C_1  and  C_2
REMARK    2  A    between atoms: C_2  and  N_3
REMARK    3  A    between atoms: N_3  and  C_4
REMARK    4  A    between atoms: C_5  and  O_7
REMARK    5  A    between atoms: O_7  and  C_8
REMARK    6  A    between atoms: C_8  and  C_9
REMARK    7  A    between atoms: N_13  and  C_14
REMARK                            x       y       z     vdW  Elec       q    Type
REMARK                         _______ _______ _______ _____ _____    ______ ____
ROOT
ATOM      1  C   UNL     1       4.585   3.588  18.053  0.00  0.00    +0.000 C 
ATOM      2  C   UNL     1       3.334   2.723  17.866  0.00  0.00    +0.000 C 
ATOM      3  C   UNL     1       2.184   3.547  17.300  0.00  0.00    +0.000 C 
ATOM      4  C   UNL     1       1.931   4.803  18.143  0.00  0.00    +0.000 C 
ATOM      5  N   UNL     1       3.149   5.626  18.278  0.00  0.00    +0.000 NA
ATOM      6  C   UNL     1       4.239   4.834  18.880  0.00  0.00    +0.000 C 
ENDROOT
BRANCH   5   7
ATOM      7  C   UNL     1       2.903   6.865  19.061  0.00  0.00    +0.000 C 
ATOM      8  C   UNL     1       2.254   8.010  18.225  0.00  0.00    +0.000 C 
ATOM      9  C   UNL     1       1.497   8.786  19.254  0.00  0.00    +0.000 A 
ATOM     10  C   UNL     1       0.923  10.035  19.113  0.00  0.00    +0.000 A 
ATOM     11  C   UNL     1       0.197  10.554  20.184  0.00  0.00    +0.000 A 
ATOM     12  C   UNL     1       0.056   9.821  21.373  0.00  0.00    +0.000 A 
ATOM     13  C   UNL     1       0.630   8.556  21.500  0.00  0.00    +0.000 A 
ATOM     14  C   UNL     1       1.352   8.048  20.431  0.00  0.00    +0.000 A 
ATOM     15  C   UNL     1       1.982   6.695  20.304  0.00  0.00    +0.000 C 
ENDBRANCH   5   7
BRANCH   1  16
ATOM     16  C   UNL     1       5.230   3.973  16.708  0.00  0.00    +0.000 C 
BRANCH  16  17
ATOM     17  O   UNL     1       6.521   4.575  16.917  0.00  0.00    +0.000 OA
BRANCH  17  20
ATOM     18  N   UNL     1       7.231   6.644  17.576  0.00  0.00    +0.000 N 
ATOM     19  C   UNL     1       7.761   6.014  18.774  0.00  0.00    +0.000 C 
ATOM     20  C   UNL     1       6.590   5.896  16.607  0.00  0.00    +0.000 C 
ATOM     21  O   UNL     1       6.121   6.385  15.583  0.00  0.00    +0.000 OA
BRANCH  18  23
ATOM     22  C   UNL     1       8.456   8.729  18.196  0.00  0.00    +0.000 C 
ATOM     23  C   UNL     1       7.320   8.091  17.408  0.00  0.00    +0.000 C 
ENDBRANCH  18  23
ENDBRANCH  17  20
ENDBRANCH  16  17
ENDBRANCH   1  16
TORSDOF 5
ENDMDL
MODEL 3
REMARK VINA RESULT:      -7.5      3.802      7.257
REMARK  Name = 
REMARK  7 active torsions:
REMARK  status: ('A' for Active; 'I' for Inactive)
REMARK    1  A    between atoms: C_1  and  C_2
REMARK    2  A    between atoms: C_2  and  N_3
REMARK    3  A    between atoms: N_3  and  C_4
REMARK    4  A    between atoms: C_5  and  O_7
REMARK    5  A    between atoms: O_7  and  C_8
REMARK    6  A    between atoms: C_8  and  C_9
REMARK    7  A    between atoms: N_13  and  C_14
REMARK                            x       y       z     vdW  Elec       q    Type
REMARK                         _______ _______ _______ _____ _____    ______ ____
ROOT
ATOM      1  C   UNL     1       1.389   4.706  20.023  0.00  0.00    +0.000 C 
ATOM      2  C   UNL     1       1.111   3.463  20.875  0.00  0.00    +0.000 C 
ATOM      3  C   UNL     1       2.404   2.900  21.454  0.00  0.00    +0.000 C 
ATOM      4  C   UNL     1       3.447   2.661  20.356  0.00  0.00    +0.000 C 
ATOM      5  N   UNL     1       3.712   3.884  19.575  0.00  0.00    +0.000 NA
ATOM      6  C   UNL     1       2.462   4.389  18.972  0.00  0.00    +0.000 C 
ENDROOT
BRANCH   5   7
ATOM      7  C   UNL     1       4.750   3.670  18.534  0.00  0.00    +0.000 C 
ATOM      8  C   UNL     1       4.162   3.441  17.108  0.00  0.00    +0.000 C 
ATOM      9  C   UNL     1       5.250   3.942  16.214  0.00  0.00    +0.000 A 
ATOM     10  C   UNL     1       5.363   3.769  14.847  0.00  0.00    +0.000 A 
ATOM     11  C   UNL     1       6.429   4.381  14.190  0.00  0.00    +0.000 A 
ATOM     12  C   UNL     1       7.360   5.153  14.903  0.00  0.00    +0.000 A 
ATOM     13  C   UNL     1       7.229   5.330  16.281  0.00  0.00    +0.000 A 
ATOM     14  C   UNL     1       6.168   4.717  16.928  0.00  0.00    +0.000 A 
ATOM     15  C   UNL     1       5.777   4.827  18.369  0.00  0.00    +0.000 C 
ENDBRANCH   5   7
BRANCH   1  16
ATOM     16  C   UNL     1       1.794   5.919  20.882  0.00  0.00    +0.000 C 
BRANCH  16  17
ATOM     17  O   UNL     1       2.211   7.016  20.049  0.00  0.00    +0.000 OA
BRANCH  17  20
ATOM     18  N   UNL     1       1.444   8.963  19.132  0.00  0.00    +0.000 N 
ATOM     19  C   UNL     1       2.001   8.516  17.866  0.00  0.00    +0.000 C 
ATOM     20  C   UNL     1       1.549   8.181  20.267  0.00  0.00    +0.000 C 
ATOM     21  O   UNL     1       1.100   8.520  21.358  0.00  0.00    +0.000 OA
BRANCH  18  23
ATOM     22  C   UNL     1       1.651  11.401  18.640  0.00  0.00    +0.000 C 
ATOM     23  C   UNL     1       0.815  10.275  19.233  0.00  0.00    +0.000 C 
ENDBRANCH  18  23
ENDBRANCH  17  20
ENDBRANCH  16  17
ENDBRANCH   1  16
TORSDOF 5
ENDMDL
MODEL 4
REMARK VINA RESULT:      -7.3      0.662      1.350
REMARK  Name = 
REMARK  7 active torsions:
REMARK  status: ('A' for Active; 'I' for Inactive)
REMARK    1  A    between atoms: C_1  and  C_2
REMARK    2  A    between atoms: C_2  and  N_3
REMARK    3  A    between atoms: N_3  and  C_4
REMARK    4  A    between atoms: C_5  and  O_7
REMARK    5  A    between atoms: O_7  and  C_8
REMARK    6  A    between atoms: C_8  and  C_9
REMARK    7  A    between atoms: N_13  and  C_14
REMARK                            x       y       z     vdW  Elec       q    Type
REMARK                         _______ _______ _______ _____ _____    ______ ____
ROOT
ATOM      1  C   UNL     1       7.059   6.709  16.598  0.00  0.00    +0.000 C 
ATOM      2  C   UNL     1       7.931   6.999  17.825  0.00  0.00    +0.000 C 
ATOM      3  C   UNL     1       7.751   5.921  18.887  0.00  0.00    +0.000 C 
ATOM      4  C   UNL     1       6.271   5.719  19.230  0.00  0.00    +0.000 C 
ATOM      5  N   UNL     1       5.466   5.413  18.031  0.00  0.00    +0.000 NA
ATOM      6  C   UNL     1       5.603   6.491  17.033  0.00  0.00    +0.000 C 
ENDROOT
BRANCH   5   7
ATOM      7  C   UNL     1       4.037   5.178  18.361  0.00  0.00    +0.000 C 
ATOM      8  C   UNL     1       3.441   3.913  17.672  0.00  0.00    +0.000 C 
ATOM      9  C   UNL     1       2.361   3.496  18.618  0.00  0.00    +0.000 A 
ATOM     10  C   UNL     1       1.358   2.570  18.397  0.00  0.00    +0.000 A 
ATOM     11  C   UNL     1       0.487   2.276  19.445  0.00  0.00    +0.000 A 
ATOM     12  C   UNL     1       0.631   2.906  20.691  0.00  0.00    +0.000 A 
ATOM     13  C   UNL     1       1.654   3.830  20.907  0.00  0.00    +0.000 A 
ATOM     14  C   UNL     1       2.514   4.119  19.859  0.00  0.00    +0.000 A 
ATOM     15  C   UNL     1       3.723   5.004  19.875  0.00  0.00    +0.000 C 
ENDBRANCH   5   7
BRANCH   1  16
ATOM     16  C   UNL     1       7.583   5.509  15.786  0.00  0.00    +0.000 C 
BRANCH  16  17
ATOM     17  O   UNL     1       7.031   5.516  14.456  0.00  0.00    +0.000 OA
BRANCH  17  20
ATOM     18  N   UNL     1       6.567   4.025  12.788  0.00  0.00    +0.000 N 
ATOM     19  C   UNL     1       7.418   4.823  11.921  0.00  0.00    +0.000 C 
ATOM     20  C   UNL     1       6.369   4.382  14.109  0.00  0.00    +0.000 C 
ATOM     21  O   UNL     1       5.654   3.744  14.876  0.00  0.00    +0.000 OA
BRANCH  18  23
ATOM     22  C   UNL     1       4.546   3.208  11.573  0.00  0.00    +0.000 C 
ATOM     23  C   UNL     1       5.862   2.864  12.256  0.00  0.00    +0.000 C 
ENDBRANCH  18  23
ENDBRANCH  17  20
ENDBRANCH  16  17
ENDBRANCH   1  16
TORSDOF 5
ENDMDL
MODEL 5
REMARK VINA RESULT:      -7.2      3.432      5.606
REMARK  Name = 
REMARK  7 active torsions:
REMARK  status: ('A' for Active; 'I' for Inactive)
REMARK    1  A    between atoms: C_1  and  C_2
REMARK    2  A    between atoms: C_2  and  N_3
REMARK    3  A    between atoms: N_3  and  C_4
REMARK    4  A    between atoms: C_5  and  O_7
REMARK    5  A    between atoms: O_7  and  C_8
REMARK    6  A    between atoms: C_8  and  C_9
REMARK    7  A    between atoms: N_13  and  C_14
REMARK                            x       y       z     vdW  Elec       q    Type
REMARK                         _______ _______ _______ _____ _____    ______ ____
ROOT
ATOM      1  C   UNL     1       3.349   2.941  20.353  0.00  0.00    +0.000 C 
ATOM      2  C   UNL     1       1.953   2.420  20.710  0.00  0.00    +0.000 C 
ATOM      3  C   UNL     1       0.880   3.150  19.911  0.00  0.00    +0.000 C 
ATOM      4  C   UNL     1       1.015   4.671  20.058  0.00  0.00    +0.000 C 
ATOM      5  N   UNL     1       2.362   5.141  19.679  0.00  0.00    +0.000 NA
ATOM      6  C   UNL     1       3.389   4.468  20.499  0.00  0.00    +0.000 C 
ENDROOT
BRANCH   5   7
ATOM      7  C   UNL     1       2.489   6.617  19.783  0.00  0.00    +0.000 C 
ATOM      8  C   UNL     1       2.339   7.351  18.415  0.00  0.00    +0.000 C 
ATOM      9  C   UNL     1       1.810   8.691  18.812  0.00  0.00    +0.000 A 
ATOM     10  C   UNL     1       1.709   9.823  18.025  0.00  0.00    +0.000 A 
ATOM     11  C   UNL     1       1.118  10.960  18.575  0.00  0.00    +0.000 A 
ATOM     12  C   UNL     1       0.639  10.948  19.895  0.00  0.00    +0.000 A 
ATOM     13  C   UNL     1       0.735   9.796  20.676  0.00  0.00    +0.000 A 
ATOM     14  C   UNL     1       1.326   8.671  20.122  0.00  0.00    +0.000 A 
ATOM     15  C   UNL     1       1.467   7.310  20.730  0.00  0.00    +0.000 C 
ENDBRANCH   5   7
BRANCH   1  16
ATOM     16  C   UNL     1       3.789   2.505  18.943  0.00  0.00    +0.000 C 
BRANCH  16  17
ATOM     17  O   UNL     1       4.772   3.412  18.413  0.00  0.00    +0.000 OA
BRANCH  17  20
ATOM     18  N   UNL     1       5.651   4.372  16.535  0.00  0.00    +0.000 N 
ATOM     19  C   UNL     1       6.922   4.438  17.237  0.00  0.00    +0.000 C 
ATOM     20  C   UNL     1       4.533   3.834  17.145  0.00  0.00    +0.000 C 
ATOM     21  O   UNL     1       3.438   3.764  16.595  0.00  0.00    +0.000 OA
BRANCH  18  23
ATOM     22  C   UNL     1       6.227   4.106  14.121  0.00  0.00    +0.000 C 
ATOM     23  C   UNL     1       5.525   4.929  15.193  0.00  0.00    +0.000 C 
ENDBRANCH  18  23
ENDBRANCH  17  20
ENDBRANCH  16  17
ENDBRANCH   1  16
TORSDOF 5
ENDMDL
MODEL 6
REMARK VINA RESULT:      -7.1      0.866      1.201
REMARK  Name = 
REMARK  7 active torsions:
REMARK  status: ('A' for Active; 'I' for Inactive)
REMARK    1  A    between atoms: C_1  and  C_2
REMARK    2  A    between atoms: C_2  and  N_3
REMARK    3  A    between atoms: N_3  and  C_4
REMARK    4  A    between atoms: C_5  and  O_7
REMARK    5  A    between atoms: O_7  and  C_8
REMARK    6  A    between atoms: C_8  and  C_9
REMARK    7  A    between atoms: N_13  and  C_14
REMARK                            x       y       z     vdW  Elec       q    Type
REMARK                         _______ _______ _______ _____ _____    ______ ____
ROOT
ATOM      1  C   UNL     1       6.701   6.950  17.089  0.00  0.00    +0.000 C 
ATOM      2  C   UNL     1       7.676   7.458  18.158  0.00  0.00    +0.000 C 
ATOM      3  C   UNL     1       8.192   6.306  19.013  0.00  0.00    +0.000 C 
ATOM      4  C   UNL     1       7.036   5.480  19.590  0.00  0.00    +0.000 C 
ATOM      5  N   UNL     1       6.135   4.984  18.532  0.00  0.00    +0.000 NA
ATOM      6  C   UNL     1       5.596   6.112  17.746  0.00  0.00    +0.000 C 
ENDROOT
BRANCH   5   7
ATOM      7  C   UNL     1       5.034   4.150  19.080  0.00  0.00    +0.000 C 
ATOM      8  C   UNL     1       3.918   4.980  19.785  0.00  0.00    +0.000 C 
ATOM      9  C   UNL     1       2.705   4.125  19.611  0.00  0.00    +0.000 A 
ATOM     10  C   UNL     1       1.481   4.261  20.238  0.00  0.00    +0.000 A 
ATOM     11  C   UNL     1       0.453   3.390  19.878  0.00  0.00    +0.000 A 
ATOM     12  C   UNL     1       0.663   2.403  18.902  0.00  0.00    +0.000 A 
ATOM     13  C   UNL     1       1.899   2.282  18.267  0.00  0.00    +0.000 A 
ATOM     14  C   UNL     1       2.916   3.150  18.632  0.00  0.00    +0.000 A 
ATOM     15  C   UNL     1       4.287   3.265  18.040  0.00  0.00    +0.000 C 
ENDBRANCH   5   7
BRANCH   1  16
ATOM     16  C   UNL     1       7.418   6.156  15.982  0.00  0.00    +0.000 C 
BRANCH  16  17
ATOM     17  O   UNL     1       6.476   5.689  14.999  0.00  0.00    +0.000 OA
BRANCH  17  20
ATOM     18  N   UNL     1       6.271   4.124  13.347  0.00  0.00    +0.000 N 
ATOM     19  C   UNL     1       5.006   3.740  13.950  0.00  0.00    +0.000 C 
ATOM     20  C   UNL     1       7.034   5.141  13.889  0.00  0.00    +0.000 C 
ATOM     21  O   UNL     1       8.112   5.495  13.418  0.00  0.00    +0.000 OA
BRANCH  18  23
ATOM     22  C   UNL     1       5.786   2.405  11.603  0.00  0.00    +0.000 C 
ATOM     23  C   UNL     1       6.782   3.398  12.189  0.00  0.00    +0.000 C 
ENDBRANCH  18  23
ENDBRANCH  17  20
ENDBRANCH  16  17
ENDBRANCH   1  16
TORSDOF 5
ENDMDL
MODEL 7
REMARK VINA RESULT:      -7.1      3.208      5.574
REMARK  Name = 
REMARK  7 active torsions:
REMARK  status: ('A' for Active; 'I' for Inactive)
REMARK    1  A    between atoms: C_1  and  C_2
REMARK    2  A    between atoms: C_2  and  N_3
REMARK    3  A    between atoms: N_3  and  C_4
REMARK    4  A    between atoms: C_5  and  O_7
REMARK    5  A    between atoms: O_7  and  C_8
REMARK    6  A    between atoms: C_8  and  C_9
REMARK    7  A    between atoms: N_13  and  C_14
REMARK                            x       y       z     vdW  Elec       q    Type
REMARK                         _______ _______ _______ _____ _____    ______ ____
ROOT
ATOM      1  C   UNL     1       5.170   4.204  19.102  0.00  0.00    +0.000 C 
ATOM      2  C   UNL     1       4.560   2.891  19.607  0.00  0.00    +0.000 C 
ATOM      3  C   UNL     1       3.201   2.642  18.964  0.00  0.00    +0.000 C 
ATOM      4  C   UNL     1       2.272   3.849  19.140  0.00  0.00    +0.000 C 
ATOM      5  N   UNL     1       2.879   5.089  18.618  0.00  0.00    +0.000 NA
ATOM      6  C   UNL     1       4.167   5.351  19.289  0.00  0.00    +0.000 C 
ENDROOT
BRANCH   5   7
ATOM      7  C   UNL     1       1.969   6.256  18.750  0.00  0.00    +0.000 C 
ATOM      8  C   UNL     1       1.852   6.791  20.210  0.00  0.00    +0.000 C 
ATOM      9  C   UNL     1       1.532   8.237  20.011  0.00  0.00    +0.000 A 
ATOM     10  C   UNL     1       1.097   9.142  20.961  0.00  0.00    +0.000 A 
ATOM     11  C   UNL     1       0.921  10.471  20.577  0.00  0.00    +0.000 A 
ATOM     12  C   UNL     1       1.181  10.873  19.258  0.00  0.00    +0.000 A 
ATOM     13  C   UNL     1       1.632   9.953  18.309  0.00  0.00    +0.000 A 
ATOM     14  C   UNL     1       1.803   8.634  18.699  0.00  0.00    +0.000 A 
ATOM     15  C   UNL     1       2.348   7.497  17.891  0.00  0.00    +0.000 C 
ENDBRANCH   5   7
BRANCH   1  16
ATOM     16  C   UNL     1       5.634   4.102  17.637  0.00  0.00    +0.000 C 
BRANCH  16  17
ATOM     17  O   UNL     1       6.967   4.625  17.488  0.00  0.00    +0.000 OA
BRANCH  17  20
ATOM     18  N   UNL     1       7.606   6.790  17.839  0.00  0.00    +0.000 N 
ATOM     19  C   UNL     1       8.077   6.375  19.150  0.00  0.00    +0.000 C 
ATOM     20  C   UNL     1       7.033   5.879  16.972  0.00  0.00    +0.000 C 
ATOM     21  O   UNL     1       6.614   6.184  15.859  0.00  0.00    +0.000 OA
BRANCH  18  23
ATOM     22  C   UNL     1       8.521   9.048  18.382  0.00  0.00    +0.000 C 
ATOM     23  C   UNL     1       7.681   8.192  17.443  0.00  0.00    +0.000 C 
ENDBRANCH  18  23
ENDBRANCH  17  20
ENDBRANCH  16  17
ENDBRANCH   1  16
TORSDOF 5
ENDMDL
MODEL 8
REMARK VINA RESULT:      -7.1      3.615      5.843
REMARK  Name = 
REMARK  7 active torsions:
REMARK  status: ('A' for Active; 'I' for Inactive)
REMARK    1  A    between atoms: C_1  and  C_2
REMARK    2  A    between atoms: C_2  and  N_3
REMARK    3  A    between atoms: N_3  and  C_4
REMARK    4  A    between atoms: C_5  and  O_7
REMARK    5  A    between atoms: O_7  and  C_8
REMARK    6  A    between atoms: C_8  and  C_9
REMARK    7  A    between atoms: N_13  and  C_14
REMARK                            x       y       z     vdW  Elec       q    Type
REMARK                         _______ _______ _______ _____ _____    ______ ____
ROOT
ATOM      1  C   UNL     1       4.108   3.932  19.238  0.00  0.00    +0.000 C 
ATOM      2  C   UNL     1       3.168   3.037  20.054  0.00  0.00    +0.000 C 
ATOM      3  C   UNL     1       1.728   3.523  19.948  0.00  0.00    +0.000 C 
ATOM      4  C   UNL     1       1.614   5.009  20.309  0.00  0.00    +0.000 C 
ATOM      5  N   UNL     1       2.511   5.844  19.486  0.00  0.00    +0.000 NA
ATOM      6  C   UNL     1       3.910   5.400  19.640  0.00  0.00    +0.000 C 
ENDROOT
BRANCH   5   7
ATOM      7  C   UNL     1       2.378   7.289  19.803  0.00  0.00    +0.000 C 
ATOM      8  C   UNL     1       2.024   8.167  18.565  0.00  0.00    +0.000 C 
ATOM      9  C   UNL     1       1.287   9.318  19.172  0.00  0.00    +0.000 A 
ATOM     10  C   UNL     1       0.942  10.511  18.565  0.00  0.00    +0.000 A 
ATOM     11  C   UNL     1       0.190  11.430  19.295  0.00  0.00    +0.000 A 
ATOM     12  C   UNL     1      -0.204  11.145  20.612  0.00  0.00    +0.000 A 
ATOM     13  C   UNL     1       0.140   9.932  21.210  0.00  0.00    +0.000 A 
ATOM     14  C   UNL     1       0.889   9.024  20.478  0.00  0.00    +0.000 A 
ATOM     15  C   UNL     1       1.304   7.640  20.873  0.00  0.00    +0.000 C 
ENDBRANCH   5   7
BRANCH   1  16
ATOM     16  C   UNL     1       3.921   3.740  17.722  0.00  0.00    +0.000 C 
BRANCH  16  17
ATOM     17  O   UNL     1       5.167   3.933  17.026  0.00  0.00    +0.000 OA
BRANCH  17  20
ATOM     18  N   UNL     1       6.762   5.560  17.189  0.00  0.00    +0.000 N 
ATOM     19  C   UNL     1       7.624   4.569  17.811  0.00  0.00    +0.000 C 
ATOM     20  C   UNL     1       5.485   5.229  16.776  0.00  0.00    +0.000 C 
ATOM     21  O   UNL     1       4.719   6.033  16.253  0.00  0.00    +0.000 OA
BRANCH  18  23
ATOM     22  C   UNL     1       8.010   7.450  18.239  0.00  0.00    +0.000 C 
ATOM     23  C   UNL     1       7.216   6.939  17.044  0.00  0.00    +0.000 C 
ENDBRANCH  18  23
ENDBRANCH  17  20
ENDBRANCH  16  17
ENDBRANCH   1  16
TORSDOF 5
ENDMDL
MODEL 9
REMARK VINA RESULT:      -7.1      3.289      4.666
REMARK  Name = 
REMARK  7 active torsions:
REMARK  status: ('A' for Active; 'I' for Inactive)
REMARK    1  A    between atoms: C_1  and  C_2
REMARK    2  A    between atoms: C_2  and  N_3
REMARK    3  A    between atoms: N_3  and  C_4
REMARK    4  A    between atoms: C_5  and  O_7
REMARK    5  A    between atoms: O_7  and  C_8
REMARK    6  A    between atoms: C_8  and  C_9
REMARK    7  A    between atoms: N_13  and  C_14
REMARK                            x       y       z     vdW  Elec       q    Type
REMARK                         _______ _______ _______ _____ _____    ______ ____
ROOT
ATOM      1  C   UNL     1       4.779   4.222  17.450  0.00  0.00    +0.000 C 
ATOM      2  C   UNL     1       3.734   3.136  17.730  0.00  0.00    +0.000 C 
ATOM      3  C   UNL     1       2.323   3.674  17.518  0.00  0.00    +0.000 C 
ATOM      4  C   UNL     1       2.091   4.959  18.321  0.00  0.00    +0.000 C 
ATOM      5  N   UNL     1       3.098   5.992  18.005  0.00  0.00    +0.000 NA
ATOM      6  C   UNL     1       4.457   5.480  18.268  0.00  0.00    +0.000 C 
ENDROOT
BRANCH   5   7
ATOM      7  C   UNL     1       2.857   7.254  18.750  0.00  0.00    +0.000 C 
ATOM      8  C   UNL     1       2.043   8.309  17.940  0.00  0.00    +0.000 C 
ATOM      9  C   UNL     1       1.354   9.093  19.009  0.00  0.00    +0.000 A 
ATOM     10  C   UNL     1       0.684  10.294  18.874  0.00  0.00    +0.000 A 
ATOM     11  C   UNL     1       0.048  10.826  19.995  0.00  0.00    +0.000 A 
ATOM     12  C   UNL     1       0.089  10.154  21.226  0.00  0.00    +0.000 A 
ATOM     13  C   UNL     1       0.758   8.935  21.348  0.00  0.00    +0.000 A 
ATOM     14  C   UNL     1       1.390   8.414  20.230  0.00  0.00    +0.000 A 
ATOM     15  C   UNL     1       2.093   7.098  20.097  0.00  0.00    +0.000 C 
ENDBRANCH   5   7
BRANCH   1  16
ATOM     16  C   UNL     1       4.890   4.547  15.949  0.00  0.00    +0.000 C 
BRANCH  16  17
ATOM     17  O   UNL     1       6.036   3.897  15.370  0.00  0.00    +0.000 OA
BRANCH  17  20
ATOM     18  N   UNL     1       7.166   4.608  13.516  0.00  0.00    +0.000 N 
ATOM     19  C   UNL     1       6.385   3.652  12.748  0.00  0.00    +0.000 C 
ATOM     20  C   UNL     1       6.981   4.740  14.879  0.00  0.00    +0.000 C 
ATOM     21  O   UNL     1       7.622   5.528  15.569  0.00  0.00    +0.000 OA
BRANCH  18  23
ATOM     22  C   UNL     1       7.728   6.088  11.585  0.00  0.00    +0.000 C 
ATOM     23  C   UNL     1       8.199   5.404  12.862  0.00  0.00    +0.000 C 
ENDBRANCH  18  23
ENDBRANCH  17  20
ENDBRANCH  16  17
ENDBRANCH   1  16
TORSDOF 5
ENDMDL
