MODEL 1
REMARK VINA RESULT:      -8.1      0.000      0.000
REMARK  Name = 
REMARK  5 active torsions:
REMARK  status: ('A' for Active; 'I' for Inactive)
REMARK    1  A    between atoms: C_1  and  C_2
REMARK    2  A    between atoms: C_5  and  C_6
REMARK    3  A    between atoms: N_11  and  C_12
REMARK    4  A    between atoms: C_12  and  C_13
REMARK    5  A    between atoms: C_25  and  N_26
REMARK                            x       y       z     vdW  Elec       q    Type
REMARK                         _______ _______ _______ _____ _____    ______ ____
ROOT
ATOM      1  C   UNL     1       2.305   8.073  18.112  0.00  0.00    +0.000 C 
ATOM      2  O   UNL     1       2.679   8.716  17.135  0.00  0.00    +0.000 OA
ATOM      3  N   UNL     1       1.364   8.548  19.031  0.00  0.00    +0.000 N 
ATOM      4  C   UNL     1       0.738   9.827  18.665  0.00  0.00    +0.000 C 
ATOM      5  C   UNL     1      -0.460  10.239  19.546  0.00  0.00    +0.000 C 
ATOM      6  N   UNL     1      -0.306  10.035  20.995  0.00  0.00    +0.000 NA
ATOM      7  C   UNL     1       0.196   8.684  21.257  0.00  0.00    +0.000 C 
ATOM      8  C   UNL     1       1.473   8.306  20.483  0.00  0.00    +0.000 C 
ENDROOT
BRANCH   1  13
ATOM      9  C   UNL     1       4.199   2.657  19.127  0.00  0.00    +0.000 C 
ATOM     10  C   UNL     1       3.787   4.056  18.754  0.00  0.00    +0.000 A 
ATOM     11  C   UNL     1       2.422   4.299  18.508  0.00  0.00    +0.000 A 
ATOM     12  C   UNL     1       1.947   5.591  18.249  0.00  0.00    +0.000 A 
ATOM     13  C   UNL     1       2.831   6.675  18.255  0.00  0.00    +0.000 A 
ATOM     14  C   UNL     1       4.181   6.452  18.515  0.00  0.00    +0.000 A 
ATOM     15  C   UNL     1       4.676   5.151  18.696  0.00  0.00    +0.000 A 
BRANCH  15  16
ATOM     16  N   UNL     1       6.144   5.014  18.795  0.00  0.00    +0.000 N 
ATOM     17  O   UNL     1       6.698   5.239  19.872  0.00  0.00    +0.000 OA
ATOM     18  O   UNL     1       6.750   4.635  17.775  0.00  0.00    +0.000 OA
ENDBRANCH  15  16
ENDBRANCH   1  13
BRANCH   6  19
ATOM     19  C   UNL     1       0.396  11.107  21.718  0.00  0.00    +0.000 C 
BRANCH  19  20
ATOM     20  C   UNL     1      -0.607  12.064  22.347  0.00  0.00    +0.000 A 
ATOM     21  C   UNL     1      -0.583  13.461  22.119  0.00  0.00    +0.000 A 
ATOM     22  C   UNL     1      -1.665  14.268  22.512  0.00  0.00    +0.000 A 
ATOM     23  C   UNL     1      -2.747  13.642  23.095  0.00  0.00    +0.000 A 
ATOM     24  C   UNL     1      -2.721  12.305  23.413  0.00  0.00    +0.000 A 
ATOM     25  C   UNL     1      -1.653  11.505  23.102  0.00  0.00    +0.000 A 
ATOM     26  O   UNL     1      -3.901  11.870  23.934  0.00  0.00    +0.000 OA
ATOM     27  C   UNL     1      -4.733  12.979  23.550  0.00  0.00    +0.000 C 
ATOM     28  O   UNL     1      -3.970  14.190  23.347  0.00  0.00    +0.000 OA
ENDBRANCH  19  20
ENDBRANCH   6  19
TORSDOF 4
ENDMDL
MODEL 2
REMARK VINA RESULT:      -8.0      1.922      2.128
REMARK  Name = 
REMARK  5 active torsions:
REMARK  status: ('A' for Active; 'I' for Inactive)
REMARK    1  A    between atoms: C_1  and  C_2
REMARK    2  A    between atoms: C_5  and  C_6
REMARK    3  A    between atoms: N_11  and  C_12
REMARK    4  A    between atoms: C_12  and  C_13
REMARK    5  A    between atoms: C_25  and  N_26
REMARK                            x       y       z     vdW  Elec       q    Type
REMARK                         _______ _______ _______ _____ _____    ______ ____
ROOT
ATOM      1  C   UNL     1       2.015   8.863  18.064  0.00  0.00    +0.000 C 
ATOM      2  O   UNL     1       2.315   9.636  17.159  0.00  0.00    +0.000 OA
ATOM      3  N   UNL     1       1.082   9.169  19.060  0.00  0.00    +0.000 N 
ATOM      4  C   UNL     1       0.369  10.440  18.864  0.00  0.00    +0.000 C 
ATOM      5  C   UNL     1      -0.818  10.673  19.821  0.00  0.00    +0.000 C 
ATOM      6  N   UNL     1      -0.600  10.313  21.232  0.00  0.00    +0.000 NA
ATOM      7  C   UNL     1      -0.011   8.975  21.320  0.00  0.00    +0.000 C 
ATOM      8  C   UNL     1       1.257   8.769  20.470  0.00  0.00    +0.000 C 
ENDROOT
BRANCH   1  13
ATOM      9  C   UNL     1       4.320   3.547  17.442  0.00  0.00    +0.000 C 
ATOM     10  C   UNL     1       3.714   4.893  17.734  0.00  0.00    +0.000 A 
ATOM     11  C   UNL     1       4.474   6.039  17.432  0.00  0.00    +0.000 A 
ATOM     12  C   UNL     1       3.945   7.327  17.587  0.00  0.00    +0.000 A 
ATOM     13  C   UNL     1       2.627   7.493  18.027  0.00  0.00    +0.000 A 
ATOM     14  C   UNL     1       1.857   6.368  18.311  0.00  0.00    +0.000 A 
ATOM     15  C   UNL     1       2.407   5.079  18.235  0.00  0.00    +0.000 A 
BRANCH  15  16
ATOM     16  N   UNL     1       1.557   3.971  18.722  0.00  0.00    +0.000 N 
ATOM     17  O   UNL     1       1.400   3.823  19.934  0.00  0.00    +0.000 OA
ATOM     18  O   UNL     1       1.008   3.257  17.863  0.00  0.00    +0.000 OA
ENDBRANCH  15  16
ENDBRANCH   1  13
BRANCH   6  19
ATOM     19  C   UNL     1       0.064  11.337  22.054  0.00  0.00    +0.000 C 
BRANCH  19  20
ATOM     20  C   UNL     1      -0.972  12.230  22.724  0.00  0.00    +0.000 A 
ATOM     21  C   UNL     1      -0.890  13.643  22.716  0.00  0.00    +0.000 A 
ATOM     22  C   UNL     1      -1.984  14.425  23.123  0.00  0.00    +0.000 A 
ATOM     23  C   UNL     1      -3.135  13.763  23.498  0.00  0.00    +0.000 A 
ATOM     24  C   UNL     1      -3.176  12.394  23.608  0.00  0.00    +0.000 A 
ATOM     25  C   UNL     1      -2.103  11.607  23.281  0.00  0.00    +0.000 A 
ATOM     26  O   UNL     1      -4.413  11.934  23.942  0.00  0.00    +0.000 OA
ATOM     27  C   UNL     1      -5.173  13.121  23.655  0.00  0.00    +0.000 C 
ATOM     28  O   UNL     1      -4.362  14.317  23.714  0.00  0.00    +0.000 OA
ENDBRANCH  19  20
ENDBRANCH   6  19
TORSDOF 4
ENDMDL
MODEL 3
REMARK VINA RESULT:      -8.0      2.064      2.325
REMARK  Name = 
REMARK  5 active torsions:
REMARK  status: ('A' for Active; 'I' for Inactive)
REMARK    1  A    between atoms: C_1  and  C_2
REMARK    2  A    between atoms: C_5  and  C_6
REMARK    3  A    between atoms: N_11  and  C_12
REMARK    4  A    between atoms: C_12  and  C_13
REMARK    5  A    between atoms: C_25  and  N_26
REMARK                            x       y       z     vdW  Elec       q    Type
REMARK                         _______ _______ _______ _____ _____    ______ ____
ROOT
ATOM      1  C   UNL     1       2.527   7.630  18.624  0.00  0.00    +0.000 C 
ATOM      2  O   UNL     1       3.054   8.124  17.631  0.00  0.00    +0.000 OA
ATOM      3  N   UNL     1       1.521   8.267  19.358  0.00  0.00    +0.000 N 
ATOM      4  C   UNL     1       1.029   9.521  18.767  0.00  0.00    +0.000 C 
ATOM      5  C   UNL     1      -0.232  10.104  19.439  0.00  0.00    +0.000 C 
ATOM      6  N   UNL     1      -0.260  10.077  20.910  0.00  0.00    +0.000 NA
ATOM      7  C   UNL     1       0.115   8.745  21.391  0.00  0.00    +0.000 C 
ATOM      8  C   UNL     1       1.444   8.205  20.830  0.00  0.00    +0.000 C 
ENDROOT
BRANCH   1  13
ATOM      9  C   UNL     1       4.207   2.136  19.600  0.00  0.00    +0.000 C 
ATOM     10  C   UNL     1       3.717   3.554  19.471  0.00  0.00    +0.000 A 
ATOM     11  C   UNL     1       4.675   4.568  19.276  0.00  0.00    +0.000 A 
ATOM     12  C   UNL     1       4.294   5.898  19.053  0.00  0.00    +0.000 A 
ATOM     13  C   UNL     1       2.937   6.235  18.996  0.00  0.00    +0.000 A 
ATOM     14  C   UNL     1       1.979   5.240  19.168  0.00  0.00    +0.000 A 
ATOM     15  C   UNL     1       2.354   3.922  19.471  0.00  0.00    +0.000 A 
BRANCH  15  16
ATOM     16  N   UNL     1       1.259   2.986  19.802  0.00  0.00    +0.000 N 
ATOM     17  O   UNL     1       0.651   2.427  18.889  0.00  0.00    +0.000 OA
ATOM     18  O   UNL     1       1.031   2.781  21.009  0.00  0.00    +0.000 OA
ENDBRANCH  15  16
ENDBRANCH   1  13
BRANCH   6  19
ATOM     19  C   UNL     1       0.425  11.193  21.580  0.00  0.00    +0.000 C 
BRANCH  19  20
ATOM     20  C   UNL     1      -0.593  12.140  22.202  0.00  0.00    +0.000 A 
ATOM     21  C   UNL     1      -0.637  13.523  21.904  0.00  0.00    +0.000 A 
ATOM     22  C   UNL     1      -1.736  14.305  22.300  0.00  0.00    +0.000 A 
ATOM     23  C   UNL     1      -2.767  13.667  22.956  0.00  0.00    +0.000 A 
ATOM     24  C   UNL     1      -2.673  12.350  23.339  0.00  0.00    +0.000 A 
ATOM     25  C   UNL     1      -1.585  11.579  23.025  0.00  0.00    +0.000 A 
ATOM     26  O   UNL     1      -3.812  11.895  23.927  0.00  0.00    +0.000 OA
ATOM     27  C   UNL     1      -4.704  12.949  23.523  0.00  0.00    +0.000 C 
ATOM     28  O   UNL     1      -4.001  14.178  23.230  0.00  0.00    +0.000 OA
ENDBRANCH  19  20
ENDBRANCH   6  19
TORSDOF 4
ENDMDL
MODEL 4
REMARK VINA RESULT:      -7.6      0.938      1.638
REMARK  Name = 
REMARK  5 active torsions:
REMARK  status: ('A' for Active; 'I' for Inactive)
REMARK    1  A    between atoms: C_1  and  C_2
REMARK    2  A    between atoms: C_5  and  C_6
REMARK    3  A    between atoms: N_11  and  C_12
REMARK    4  A    between atoms: C_12  and  C_13
REMARK    5  A    between atoms: C_25  and  N_26
REMARK                            x       y       z     vdW  Elec       q    Type
REMARK                         _______ _______ _______ _____ _____    ______ ____
ROOT
ATOM      1  C   UNL     1       2.377   7.948  18.197  0.00  0.00    +0.000 C 
ATOM      2  O   UNL     1       2.769   8.541  17.195  0.00  0.00    +0.000 OA
ATOM      3  N   UNL     1       1.394   8.453  19.054  0.00  0.00    +0.000 N 
ATOM      4  C   UNL     1       0.751   9.692  18.590  0.00  0.00    +0.000 C 
ATOM      5  C   UNL     1      -0.486  10.125  19.404  0.00  0.00    +0.000 C 
ATOM      6  N   UNL     1      -0.377  10.013  20.867  0.00  0.00    +0.000 NA
ATOM      7  C   UNL     1       0.147   8.694  21.228  0.00  0.00    +0.000 C 
ATOM      8  C   UNL     1       1.458   8.303  20.521  0.00  0.00    +0.000 C 
ENDROOT
BRANCH   1  13
ATOM      9  C   UNL     1       4.420   2.679  19.618  0.00  0.00    +0.000 C 
ATOM     10  C   UNL     1       3.959   4.029  19.134  0.00  0.00    +0.000 A 
ATOM     11  C   UNL     1       2.575   4.240  18.989  0.00  0.00    +0.000 A 
ATOM     12  C   UNL     1       2.062   5.495  18.635  0.00  0.00    +0.000 A 
ATOM     13  C   UNL     1       2.931   6.575  18.442  0.00  0.00    +0.000 A 
ATOM     14  C   UNL     1       4.301   6.385  18.601  0.00  0.00    +0.000 A 
ATOM     15  C   UNL     1       4.826   5.113  18.876  0.00  0.00    +0.000 A 
BRANCH  15  16
ATOM     16  N   UNL     1       6.299   4.990  18.855  0.00  0.00    +0.000 N 
ATOM     17  O   UNL     1       6.862   4.701  17.799  0.00  0.00    +0.000 OA
ATOM     18  O   UNL     1       6.904   5.226  19.918  0.00  0.00    +0.000 OA
ENDBRANCH  15  16
ENDBRANCH   1  13
BRANCH   6  19
ATOM     19  C   UNL     1       0.275  11.145  21.546  0.00  0.00    +0.000 C 
BRANCH  19  20
ATOM     20  C   UNL     1      -0.770  12.040  22.199  0.00  0.00    +0.000 A 
ATOM     21  C   UNL     1      -2.019  11.556  22.656  0.00  0.00    +0.000 A 
ATOM     22  C   UNL     1      -2.840  12.356  23.470  0.00  0.00    +0.000 A 
ATOM     23  C   UNL     1      -2.368  13.603  23.821  0.00  0.00    +0.000 A 
ATOM     24  C   UNL     1      -1.207  14.111  23.288  0.00  0.00    +0.000 A 
ATOM     25  C   UNL     1      -0.417  13.380  22.439  0.00  0.00    +0.000 A 
ATOM     26  O   UNL     1      -0.889  15.332  23.798  0.00  0.00    +0.000 OA
ATOM     27  C   UNL     1      -1.763  15.326  24.941  0.00  0.00    +0.000 C 
ATOM     28  O   UNL     1      -2.891  14.439  24.762  0.00  0.00    +0.000 OA
ENDBRANCH  19  20
ENDBRANCH   6  19
TORSDOF 4
ENDMDL
MODEL 5
REMARK VINA RESULT:      -7.6      1.364      1.491
REMARK  Name = 
REMARK  5 active torsions:
REMARK  status: ('A' for Active; 'I' for Inactive)
REMARK    1  A    between atoms: C_1  and  C_2
REMARK    2  A    between atoms: C_5  and  C_6
REMARK    3  A    between atoms: N_11  and  C_12
REMARK    4  A    between atoms: C_12  and  C_13
REMARK    5  A    between atoms: C_25  and  N_26
REMARK                            x       y       z     vdW  Elec       q    Type
REMARK                         _______ _______ _______ _____ _____    ______ ____
ROOT
ATOM      1  C   UNL     1       1.926   8.956  18.291  0.00  0.00    +0.000 C 
ATOM      2  O   UNL     1       2.151   9.622  17.285  0.00  0.00    +0.000 OA
ATOM      3  N   UNL     1       0.994   9.326  19.266  0.00  0.00    +0.000 N 
ATOM      4  C   UNL     1       0.188  10.509  18.928  0.00  0.00    +0.000 C 
ATOM      5  C   UNL     1      -0.993  10.784  19.882  0.00  0.00    +0.000 C 
ATOM      6  N   UNL     1      -0.721  10.629  21.320  0.00  0.00    +0.000 NA
ATOM      7  C   UNL     1      -0.036   9.358  21.563  0.00  0.00    +0.000 C 
ATOM      8  C   UNL     1       1.226   9.129  20.710  0.00  0.00    +0.000 C 
ENDROOT
BRANCH   1  13
ATOM      9  C   UNL     1       4.956   4.046  19.105  0.00  0.00    +0.000 C 
ATOM     10  C   UNL     1       4.128   5.260  18.779  0.00  0.00    +0.000 A 
ATOM     11  C   UNL     1       3.116   5.631  19.685  0.00  0.00    +0.000 A 
ATOM     12  C   UNL     1       2.366   6.800  19.502  0.00  0.00    +0.000 A 
ATOM     13  C   UNL     1       2.634   7.639  18.414  0.00  0.00    +0.000 A 
ATOM     14  C   UNL     1       3.646   7.295  17.521  0.00  0.00    +0.000 A 
ATOM     15  C   UNL     1       4.345   6.086  17.654  0.00  0.00    +0.000 A 
BRANCH  15  16
ATOM     16  N   UNL     1       5.276   5.740  16.559  0.00  0.00    +0.000 N 
ATOM     17  O   UNL     1       5.027   4.769  15.843  0.00  0.00    +0.000 OA
ATOM     18  O   UNL     1       6.260   6.484  16.393  0.00  0.00    +0.000 OA
ENDBRANCH  15  16
ENDBRANCH   1  13
BRANCH   6  19
ATOM     19  C   UNL     1      -0.115  11.796  21.982  0.00  0.00    +0.000 C 
BRANCH  19  20
ATOM     20  C   UNL     1      -1.158  12.531  22.813  0.00  0.00    +0.000 A 
ATOM     21  C   UNL     1      -1.090  13.920  23.078  0.00  0.00    +0.000 A 
ATOM     22  C   UNL     1      -2.191  14.597  23.630  0.00  0.00    +0.000 A 
ATOM     23  C   UNL     1      -3.333  13.864  23.872  0.00  0.00    +0.000 A 
ATOM     24  C   UNL     1      -3.360  12.498  23.716  0.00  0.00    +0.000 A 
ATOM     25  C   UNL     1      -2.280  11.800  23.242  0.00  0.00    +0.000 A 
ATOM     26  O   UNL     1      -4.591  11.970  23.956  0.00  0.00    +0.000 OA
ATOM     27  C   UNL     1      -5.364  13.182  23.905  0.00  0.00    +0.000 C 
ATOM     28  O   UNL     1      -4.565  14.352  24.192  0.00  0.00    +0.000 OA
ENDBRANCH  19  20
ENDBRANCH   6  19
TORSDOF 4
ENDMDL
MODEL 6
REMARK VINA RESULT:      -7.6      2.332      2.863
REMARK  Name = 
REMARK  5 active torsions:
REMARK  status: ('A' for Active; 'I' for Inactive)
REMARK    1  A    between atoms: C_1  and  C_2
REMARK    2  A    between atoms: C_5  and  C_6
REMARK    3  A    between atoms: N_11  and  C_12
REMARK    4  A    between atoms: C_12  and  C_13
REMARK    5  A    between atoms: C_25  and  N_26
REMARK                            x       y       z     vdW  Elec       q    Type
REMARK                         _______ _______ _______ _____ _____    ______ ____
ROOT
ATOM      1  C   UNL     1       2.900   7.385  18.299  0.00  0.00    +0.000 C 
ATOM      2  O   UNL     1       3.493   7.778  17.299  0.00  0.00    +0.000 OA
ATOM      3  N   UNL     1       1.892   8.118  18.934  0.00  0.00    +0.000 N 
ATOM      4  C   UNL     1       1.485   9.342  18.228  0.00  0.00    +0.000 C 
ATOM      5  C   UNL     1       0.223  10.028  18.792  0.00  0.00    +0.000 C 
ATOM      6  N   UNL     1       0.127  10.115  20.258  0.00  0.00    +0.000 NA
ATOM      7  C   UNL     1       0.420   8.810  20.855  0.00  0.00    +0.000 C 
ATOM      8  C   UNL     1       1.746   8.173  20.401  0.00  0.00    +0.000 C 
ENDROOT
BRANCH   1  13
ATOM      9  C   UNL     1       4.282   1.917  19.764  0.00  0.00    +0.000 C 
ATOM     10  C   UNL     1       3.864   3.340  19.506  0.00  0.00    +0.000 A 
ATOM     11  C   UNL     1       4.875   4.294  19.281  0.00  0.00    +0.000 A 
ATOM     12  C   UNL     1       4.565   5.617  18.941  0.00  0.00    +0.000 A 
ATOM     13  C   UNL     1       3.229   6.007  18.794  0.00  0.00    +0.000 A 
ATOM     14  C   UNL     1       2.220   5.069  18.995  0.00  0.00    +0.000 A 
ATOM     15  C   UNL     1       2.520   3.764  19.414  0.00  0.00    +0.000 A 
BRANCH  15  16
ATOM     16  N   UNL     1       1.370   2.903  19.762  0.00  0.00    +0.000 N 
ATOM     17  O   UNL     1       1.028   2.805  20.941  0.00  0.00    +0.000 OA
ATOM     18  O   UNL     1       0.775   2.343  18.823  0.00  0.00    +0.000 OA
ENDBRANCH  15  16
ENDBRANCH   1  13
BRANCH   6  19
ATOM     19  C   UNL     1       0.832  11.250  20.875  0.00  0.00    +0.000 C 
BRANCH  19  20
ATOM     20  C   UNL     1      -0.147  12.118  21.655  0.00  0.00    +0.000 A 
ATOM     21  C   UNL     1      -1.229  11.582  22.394  0.00  0.00    +0.000 A 
ATOM     22  C   UNL     1      -1.949  12.387  23.293  0.00  0.00    +0.000 A 
ATOM     23  C   UNL     1      -1.542  13.696  23.440  0.00  0.00    +0.000 A 
ATOM     24  C   UNL     1      -0.564  14.242  22.643  0.00  0.00    +0.000 A 
ATOM     25  C   UNL     1       0.112  13.499  21.712  0.00  0.00    +0.000 A 
ATOM     26  O   UNL     1      -0.274  15.529  22.980  0.00  0.00    +0.000 OA
ATOM     27  C   UNL     1      -0.903  15.564  24.273  0.00  0.00    +0.000 C 
ATOM     28  O   UNL     1      -1.951  14.576  24.399  0.00  0.00    +0.000 OA
ENDBRANCH  19  20
ENDBRANCH   6  19
TORSDOF 4
ENDMDL
MODEL 7
REMARK VINA RESULT:      -7.5      0.836      1.023
REMARK  Name = 
REMARK  5 active torsions:
REMARK  status: ('A' for Active; 'I' for Inactive)
REMARK    1  A    between atoms: C_1  and  C_2
REMARK    2  A    between atoms: C_5  and  C_6
REMARK    3  A    between atoms: N_11  and  C_12
REMARK    4  A    between atoms: C_12  and  C_13
REMARK    5  A    between atoms: C_25  and  N_26
REMARK                            x       y       z     vdW  Elec       q    Type
REMARK                         _______ _______ _______ _____ _____    ______ ____
ROOT
ATOM      1  C   UNL     1       2.321   7.946  18.790  0.00  0.00    +0.000 C 
ATOM      2  O   UNL     1       2.870   8.532  17.861  0.00  0.00    +0.000 OA
ATOM      3  N   UNL     1       1.298   8.509  19.558  0.00  0.00    +0.000 N 
ATOM      4  C   UNL     1       0.819   9.815  19.080  0.00  0.00    +0.000 C 
ATOM      5  C   UNL     1      -0.458  10.332  19.776  0.00  0.00    +0.000 C 
ATOM      6  N   UNL     1      -0.520  10.163  21.237  0.00  0.00    +0.000 NA
ATOM      7  C   UNL     1      -0.154   8.792  21.596  0.00  0.00    +0.000 C 
ATOM      8  C   UNL     1       1.188   8.307  21.016  0.00  0.00    +0.000 C 
ENDROOT
BRANCH   1  13
ATOM      9  C   UNL     1       4.083   2.563  20.160  0.00  0.00    +0.000 C 
ATOM     10  C   UNL     1       3.612   3.909  19.680  0.00  0.00    +0.000 A 
ATOM     11  C   UNL     1       2.447   4.447  20.260  0.00  0.00    +0.000 A 
ATOM     12  C   UNL     1       1.998   5.733  19.935  0.00  0.00    +0.000 A 
ATOM     13  C   UNL     1       2.725   6.521  19.035  0.00  0.00    +0.000 A 
ATOM     14  C   UNL     1       3.890   6.010  18.469  0.00  0.00    +0.000 A 
ATOM     15  C   UNL     1       4.300   4.693  18.728  0.00  0.00    +0.000 A 
BRANCH  15  16
ATOM     16  N   UNL     1       5.452   4.197  17.945  0.00  0.00    +0.000 N 
ATOM     17  O   UNL     1       5.257   3.731  16.821  0.00  0.00    +0.000 OA
ATOM     18  O   UNL     1       6.580   4.311  18.458  0.00  0.00    +0.000 OA
ENDBRANCH  15  16
ENDBRANCH   1  13
BRANCH   6  19
ATOM     19  C   UNL     1       0.149  11.210  22.027  0.00  0.00    +0.000 C 
BRANCH  19  20
ATOM     20  C   UNL     1      -0.882  12.148  22.640  0.00  0.00    +0.000 A 
ATOM     21  C   UNL     1      -0.813  13.556  22.510  0.00  0.00    +0.000 A 
ATOM     22  C   UNL     1      -1.906  14.361  22.871  0.00  0.00    +0.000 A 
ATOM     23  C   UNL     1      -3.043  13.725  23.324  0.00  0.00    +0.000 A 
ATOM     24  C   UNL     1      -3.069  12.370  23.552  0.00  0.00    +0.000 A 
ATOM     25  C   UNL     1      -1.996  11.566  23.271  0.00  0.00    +0.000 A 
ATOM     26  O   UNL     1      -4.295  11.931  23.948  0.00  0.00    +0.000 OA
ATOM     27  C   UNL     1      -5.071  13.084  23.577  0.00  0.00    +0.000 C 
ATOM     28  O   UNL     1      -4.271  14.286  23.518  0.00  0.00    +0.000 OA
ENDBRANCH  19  20
ENDBRANCH   6  19
TORSDOF 4
ENDMDL
MODEL 8
REMARK VINA RESULT:      -7.5      2.144      2.607
REMARK  Name = 
REMARK  5 active torsions:
REMARK  status: ('A' for Active; 'I' for Inactive)
REMARK    1  A    between atoms: C_1  and  C_2
REMARK    2  A    between atoms: C_5  and  C_6
REMARK    3  A    between atoms: N_11  and  C_12
REMARK    4  A    between atoms: C_12  and  C_13
REMARK    5  A    between atoms: C_25  and  N_26
REMARK                            x       y       z     vdW  Elec       q    Type
REMARK                         _______ _______ _______ _____ _____    ______ ____
ROOT
ATOM      1  C   UNL     1       2.158   8.391  18.054  0.00  0.00    +0.000 C 
ATOM      2  O   UNL     1       2.531   9.042  17.083  0.00  0.00    +0.000 OA
ATOM      3  N   UNL     1       1.205   8.850  18.969  0.00  0.00    +0.000 N 
ATOM      4  C   UNL     1       0.565  10.122  18.602  0.00  0.00    +0.000 C 
ATOM      5  C   UNL     1      -0.645  10.515  19.475  0.00  0.00    +0.000 C 
ATOM      6  N   UNL     1      -0.499  10.308  20.925  0.00  0.00    +0.000 NA
ATOM      7  C   UNL     1       0.019   8.963  21.186  0.00  0.00    +0.000 C 
ATOM      8  C   UNL     1       1.306   8.605  20.420  0.00  0.00    +0.000 C 
ENDROOT
BRANCH   1  13
ATOM      9  C   UNL     1       4.247   2.951  18.124  0.00  0.00    +0.000 C 
ATOM     10  C   UNL     1       3.682   4.342  18.238  0.00  0.00    +0.000 A 
ATOM     11  C   UNL     1       4.525   5.424  17.921  0.00  0.00    +0.000 A 
ATOM     12  C   UNL     1       4.047   6.742  17.911  0.00  0.00    +0.000 A 
ATOM     13  C   UNL     1       2.702   6.999  18.197  0.00  0.00    +0.000 A 
ATOM     14  C   UNL     1       1.853   5.936  18.493  0.00  0.00    +0.000 A 
ATOM     15  C   UNL     1       2.343   4.625  18.584  0.00  0.00    +0.000 A 
BRANCH  15  16
ATOM     16  N   UNL     1       1.395   3.600  19.071  0.00  0.00    +0.000 N 
ATOM     17  O   UNL     1       1.219   3.473  20.283  0.00  0.00    +0.000 OA
ATOM     18  O   UNL     1       0.787   2.934  18.213  0.00  0.00    +0.000 OA
ENDBRANCH  15  16
ENDBRANCH   1  13
BRANCH   6  19
ATOM     19  C   UNL     1       0.184  11.387  21.656  0.00  0.00    +0.000 C 
BRANCH  19  20
ATOM     20  C   UNL     1      -0.836  12.290  22.338  0.00  0.00    +0.000 A 
ATOM     21  C   UNL     1      -2.136  11.853  22.689  0.00  0.00    +0.000 A 
ATOM     22  C   UNL     1      -2.948  12.631  23.532  0.00  0.00    +0.000 A 
ATOM     23  C   UNL     1      -2.418  13.807  24.017  0.00  0.00    +0.000 A 
ATOM     24  C   UNL     1      -1.201  14.281  23.589  0.00  0.00    +0.000 A 
ATOM     25  C   UNL     1      -0.414  13.577  22.716  0.00  0.00    +0.000 A 
ATOM     26  O   UNL     1      -0.835  15.428  24.223  0.00  0.00    +0.000 OA
ATOM     27  C   UNL     1      -1.768  15.382  25.317  0.00  0.00    +0.000 C 
ATOM     28  O   UNL     1      -2.938  14.592  25.004  0.00  0.00    +0.000 OA
ENDBRANCH  19  20
ENDBRANCH   6  19
TORSDOF 4
ENDMDL
MODEL 9
REMARK VINA RESULT:      -7.5      3.315      9.916
REMARK  Name = 
REMARK  5 active torsions:
REMARK  status: ('A' for Active; 'I' for Inactive)
REMARK    1  A    between atoms: C_1  and  C_2
REMARK    2  A    between atoms: C_5  and  C_6
REMARK    3  A    between atoms: N_11  and  C_12
REMARK    4  A    between atoms: C_12  and  C_13
REMARK    5  A    between atoms: C_25  and  N_26
REMARK                            x       y       z     vdW  Elec       q    Type
REMARK                         _______ _______ _______ _____ _____    ______ ____
ROOT
ATOM      1  C   UNL     1       1.125   8.714  20.899  0.00  0.00    +0.000 C 
ATOM      2  O   UNL     1       1.031   8.691  22.122  0.00  0.00    +0.000 OA
ATOM      3  N   UNL     1       1.520   7.609  20.137  0.00  0.00    +0.000 N 
ATOM      4  C   UNL     1       1.676   6.361  20.900  0.00  0.00    +0.000 C 
ATOM      5  C   UNL     1       1.880   5.096  20.040  0.00  0.00    +0.000 C 
ATOM      6  N   UNL     1       2.798   5.225  18.896  0.00  0.00    +0.000 NA
ATOM      7  C   UNL     1       2.471   6.428  18.127  0.00  0.00    +0.000 C 
ATOM      8  C   UNL     1       2.395   7.724  18.954  0.00  0.00    +0.000 C 
ENDROOT
BRANCH   1  13
ATOM      9  C   UNL     1      -0.660  13.771  18.620  0.00  0.00    +0.000 C 
ATOM     10  C   UNL     1      -0.195  12.416  19.083  0.00  0.00    +0.000 A 
ATOM     11  C   UNL     1       1.031  12.338  19.771  0.00  0.00    +0.000 A 
ATOM     12  C   UNL     1       1.486  11.130  20.315  0.00  0.00    +0.000 A 
ATOM     13  C   UNL     1       0.705   9.975  20.201  0.00  0.00    +0.000 A 
ATOM     14  C   UNL     1      -0.519  10.041  19.540  0.00  0.00    +0.000 A 
ATOM     15  C   UNL     1      -0.942  11.229  18.924  0.00  0.00    +0.000 A 
BRANCH  15  16
ATOM     16  N   UNL     1      -2.171  11.144  18.106  0.00  0.00    +0.000 N 
ATOM     17  O   UNL     1      -3.241  11.515  18.590  0.00  0.00    +0.000 OA
ATOM     18  O   UNL     1      -2.049  10.728  16.939  0.00  0.00    +0.000 OA
ENDBRANCH  15  16
ENDBRANCH   1  13
BRANCH   6  19
ATOM     19  C   UNL     1       4.227   5.058  19.205  0.00  0.00    +0.000 C 
BRANCH  19  20
ATOM     20  C   UNL     1       5.074   5.391  17.984  0.00  0.00    +0.000 A 
ATOM     21  C   UNL     1       6.298   6.096  18.068  0.00  0.00    +0.000 A 
ATOM     22  C   UNL     1       7.162   6.162  16.960  0.00  0.00    +0.000 A 
ATOM     23  C   UNL     1       6.780   5.495  15.816  0.00  0.00    +0.000 A 
ATOM     24  C   UNL     1       5.544   4.905  15.703  0.00  0.00    +0.000 A 
ATOM     25  C   UNL     1       4.653   4.881  16.743  0.00  0.00    +0.000 A 
ATOM     26  O   UNL     1       5.381   4.258  14.517  0.00  0.00    +0.000 OA
ATOM     27  C   UNL     1       6.758   4.209  14.103  0.00  0.00    +0.000 C 
ATOM     28  O   UNL     1       7.552   5.249  14.718  0.00  0.00    +0.000 OA
ENDBRANCH  19  20
ENDBRANCH   6  19
TORSDOF 4
ENDMDL
