MODEL 1
REMARK VINA RESULT:      -7.8      0.000      0.000
REMARK  Name = 
REMARK  7 active torsions:
REMARK  status: ('A' for Active; 'I' for Inactive)
REMARK    1  A    between atoms: C_2  and  C_3
REMARK    2  A    between atoms: C_3  and  C_20
REMARK    3  A    between atoms: C_4  and  C_5
REMARK    4  A    between atoms: C_8  and  O_9
REMARK    5  A    between atoms: O_9  and  C_10
REMARK    6  A    between atoms: C_10  and  C_11
REMARK    7  A    between atoms: C_11  and  N_12
REMARK                            x       y       z     vdW  Elec       q    Type
REMARK                         _______ _______ _______ _____ _____    ______ ____
ROOT
ATOM      1  C   UNL     1       0.733  10.248  18.250  0.00  0.00    +0.000 A 
ATOM      2  C   UNL     1       1.182  11.386  18.962  0.00  0.00    +0.000 A 
ATOM      3  C   UNL     1       0.289  12.324  19.494  0.00  0.00    +0.000 A 
ATOM      4  C   UNL     1      -1.099  12.174  19.337  0.00  0.00    +0.000 A 
ATOM      5  C   UNL     1      -1.561  11.085  18.577  0.00  0.00    +0.000 A 
ATOM      6  C   UNL     1      -0.658  10.143  18.036  0.00  0.00    +0.000 A 
ENDROOT
BRANCH   1   8
ATOM      7  C   UNL     1       2.143   8.095  18.489  0.00  0.00    +0.000 C 
ATOM      8  C   UNL     1       1.644   9.127  17.740  0.00  0.00    +0.000 C 
BRANCH   7   9
ATOM      9  C   UNL     1       2.943   6.904  18.007  0.00  0.00    +0.000 A 
ATOM     10  N   UNL     1       4.187   7.132  17.507  0.00  0.00    +0.000 NA
ATOM     11  O   UNL     1       4.758   5.999  17.218  0.00  0.00    +0.000 OA
ATOM     12  C   UNL     1       3.961   5.017  17.503  0.00  0.00    +0.000 A 
ATOM     13  C   UNL     1       4.252   3.666  17.366  0.00  0.00    +0.000 A 
ATOM     14  C   UNL     1       3.270   2.748  17.748  0.00  0.00    +0.000 A 
ATOM     15  C   UNL     1       2.028   3.205  18.243  0.00  0.00    +0.000 A 
ATOM     16 CL   UNL     1       0.827   2.010  18.704  0.00  0.00    +0.000 Cl
ATOM     17  C   UNL     1       1.759   4.598  18.377  0.00  0.00    +0.000 A 
ATOM     18  C   UNL     1       2.768   5.501  17.999  0.00  0.00    +0.000 A 
ENDBRANCH   7   9
BRANCH   7  20
ATOM     19  N   UNL     1       1.539   7.925  21.020  0.00  0.00    +0.000 NA
ATOM     20  C   UNL     1       1.804   7.979  19.894  0.00  0.00    +0.000 C 
ENDBRANCH   7  20
ENDBRANCH   1   8
BRANCH   4  21
ATOM     21  O   UNL     1      -1.996  13.039  19.913  0.00  0.00    +0.000 OA
BRANCH  21  22
ATOM     22  C   UNL     1      -1.946  13.448  21.243  0.00  0.00    +0.000 C 
BRANCH  22  23
ATOM     23  C   UNL     1      -2.196  12.299  22.250  0.00  0.00    +0.000 C 
BRANCH  23  24
ATOM     24  N   UNL     1      -3.593  12.197  22.747  0.00  0.00    +0.000 NA
ATOM     25  C   UNL     1      -3.710  12.551  24.184  0.00  0.00    +0.000 C 
ATOM     26  C   UNL     1      -5.158  12.389  24.661  0.00  0.00    +0.000 C 
ATOM     27  C   UNL     1      -6.082  13.295  23.848  0.00  0.00    +0.000 C 
ATOM     28  C   UNL     1      -5.930  12.966  22.363  0.00  0.00    +0.000 C 
ATOM     29  C   UNL     1      -4.459  13.101  21.945  0.00  0.00    +0.000 C 
ENDBRANCH  23  24
ENDBRANCH  22  23
ENDBRANCH  21  22
ENDBRANCH   4  21
TORSDOF 7
ENDMDL
MODEL 2
REMARK VINA RESULT:      -7.7      3.679     10.344
REMARK  Name = 
REMARK  7 active torsions:
REMARK  status: ('A' for Active; 'I' for Inactive)
REMARK    1  A    between atoms: C_2  and  C_3
REMARK    2  A    between atoms: C_3  and  C_20
REMARK    3  A    between atoms: C_4  and  C_5
REMARK    4  A    between atoms: C_8  and  O_9
REMARK    5  A    between atoms: O_9  and  C_10
REMARK    6  A    between atoms: C_10  and  C_11
REMARK    7  A    between atoms: C_11  and  N_12
REMARK                            x       y       z     vdW  Elec       q    Type
REMARK                         _______ _______ _______ _____ _____    ______ ____
ROOT
ATOM      1  C   UNL     1       1.787   7.462  20.294  0.00  0.00    +0.000 A 
ATOM      2  C   UNL     1       2.484   7.565  19.066  0.00  0.00    +0.000 A 
ATOM      3  C   UNL     1       2.795   6.438  18.296  0.00  0.00    +0.000 A 
ATOM      4  C   UNL     1       2.430   5.149  18.717  0.00  0.00    +0.000 A 
ATOM      5  C   UNL     1       1.795   5.020  19.965  0.00  0.00    +0.000 A 
ATOM      6  C   UNL     1       1.487   6.158  20.743  0.00  0.00    +0.000 A 
ENDROOT
BRANCH   1   8
ATOM      7  C   UNL     1       0.639   9.748  20.657  0.00  0.00    +0.000 C 
ATOM      8  C   UNL     1       1.317   8.656  21.130  0.00  0.00    +0.000 C 
BRANCH   7   9
ATOM      9  C   UNL     1       0.049  10.889  21.459  0.00  0.00    +0.000 A 
ATOM     10  N   UNL     1      -0.239  10.665  22.769  0.00  0.00    +0.000 NA
ATOM     11  O   UNL     1      -0.658  11.767  23.321  0.00  0.00    +0.000 OA
ATOM     12  C   UNL     1      -0.662  12.724  22.448  0.00  0.00    +0.000 A 
ATOM     13  C   UNL     1      -1.008  14.046  22.691  0.00  0.00    +0.000 A 
ATOM     14  C   UNL     1      -0.929  14.946  21.625  0.00  0.00    +0.000 A 
ATOM     15  C   UNL     1      -0.518  14.497  20.349  0.00  0.00    +0.000 A 
ATOM     16 CL   UNL     1      -0.441  15.666  19.042  0.00  0.00    +0.000 Cl
ATOM     17  C   UNL     1      -0.165  13.134  20.130  0.00  0.00    +0.000 A 
ATOM     18  C   UNL     1      -0.239  12.252  21.222  0.00  0.00    +0.000 A 
ENDBRANCH   7   9
BRANCH   7  20
ATOM     19  N   UNL     1      -0.003   9.954  18.139  0.00  0.00    +0.000 NA
ATOM     20  C   UNL     1       0.284   9.840  19.255  0.00  0.00    +0.000 C 
ENDBRANCH   7  20
ENDBRANCH   1   8
BRANCH   4  21
ATOM     21  O   UNL     1       2.658   4.038  17.943  0.00  0.00    +0.000 OA
BRANCH  21  22
ATOM     22  C   UNL     1       3.637   3.086  18.210  0.00  0.00    +0.000 C 
BRANCH  22  23
ATOM     23  C   UNL     1       4.709   3.570  19.217  0.00  0.00    +0.000 C 
BRANCH  23  24
ATOM     24  N   UNL     1       5.922   4.166  18.600  0.00  0.00    +0.000 NA
ATOM     25  C   UNL     1       5.753   4.415  17.146  0.00  0.00    +0.000 C 
ATOM     26  C   UNL     1       7.043   4.987  16.546  0.00  0.00    +0.000 C 
ATOM     27  C   UNL     1       7.404   6.301  17.237  0.00  0.00    +0.000 C 
ATOM     28  C   UNL     1       7.533   6.059  18.741  0.00  0.00    +0.000 C 
ATOM     29  C   UNL     1       6.235   5.447  19.286  0.00  0.00    +0.000 C 
ENDBRANCH  23  24
ENDBRANCH  22  23
ENDBRANCH  21  22
ENDBRANCH   4  21
TORSDOF 7
ENDMDL
MODEL 3
REMARK VINA RESULT:      -7.6      1.089      1.775
REMARK  Name = 
REMARK  7 active torsions:
REMARK  status: ('A' for Active; 'I' for Inactive)
REMARK    1  A    between atoms: C_2  and  C_3
REMARK    2  A    between atoms: C_3  and  C_20
REMARK    3  A    between atoms: C_4  and  C_5
REMARK    4  A    between atoms: C_8  and  O_9
REMARK    5  A    between atoms: O_9  and  C_10
REMARK    6  A    between atoms: C_10  and  C_11
REMARK    7  A    between atoms: C_11  and  N_12
REMARK                            x       y       z     vdW  Elec       q    Type
REMARK                         _______ _______ _______ _____ _____    ______ ____
ROOT
ATOM      1  C   UNL     1       1.422  10.275  18.196  0.00  0.00    +0.000 A 
ATOM      2  C   UNL     1       0.042  10.267  18.511  0.00  0.00    +0.000 A 
ATOM      3  C   UNL     1      -0.648  11.441  18.837  0.00  0.00    +0.000 A 
ATOM      4  C   UNL     1       0.008  12.682  18.870  0.00  0.00    +0.000 A 
ATOM      5  C   UNL     1       1.392  12.701  18.624  0.00  0.00    +0.000 A 
ATOM      6  C   UNL     1       2.088  11.515  18.301  0.00  0.00    +0.000 A 
ENDROOT
BRANCH   1   8
ATOM      7  C   UNL     1       2.453   7.920  18.456  0.00  0.00    +0.000 C 
ATOM      8  C   UNL     1       2.212   9.051  17.723  0.00  0.00    +0.000 C 
BRANCH   7   9
ATOM      9  C   UNL     1       3.121   6.642  17.992  0.00  0.00    +0.000 A 
ATOM     10  N   UNL     1       4.384   6.727  17.494  0.00  0.00    +0.000 NA
ATOM     11  O   UNL     1       4.830   5.535  17.223  0.00  0.00    +0.000 OA
ATOM     12  C   UNL     1       3.930   4.650  17.517  0.00  0.00    +0.000 A 
ATOM     13  C   UNL     1       4.073   3.274  17.399  0.00  0.00    +0.000 A 
ATOM     14  C   UNL     1       2.997   2.472  17.790  0.00  0.00    +0.000 A 
ATOM     15  C   UNL     1       1.811   3.068  18.274  0.00  0.00    +0.000 A 
ATOM     16 CL   UNL     1       0.486   2.016  18.746  0.00  0.00    +0.000 Cl
ATOM     17  C   UNL     1       1.694   4.483  18.388  0.00  0.00    +0.000 A 
ATOM     18  C   UNL     1       2.796   5.267  18.002  0.00  0.00    +0.000 A 
ENDBRANCH   7   9
BRANCH   7  20
ATOM     19  N   UNL     1       1.523   7.651  20.877  0.00  0.00    +0.000 NA
ATOM     20  C   UNL     1       1.927   7.791  19.801  0.00  0.00    +0.000 C 
ENDBRANCH   7  20
ENDBRANCH   1   8
BRANCH   4  21
ATOM     21  O   UNL     1      -0.663  13.855  19.114  0.00  0.00    +0.000 OA
BRANCH  21  22
ATOM     22  C   UNL     1      -0.275  14.796  20.063  0.00  0.00    +0.000 C 
BRANCH  22  23
ATOM     23  C   UNL     1      -1.339  15.039  21.161  0.00  0.00    +0.000 C 
BRANCH  23  24
ATOM     24  N   UNL     1      -2.022  13.813  21.651  0.00  0.00    +0.000 NA
ATOM     25  C   UNL     1      -1.219  13.086  22.665  0.00  0.00    +0.000 C 
ATOM     26  C   UNL     1      -1.943  11.807  23.108  0.00  0.00    +0.000 C 
ATOM     27  C   UNL     1      -3.304  12.158  23.707  0.00  0.00    +0.000 C 
ATOM     28  C   UNL     1      -4.117  12.948  22.682  0.00  0.00    +0.000 C 
ATOM     29  C   UNL     1      -3.333  14.192  22.239  0.00  0.00    +0.000 C 
ENDBRANCH  23  24
ENDBRANCH  22  23
ENDBRANCH  21  22
ENDBRANCH   4  21
TORSDOF 7
ENDMDL
MODEL 4
REMARK VINA RESULT:      -7.6      1.602      2.135
REMARK  Name = 
REMARK  7 active torsions:
REMARK  status: ('A' for Active; 'I' for Inactive)
REMARK    1  A    between atoms: C_2  and  C_3
REMARK    2  A    between atoms: C_3  and  C_20
REMARK    3  A    between atoms: C_4  and  C_5
REMARK    4  A    between atoms: C_8  and  O_9
REMARK    5  A    between atoms: O_9  and  C_10
REMARK    6  A    between atoms: C_10  and  C_11
REMARK    7  A    between atoms: C_11  and  N_12
REMARK                            x       y       z     vdW  Elec       q    Type
REMARK                         _______ _______ _______ _____ _____    ______ ____
ROOT
ATOM      1  C   UNL     1       0.730  10.393  18.687  0.00  0.00    +0.000 A 
ATOM      2  C   UNL     1       1.216  11.545  19.350  0.00  0.00    +0.000 A 
ATOM      3  C   UNL     1       0.360  12.427  20.021  0.00  0.00    +0.000 A 
ATOM      4  C   UNL     1      -1.025  12.204  20.060  0.00  0.00    +0.000 A 
ATOM      5  C   UNL     1      -1.534  11.100  19.353  0.00  0.00    +0.000 A 
ATOM      6  C   UNL     1      -0.670  10.215  18.671  0.00  0.00    +0.000 A 
ENDROOT
BRANCH   1   8
ATOM      7  C   UNL     1       2.109   8.208  18.644  0.00  0.00    +0.000 C 
ATOM      8  C   UNL     1       1.616   9.329  18.032  0.00  0.00    +0.000 C 
BRANCH   7   9
ATOM      9  C   UNL     1       2.883   7.072  18.010  0.00  0.00    +0.000 A 
ATOM     10  N   UNL     1       4.051   7.370  17.379  0.00  0.00    +0.000 NA
ATOM     11  O   UNL     1       4.620   6.275  16.967  0.00  0.00    +0.000 OA
ATOM     12  C   UNL     1       3.894   5.252  17.292  0.00  0.00    +0.000 A 
ATOM     13  C   UNL     1       4.209   3.921  17.052  0.00  0.00    +0.000 A 
ATOM     14  C   UNL     1       3.311   2.948  17.499  0.00  0.00    +0.000 A 
ATOM     15  C   UNL     1       2.123   3.334  18.160  0.00  0.00    +0.000 A 
ATOM     16 CL   UNL     1       1.024   2.074  18.697  0.00  0.00    +0.000 Cl
ATOM     17  C   UNL     1       1.827   4.708  18.397  0.00  0.00    +0.000 A 
ATOM     18  C   UNL     1       2.754   5.665  17.950  0.00  0.00    +0.000 A 
ENDBRANCH   7   9
BRANCH   7  20
ATOM     19  N   UNL     1       1.564   7.680  21.139  0.00  0.00    +0.000 NA
ATOM     20  C   UNL     1       1.788   7.928  20.030  0.00  0.00    +0.000 C 
ENDBRANCH   7  20
ENDBRANCH   1   8
BRANCH   4  21
ATOM     21  O   UNL     1      -1.875  13.014  20.773  0.00  0.00    +0.000 OA
BRANCH  21  22
ATOM     22  C   UNL     1      -2.866  13.805  20.202  0.00  0.00    +0.000 C 
BRANCH  22  23
ATOM     23  C   UNL     1      -4.279  13.534  20.775  0.00  0.00    +0.000 C 
BRANCH  23  24
ATOM     24  N   UNL     1      -4.931  12.298  20.271  0.00  0.00    +0.000 NA
ATOM     25  C   UNL     1      -6.345  12.186  20.709  0.00  0.00    +0.000 C 
ATOM     26  C   UNL     1      -6.961  10.875  20.202  0.00  0.00    +0.000 C 
ATOM     27  C   UNL     1      -6.906  10.827  18.676  0.00  0.00    +0.000 C 
ATOM     28  C   UNL     1      -5.456  10.989  18.219  0.00  0.00    +0.000 C 
ATOM     29  C   UNL     1      -4.872  12.291  18.786  0.00  0.00    +0.000 C 
ENDBRANCH  23  24
ENDBRANCH  22  23
ENDBRANCH  21  22
ENDBRANCH   4  21
TORSDOF 7
ENDMDL
MODEL 5
REMARK VINA RESULT:      -7.6      1.199      1.583
REMARK  Name = 
REMARK  7 active torsions:
REMARK  status: ('A' for Active; 'I' for Inactive)
REMARK    1  A    between atoms: C_2  and  C_3
REMARK    2  A    between atoms: C_3  and  C_20
REMARK    3  A    between atoms: C_4  and  C_5
REMARK    4  A    between atoms: C_8  and  O_9
REMARK    5  A    between atoms: O_9  and  C_10
REMARK    6  A    between atoms: C_10  and  C_11
REMARK    7  A    between atoms: C_11  and  N_12
REMARK                            x       y       z     vdW  Elec       q    Type
REMARK                         _______ _______ _______ _____ _____    ______ ____
ROOT
ATOM      1  C   UNL     1       0.411  10.291  18.488  0.00  0.00    +0.000 A 
ATOM      2  C   UNL     1       0.772  11.294  19.420  0.00  0.00    +0.000 A 
ATOM      3  C   UNL     1      -0.180  12.137  20.003  0.00  0.00    +0.000 A 
ATOM      4  C   UNL     1      -1.543  12.025  19.682  0.00  0.00    +0.000 A 
ATOM      5  C   UNL     1      -1.913  11.078  18.711  0.00  0.00    +0.000 A 
ATOM      6  C   UNL     1      -0.950  10.232  18.118  0.00  0.00    +0.000 A 
ENDROOT
BRANCH   1   8
ATOM      7  C   UNL     1       1.953   8.219  18.575  0.00  0.00    +0.000 C 
ATOM      8  C   UNL     1       1.381   9.263  17.898  0.00  0.00    +0.000 C 
BRANCH   7   9
ATOM      9  C   UNL     1       2.817   7.112  18.009  0.00  0.00    +0.000 A 
ATOM     10  N   UNL     1       4.003   7.458  17.438  0.00  0.00    +0.000 NA
ATOM     11  O   UNL     1       4.647   6.385  17.082  0.00  0.00    +0.000 OA
ATOM     12  C   UNL     1       3.955   5.333  17.388  0.00  0.00    +0.000 A 
ATOM     13  C   UNL     1       4.349   4.015  17.193  0.00  0.00    +0.000 A 
ATOM     14  C   UNL     1       3.475   3.007  17.610  0.00  0.00    +0.000 A 
ATOM     15  C   UNL     1       2.234   3.345  18.195  0.00  0.00    +0.000 A 
ATOM     16 CL   UNL     1       1.170   2.040  18.696  0.00  0.00    +0.000 Cl
ATOM     17  C   UNL     1       1.858   4.706  18.386  0.00  0.00    +0.000 A 
ATOM     18  C   UNL     1       2.761   5.700  17.971  0.00  0.00    +0.000 A 
ENDBRANCH   7   9
BRANCH   7  20
ATOM     19  N   UNL     1       1.386   7.853  21.093  0.00  0.00    +0.000 NA
ATOM     20  C   UNL     1       1.643   7.994  19.973  0.00  0.00    +0.000 C 
ENDBRANCH   7  20
ENDBRANCH   1   8
BRANCH   4  21
ATOM     21  O   UNL     1      -2.503  12.790  20.297  0.00  0.00    +0.000 OA
BRANCH  21  22
ATOM     22  C   UNL     1      -3.873  12.580  20.167  0.00  0.00    +0.000 C 
BRANCH  22  23
ATOM     23  C   UNL     1      -4.723  13.823  20.526  0.00  0.00    +0.000 C 
BRANCH  23  24
ATOM     24  N   UNL     1      -5.967  13.531  21.285  0.00  0.00    +0.000 NA
ATOM     25  C   UNL     1      -6.483  12.165  21.020  0.00  0.00    +0.000 C 
ATOM     26  C   UNL     1      -7.788  11.925  21.789  0.00  0.00    +0.000 C 
ATOM     27  C   UNL     1      -7.548  12.084  23.290  0.00  0.00    +0.000 C 
ATOM     28  C   UNL     1      -6.971  13.473  23.563  0.00  0.00    +0.000 C 
ATOM     29  C   UNL     1      -5.693  13.681  22.738  0.00  0.00    +0.000 C 
ENDBRANCH  23  24
ENDBRANCH  22  23
ENDBRANCH  21  22
ENDBRANCH   4  21
TORSDOF 7
ENDMDL
MODEL 6
REMARK VINA RESULT:      -7.5      0.887      1.085
REMARK  Name = 
REMARK  7 active torsions:
REMARK  status: ('A' for Active; 'I' for Inactive)
REMARK    1  A    between atoms: C_2  and  C_3
REMARK    2  A    between atoms: C_3  and  C_20
REMARK    3  A    between atoms: C_4  and  C_5
REMARK    4  A    between atoms: C_8  and  O_9
REMARK    5  A    between atoms: O_9  and  C_10
REMARK    6  A    between atoms: C_10  and  C_11
REMARK    7  A    between atoms: C_11  and  N_12
REMARK                            x       y       z     vdW  Elec       q    Type
REMARK                         _______ _______ _______ _____ _____    ______ ____
ROOT
ATOM      1  C   UNL     1       0.804  10.233  18.361  0.00  0.00    +0.000 A 
ATOM      2  C   UNL     1       1.258  11.434  18.958  0.00  0.00    +0.000 A 
ATOM      3  C   UNL     1       0.372  12.359  19.524  0.00  0.00    +0.000 A 
ATOM      4  C   UNL     1      -1.014  12.132  19.520  0.00  0.00    +0.000 A 
ATOM      5  C   UNL     1      -1.489  10.976  18.875  0.00  0.00    +0.000 A 
ATOM      6  C   UNL     1      -0.594  10.047  18.298  0.00  0.00    +0.000 A 
ENDROOT
BRANCH   1   8
ATOM      7  C   UNL     1       2.185   8.057  18.538  0.00  0.00    +0.000 C 
ATOM      8  C   UNL     1       1.719   9.129  17.825  0.00  0.00    +0.000 C 
BRANCH   7   9
ATOM      9  C   UNL     1       2.989   6.882  18.022  0.00  0.00    +0.000 A 
ATOM     10  N   UNL     1       4.217   7.132  17.494  0.00  0.00    +0.000 NA
ATOM     11  O   UNL     1       4.796   6.010  17.179  0.00  0.00    +0.000 OA
ATOM     12  C   UNL     1       4.019   5.015  17.472  0.00  0.00    +0.000 A 
ATOM     13  C   UNL     1       4.324   3.670  17.312  0.00  0.00    +0.000 A 
ATOM     14  C   UNL     1       3.364   2.734  17.708  0.00  0.00    +0.000 A 
ATOM     15  C   UNL     1       2.129   3.169  18.239  0.00  0.00    +0.000 A 
ATOM     16 CL   UNL     1       0.955   1.953  18.716  0.00  0.00    +0.000 Cl
ATOM     17  C   UNL     1       1.845   4.556  18.395  0.00  0.00    +0.000 A 
ATOM     18  C   UNL     1       2.833   5.477  18.003  0.00  0.00    +0.000 A 
ENDBRANCH   7   9
BRANCH   7  20
ATOM     19  N   UNL     1       1.466   7.757  21.026  0.00  0.00    +0.000 NA
ATOM     20  C   UNL     1       1.803   7.876  19.925  0.00  0.00    +0.000 C 
ENDBRANCH   7  20
ENDBRANCH   1   8
BRANCH   4  21
ATOM     21  O   UNL     1      -1.895  12.986  20.135  0.00  0.00    +0.000 OA
BRANCH  21  22
ATOM     22  C   UNL     1      -2.789  12.606  21.131  0.00  0.00    +0.000 C 
BRANCH  22  23
ATOM     23  C   UNL     1      -3.885  13.662  21.412  0.00  0.00    +0.000 C 
BRANCH  23  24
ATOM     24  N   UNL     1      -5.067  13.153  22.155  0.00  0.00    +0.000 NA
ATOM     25  C   UNL     1      -5.656  14.178  23.053  0.00  0.00    +0.000 C 
ATOM     26  C   UNL     1      -6.843  13.595  23.829  0.00  0.00    +0.000 C 
ATOM     27  C   UNL     1      -7.917  13.109  22.856  0.00  0.00    +0.000 C 
ATOM     28  C   UNL     1      -7.303  12.088  21.898  0.00  0.00    +0.000 C 
ATOM     29  C   UNL     1      -6.095  12.704  21.179  0.00  0.00    +0.000 C 
ENDBRANCH  23  24
ENDBRANCH  22  23
ENDBRANCH  21  22
ENDBRANCH   4  21
TORSDOF 7
ENDMDL
MODEL 7
REMARK VINA RESULT:      -7.5      0.708      1.128
REMARK  Name = 
REMARK  7 active torsions:
REMARK  status: ('A' for Active; 'I' for Inactive)
REMARK    1  A    between atoms: C_2  and  C_3
REMARK    2  A    between atoms: C_3  and  C_20
REMARK    3  A    between atoms: C_4  and  C_5
REMARK    4  A    between atoms: C_8  and  O_9
REMARK    5  A    between atoms: O_9  and  C_10
REMARK    6  A    between atoms: C_10  and  C_11
REMARK    7  A    between atoms: C_11  and  N_12
REMARK                            x       y       z     vdW  Elec       q    Type
REMARK                         _______ _______ _______ _____ _____    ______ ____
ROOT
ATOM      1  C   UNL     1       0.538  10.185  18.352  0.00  0.00    +0.000 A 
ATOM      2  C   UNL     1       0.904  11.199  19.269  0.00  0.00    +0.000 A 
ATOM      3  C   UNL     1      -0.041  12.074  19.818  0.00  0.00    +0.000 A 
ATOM      4  C   UNL     1      -1.400  11.982  19.477  0.00  0.00    +0.000 A 
ATOM      5  C   UNL     1      -1.774  11.022  18.519  0.00  0.00    +0.000 A 
ATOM      6  C   UNL     1      -0.818  10.144  17.961  0.00  0.00    +0.000 A 
ENDROOT
BRANCH   1   8
ATOM      7  C   UNL     1       2.055   8.099  18.514  0.00  0.00    +0.000 C 
ATOM      8  C   UNL     1       1.496   9.125  17.800  0.00  0.00    +0.000 C 
BRANCH   7   9
ATOM      9  C   UNL     1       2.907   6.963  17.988  0.00  0.00    +0.000 A 
ATOM     10  N   UNL     1       4.114   7.271  17.442  0.00  0.00    +0.000 NA
ATOM     11  O   UNL     1       4.741   6.177  17.120  0.00  0.00    +0.000 OA
ATOM     12  C   UNL     1       4.018   5.147  17.425  0.00  0.00    +0.000 A 
ATOM     13  C   UNL     1       4.385   3.817  17.263  0.00  0.00    +0.000 A 
ATOM     14  C   UNL     1       3.477   2.837  17.673  0.00  0.00    +0.000 A 
ATOM     15  C   UNL     1       2.230   3.213  18.222  0.00  0.00    +0.000 A 
ATOM     16 CL   UNL     1       1.123   1.943  18.717  0.00  0.00    +0.000 Cl
ATOM     17  C   UNL     1       1.882   4.586  18.380  0.00  0.00    +0.000 A 
ATOM     18  C   UNL     1       2.818   5.552  17.972  0.00  0.00    +0.000 A 
ENDBRANCH   7   9
BRANCH   7  20
ATOM     19  N   UNL     1       1.529   7.787  21.048  0.00  0.00    +0.000 NA
ATOM     20  C   UNL     1       1.741   7.927  19.918  0.00  0.00    +0.000 C 
ENDBRANCH   7  20
ENDBRANCH   1   8
BRANCH   4  21
ATOM     21  O   UNL     1      -2.354  12.779  20.059  0.00  0.00    +0.000 OA
BRANCH  21  22
ATOM     22  C   UNL     1      -2.123  13.602  21.157  0.00  0.00    +0.000 C 
BRANCH  22  23
ATOM     23  C   UNL     1      -3.291  14.575  21.455  0.00  0.00    +0.000 C 
BRANCH  23  24
ATOM     24  N   UNL     1      -4.078  14.251  22.673  0.00  0.00    +0.000 NA
ATOM     25  C   UNL     1      -5.540  14.245  22.417  0.00  0.00    +0.000 C 
ATOM     26  C   UNL     1      -6.311  13.950  23.710  0.00  0.00    +0.000 C 
ATOM     27  C   UNL     1      -5.897  12.589  24.266  0.00  0.00    +0.000 C 
ATOM     28  C   UNL     1      -4.385  12.573  24.488  0.00  0.00    +0.000 C 
ATOM     29  C   UNL     1      -3.661  12.917  23.178  0.00  0.00    +0.000 C 
ENDBRANCH  23  24
ENDBRANCH  22  23
ENDBRANCH  21  22
ENDBRANCH   4  21
TORSDOF 7
ENDMDL
MODEL 8
REMARK VINA RESULT:      -7.5      2.714      4.185
REMARK  Name = 
REMARK  7 active torsions:
REMARK  status: ('A' for Active; 'I' for Inactive)
REMARK    1  A    between atoms: C_2  and  C_3
REMARK    2  A    between atoms: C_3  and  C_20
REMARK    3  A    between atoms: C_4  and  C_5
REMARK    4  A    between atoms: C_8  and  O_9
REMARK    5  A    between atoms: O_9  and  C_10
REMARK    6  A    between atoms: C_10  and  C_11
REMARK    7  A    between atoms: C_11  and  N_12
REMARK                            x       y       z     vdW  Elec       q    Type
REMARK                         _______ _______ _______ _____ _____    ______ ____
ROOT
ATOM      1  C   UNL     1       0.954  10.328  18.331  0.00  0.00    +0.000 A 
ATOM      2  C   UNL     1      -0.459  10.301  18.422  0.00  0.00    +0.000 A 
ATOM      3  C   UNL     1      -1.193  11.421  18.830  0.00  0.00    +0.000 A 
ATOM      4  C   UNL     1      -0.553  12.624  19.171  0.00  0.00    +0.000 A 
ATOM      5  C   UNL     1       0.853  12.650  19.149  0.00  0.00    +0.000 A 
ATOM      6  C   UNL     1       1.593  11.517  18.743  0.00  0.00    +0.000 A 
ENDROOT
BRANCH   1   8
ATOM      7  C   UNL     1       2.229   8.086  18.497  0.00  0.00    +0.000 C 
ATOM      8  C   UNL     1       1.811   9.180  17.787  0.00  0.00    +0.000 C 
BRANCH   7   9
ATOM      9  C   UNL     1       2.970   6.874  17.975  0.00  0.00    +0.000 A 
ATOM     10  N   UNL     1       4.198   7.066  17.422  0.00  0.00    +0.000 NA
ATOM     11  O   UNL     1       4.722   5.918  17.104  0.00  0.00    +0.000 OA
ATOM     12  C   UNL     1       3.908   4.960  17.419  0.00  0.00    +0.000 A 
ATOM     13  C   UNL     1       4.151   3.602  17.264  0.00  0.00    +0.000 A 
ATOM     14  C   UNL     1       3.159   2.711  17.685  0.00  0.00    +0.000 A 
ATOM     15  C   UNL     1       1.955   3.203  18.236  0.00  0.00    +0.000 A 
ATOM     16 CL   UNL     1       0.739   2.043  18.744  0.00  0.00    +0.000 Cl
ATOM     17  C   UNL     1       1.734   4.603  18.387  0.00  0.00    +0.000 A 
ATOM     18  C   UNL     1       2.753   5.477  17.969  0.00  0.00    +0.000 A 
ENDBRANCH   7   9
BRANCH   7  20
ATOM     19  N   UNL     1       1.573   7.818  21.006  0.00  0.00    +0.000 NA
ATOM     20  C   UNL     1       1.848   7.923  19.886  0.00  0.00    +0.000 C 
ENDBRANCH   7  20
ENDBRANCH   1   8
BRANCH   4  21
ATOM     21  O   UNL     1      -1.256  13.756  19.501  0.00  0.00    +0.000 OA
BRANCH  21  22
ATOM     22  C   UNL     1      -0.899  14.628  20.526  0.00  0.00    +0.000 C 
BRANCH  22  23
ATOM     23  C   UNL     1      -1.328  16.093  20.266  0.00  0.00    +0.000 C 
BRANCH  23  24
ATOM     24  N   UNL     1      -0.299  16.937  19.605  0.00  0.00    +0.000 NA
ATOM     25  C   UNL     1       1.067  16.374  19.742  0.00  0.00    +0.000 C 
ATOM     26  C   UNL     1       2.098  17.300  19.084  0.00  0.00    +0.000 C 
ATOM     27  C   UNL     1       1.777  17.471  17.601  0.00  0.00    +0.000 C 
ATOM     28  C   UNL     1       0.352  18.006  17.453  0.00  0.00    +0.000 C 
ATOM     29  C   UNL     1      -0.635  17.070  18.163  0.00  0.00    +0.000 C 
ENDBRANCH  23  24
ENDBRANCH  22  23
ENDBRANCH  21  22
ENDBRANCH   4  21
TORSDOF 7
ENDMDL
MODEL 9
REMARK VINA RESULT:      -7.5      3.294      9.721
REMARK  Name = 
REMARK  7 active torsions:
REMARK  status: ('A' for Active; 'I' for Inactive)
REMARK    1  A    between atoms: C_2  and  C_3
REMARK    2  A    between atoms: C_3  and  C_20
REMARK    3  A    between atoms: C_4  and  C_5
REMARK    4  A    between atoms: C_8  and  O_9
REMARK    5  A    between atoms: O_9  and  C_10
REMARK    6  A    between atoms: C_10  and  C_11
REMARK    7  A    between atoms: C_11  and  N_12
REMARK                            x       y       z     vdW  Elec       q    Type
REMARK                         _______ _______ _______ _____ _____    ______ ____
ROOT
ATOM      1  C   UNL     1       1.047   9.534  19.341  0.00  0.00    +0.000 A 
ATOM      2  C   UNL     1       1.709   9.588  18.090  0.00  0.00    +0.000 A 
ATOM      3  C   UNL     1       2.537   8.550  17.648  0.00  0.00    +0.000 A 
ATOM      4  C   UNL     1       2.750   7.407  18.435  0.00  0.00    +0.000 A 
ATOM      5  C   UNL     1       2.154   7.363  19.708  0.00  0.00    +0.000 A 
ATOM      6  C   UNL     1       1.323   8.415  20.155  0.00  0.00    +0.000 A 
ENDROOT
BRANCH   1   8
ATOM      7  C   UNL     1      -1.119  10.936  19.206  0.00  0.00    +0.000 C 
ATOM      8  C   UNL     1       0.041  10.577  19.837  0.00  0.00    +0.000 C 
BRANCH   7   9
ATOM      9  C   UNL     1      -2.199  11.868  19.714  0.00  0.00    +0.000 A 
ATOM     10  N   UNL     1      -3.382  11.899  19.044  0.00  0.00    +0.000 NA
ATOM     11  O   UNL     1      -4.215  12.686  19.660  0.00  0.00    +0.000 OA
ATOM     12  C   UNL     1      -3.653  13.184  20.716  0.00  0.00    +0.000 A 
ATOM     13  C   UNL     1      -4.257  14.030  21.637  0.00  0.00    +0.000 A 
ATOM     14  C   UNL     1      -3.495  14.448  22.732  0.00  0.00    +0.000 A 
ATOM     15  C   UNL     1      -2.156  14.018  22.868  0.00  0.00    +0.000 A 
ATOM     16 CL   UNL     1      -1.241  14.577  24.259  0.00  0.00    +0.000 Cl
ATOM     17  C   UNL     1      -1.564  13.146  21.909  0.00  0.00    +0.000 A 
ATOM     18  C   UNL     1      -2.356  12.729  20.825  0.00  0.00    +0.000 A 
ENDBRANCH   7   9
BRANCH   7  20
ATOM     19  N   UNL     1      -1.798   9.756  16.982  0.00  0.00    +0.000 NA
ATOM     20  C   UNL     1      -1.505  10.300  17.962  0.00  0.00    +0.000 C 
ENDBRANCH   7  20
ENDBRANCH   1   8
BRANCH   4  21
ATOM     21  O   UNL     1       3.498   6.344  17.990  0.00  0.00    +0.000 OA
BRANCH  21  22
ATOM     22  C   UNL     1       4.426   5.659  18.770  0.00  0.00    +0.000 C 
BRANCH  22  23
ATOM     23  C   UNL     1       4.446   4.134  18.506  0.00  0.00    +0.000 C 
BRANCH  23  24
ATOM     24  N   UNL     1       3.328   3.377  19.128  0.00  0.00    +0.000 NA
ATOM     25  C   UNL     1       2.929   3.939  20.443  0.00  0.00    +0.000 C 
ATOM     26  C   UNL     1       1.804   3.101  21.065  0.00  0.00    +0.000 C 
ATOM     27  C   UNL     1       0.589   3.086  20.139  0.00  0.00    +0.000 C 
ATOM     28  C   UNL     1       1.007   2.552  18.769  0.00  0.00    +0.000 C 
ATOM     29  C   UNL     1       2.161   3.396  18.208  0.00  0.00    +0.000 C 
ENDBRANCH  23  24
ENDBRANCH  22  23
ENDBRANCH  21  22
ENDBRANCH   4  21
TORSDOF 7
ENDMDL
