MODEL 1
REMARK VINA RESULT:      -7.3      0.000      0.000
REMARK  Name = 
REMARK  4 active torsions:
REMARK  status: ('A' for Active; 'I' for Inactive)
REMARK    1  A    between atoms: N_3  and  C_4
REMARK    2  A    between atoms: C_4  and  C_5
REMARK    3  A    between atoms: C_13  and  C_14
REMARK    4  A    between atoms: C_14  and  C_15
REMARK                            x       y       z     vdW  Elec       q    Type
REMARK                         _______ _______ _______ _____ _____    ______ ____
ROOT
ATOM      1  O   UNL     1       5.415   6.404  14.788  0.00  0.00    +0.000 OA
ATOM      2  C   UNL     1       6.066   5.511  15.329  0.00  0.00    +0.000 C 
ATOM      3  N   UNL     1       6.990   4.755  14.650  0.00  0.00    +0.000 N 
ATOM      4  N   UNL     1       5.925   5.225  16.646  0.00  0.00    +0.000 N 
ATOM      5  C   UNL     1       6.486   4.295  17.596  0.00  0.00    +0.000 C 
ATOM      6  C   UNL     1       5.160   4.482  18.386  0.00  0.00    +0.000 C 
ATOM      7  C   UNL     1       5.031   5.825  17.622  0.00  0.00    +0.000 C 
ATOM      8  H   UNL     1       7.135   3.820  15.003  0.00  0.00    +0.000 HD
ENDROOT
BRANCH   3   9
ATOM      9  C   UNL     1       7.138   4.960  13.227  0.00  0.00    +0.000 C 
BRANCH   9  10
ATOM     10  C   UNL     1       6.636   3.802  12.408  0.00  0.00    +0.000 A 
ATOM     11  C   UNL     1       7.518   2.864  11.862  0.00  0.00    +0.000 A 
ATOM     12  C   UNL     1       6.994   1.764  11.198  0.00  0.00    +0.000 A 
ATOM     13  N   UNL     1       5.673   1.538  11.041  0.00  0.00    +0.000 NA
ATOM     14  C   UNL     1       4.837   2.450  11.579  0.00  0.00    +0.000 A 
ATOM     15  C   UNL     1       5.262   3.583  12.256  0.00  0.00    +0.000 A 
ENDBRANCH   9  10
ENDBRANCH   3   9
BRANCH   6  16
ATOM     16  C   UNL     1       4.139   3.383  18.088  0.00  0.00    +0.000 C 
BRANCH  16  17
ATOM     17  C   UNL     1       3.122   3.244  19.191  0.00  0.00    +0.000 A 
ATOM     18  C   UNL     1       3.463   2.660  20.419  0.00  0.00    +0.000 A 
ATOM     19  C   UNL     1       2.525   2.584  21.453  0.00  0.00    +0.000 A 
ATOM     20  C   UNL     1       1.239   3.098  21.278  0.00  0.00    +0.000 A 
ATOM     21  C   UNL     1       0.885   3.669  20.058  0.00  0.00    +0.000 A 
ATOM     22  C   UNL     1       1.819   3.728  19.026  0.00  0.00    +0.000 A 
ATOM     23  F   UNL     1       1.454   4.275  17.857  0.00  0.00    +0.000 F 
ENDBRANCH  16  17
ENDBRANCH   6  16
TORSDOF 4
ENDMDL
MODEL 2
REMARK VINA RESULT:      -7.3      4.296      6.735
REMARK  Name = 
REMARK  4 active torsions:
REMARK  status: ('A' for Active; 'I' for Inactive)
REMARK    1  A    between atoms: N_3  and  C_4
REMARK    2  A    between atoms: C_4  and  C_5
REMARK    3  A    between atoms: C_13  and  C_14
REMARK    4  A    between atoms: C_14  and  C_15
REMARK                            x       y       z     vdW  Elec       q    Type
REMARK                         _______ _______ _______ _____ _____    ______ ____
ROOT
ATOM      1  O   UNL     1       8.032   6.004  18.826  0.00  0.00    +0.000 OA
ATOM      2  C   UNL     1       7.367   6.755  18.112  0.00  0.00    +0.000 C 
ATOM      3  N   UNL     1       7.696   8.074  17.917  0.00  0.00    +0.000 N 
ATOM      4  N   UNL     1       6.267   6.318  17.452  0.00  0.00    +0.000 N 
ATOM      5  C   UNL     1       5.274   6.871  16.562  0.00  0.00    +0.000 C 
ATOM      6  C   UNL     1       4.347   5.736  17.080  0.00  0.00    +0.000 C 
ATOM      7  C   UNL     1       5.656   4.999  17.463  0.00  0.00    +0.000 C 
ATOM      8  H   UNL     1       6.924   8.692  17.718  0.00  0.00    +0.000 HD
ENDROOT
BRANCH   3   9
ATOM      9  C   UNL     1       8.815   8.621  18.648  0.00  0.00    +0.000 C 
BRANCH   9  10
ATOM     10  C   UNL     1       8.845  10.125  18.645  0.00  0.00    +0.000 A 
ATOM     11  C   UNL     1       9.577  10.837  19.602  0.00  0.00    +0.000 A 
ATOM     12  C   UNL     1       9.649  12.219  19.493  0.00  0.00    +0.000 A 
ATOM     13  N   UNL     1       9.051  12.929  18.514  0.00  0.00    +0.000 NA
ATOM     14  C   UNL     1       8.354  12.226  17.597  0.00  0.00    +0.000 A 
ATOM     15  C   UNL     1       8.221  10.846  17.621  0.00  0.00    +0.000 A 
ENDBRANCH   9  10
ENDBRANCH   3   9
BRANCH   6  16
ATOM     16  C   UNL     1       3.424   6.201  18.209  0.00  0.00    +0.000 C 
BRANCH  16  17
ATOM     17  C   UNL     1       2.498   5.104  18.668  0.00  0.00    +0.000 A 
ATOM     18  C   UNL     1       2.275   3.970  17.877  0.00  0.00    +0.000 A 
ATOM     19  C   UNL     1       1.454   2.935  18.337  0.00  0.00    +0.000 A 
ATOM     20  C   UNL     1       0.855   3.017  19.594  0.00  0.00    +0.000 A 
ATOM     21  C   UNL     1       1.060   4.145  20.385  0.00  0.00    +0.000 A 
ATOM     22  C   UNL     1       1.866   5.180  19.914  0.00  0.00    +0.000 A 
ATOM     23  F   UNL     1       2.044   6.260  20.688  0.00  0.00    +0.000 F 
ENDBRANCH  16  17
ENDBRANCH   6  16
TORSDOF 4
ENDMDL
MODEL 3
REMARK VINA RESULT:      -7.2      4.234      6.753
REMARK  Name = 
REMARK  4 active torsions:
REMARK  status: ('A' for Active; 'I' for Inactive)
REMARK    1  A    between atoms: N_3  and  C_4
REMARK    2  A    between atoms: C_4  and  C_5
REMARK    3  A    between atoms: C_13  and  C_14
REMARK    4  A    between atoms: C_14  and  C_15
REMARK                            x       y       z     vdW  Elec       q    Type
REMARK                         _______ _______ _______ _____ _____    ______ ____
ROOT
ATOM      1  O   UNL     1       7.787   6.626  16.489  0.00  0.00    +0.000 OA
ATOM      2  C   UNL     1       6.936   7.283  17.089  0.00  0.00    +0.000 C 
ATOM      3  N   UNL     1       7.242   8.424  17.788  0.00  0.00    +0.000 N 
ATOM      4  N   UNL     1       5.629   6.928  17.082  0.00  0.00    +0.000 N 
ATOM      5  C   UNL     1       4.393   7.421  17.641  0.00  0.00    +0.000 C 
ATOM      6  C   UNL     1       3.895   5.952  17.535  0.00  0.00    +0.000 C 
ATOM      7  C   UNL     1       4.995   5.779  16.457  0.00  0.00    +0.000 C 
ATOM      8  H   UNL     1       6.638   8.634  18.569  0.00  0.00    +0.000 HD
ENDROOT
BRANCH   3   9
ATOM      9  C   UNL     1       8.628   8.819  17.895  0.00  0.00    +0.000 C 
BRANCH   9  10
ATOM     10  C   UNL     1       8.810  10.183  18.503  0.00  0.00    +0.000 A 
ATOM     11  C   UNL     1       9.284  10.336  19.810  0.00  0.00    +0.000 A 
ATOM     12  C   UNL     1       9.525  11.617  20.286  0.00  0.00    +0.000 A 
ATOM     13  N   UNL     1       9.329  12.738  19.561  0.00  0.00    +0.000 NA
ATOM     14  C   UNL     1       8.877  12.572  18.301  0.00  0.00    +0.000 A 
ATOM     15  C   UNL     1       8.603  11.335  17.737  0.00  0.00    +0.000 A 
ENDBRANCH   9  10
ENDBRANCH   3   9
BRANCH   6  16
ATOM     16  C   UNL     1       4.046   5.184  18.850  0.00  0.00    +0.000 C 
BRANCH  16  17
ATOM     17  C   UNL     1       2.882   4.261  19.101  0.00  0.00    +0.000 A 
ATOM     18  C   UNL     1       1.903   4.577  20.052  0.00  0.00    +0.000 A 
ATOM     19  C   UNL     1       0.800   3.738  20.240  0.00  0.00    +0.000 A 
ATOM     20  C   UNL     1       0.657   2.581  19.475  0.00  0.00    +0.000 A 
ATOM     21  C   UNL     1       1.630   2.250  18.535  0.00  0.00    +0.000 A 
ATOM     22  C   UNL     1       2.734   3.082  18.363  0.00  0.00    +0.000 A 
ATOM     23  F   UNL     1       3.663   2.740  17.458  0.00  0.00    +0.000 F 
ENDBRANCH  16  17
ENDBRANCH   6  16
TORSDOF 4
ENDMDL
MODEL 4
REMARK VINA RESULT:      -7.2      1.257      1.373
REMARK  Name = 
REMARK  4 active torsions:
REMARK  status: ('A' for Active; 'I' for Inactive)
REMARK    1  A    between atoms: N_3  and  C_4
REMARK    2  A    between atoms: C_4  and  C_5
REMARK    3  A    between atoms: C_13  and  C_14
REMARK    4  A    between atoms: C_14  and  C_15
REMARK                            x       y       z     vdW  Elec       q    Type
REMARK                         _______ _______ _______ _____ _____    ______ ____
ROOT
ATOM      1  O   UNL     1       7.585   6.305  15.990  0.00  0.00    +0.000 OA
ATOM      2  C   UNL     1       6.958   5.268  16.206  0.00  0.00    +0.000 C 
ATOM      3  N   UNL     1       6.700   4.343  15.225  0.00  0.00    +0.000 N 
ATOM      4  N   UNL     1       6.495   4.961  17.442  0.00  0.00    +0.000 N 
ATOM      5  C   UNL     1       5.754   3.888  18.061  0.00  0.00    +0.000 C 
ATOM      6  C   UNL     1       5.325   4.949  19.113  0.00  0.00    +0.000 C 
ATOM      7  C   UNL     1       6.590   5.729  18.672  0.00  0.00    +0.000 C 
ATOM      8  H   UNL     1       5.861   3.796  15.349  0.00  0.00    +0.000 HD
ENDROOT
BRANCH   3   9
ATOM      9  C   UNL     1       7.103   4.643  13.870  0.00  0.00    +0.000 C 
BRANCH   9  10
ATOM     10  C   UNL     1       6.371   3.826  12.840  0.00  0.00    +0.000 A 
ATOM     11  C   UNL     1       7.025   2.829  12.108  0.00  0.00    +0.000 A 
ATOM     12  C   UNL     1       6.279   2.041  11.242  0.00  0.00    +0.000 A 
ATOM     13  N   UNL     1       4.950   2.177  11.057  0.00  0.00    +0.000 NA
ATOM     14  C   UNL     1       4.335   3.140  11.775  0.00  0.00    +0.000 A 
ATOM     15  C   UNL     1       4.992   3.979  12.662  0.00  0.00    +0.000 A 
ENDBRANCH   9  10
ENDBRANCH   3   9
BRANCH   6  16
ATOM     16  C   UNL     1       3.956   5.561  18.806  0.00  0.00    +0.000 C 
BRANCH  16  17
ATOM     17  C   UNL     1       2.827   4.657  19.226  0.00  0.00    +0.000 A 
ATOM     18  C   UNL     1       2.382   4.627  20.554  0.00  0.00    +0.000 A 
ATOM     19  C   UNL     1       1.299   3.822  20.922  0.00  0.00    +0.000 A 
ATOM     20  C   UNL     1       0.641   3.046  19.966  0.00  0.00    +0.000 A 
ATOM     21  C   UNL     1       1.082   3.059  18.645  0.00  0.00    +0.000 A 
ATOM     22  C   UNL     1       2.172   3.851  18.289  0.00  0.00    +0.000 A 
ATOM     23  F   UNL     1       2.584   3.842  17.012  0.00  0.00    +0.000 F 
ENDBRANCH  16  17
ENDBRANCH   6  16
TORSDOF 4
ENDMDL
MODEL 5
REMARK VINA RESULT:      -7.2      6.096      8.452
REMARK  Name = 
REMARK  4 active torsions:
REMARK  status: ('A' for Active; 'I' for Inactive)
REMARK    1  A    between atoms: N_3  and  C_4
REMARK    2  A    between atoms: C_4  and  C_5
REMARK    3  A    between atoms: C_13  and  C_14
REMARK    4  A    between atoms: C_14  and  C_15
REMARK                            x       y       z     vdW  Elec       q    Type
REMARK                         _______ _______ _______ _____ _____    ______ ____
ROOT
ATOM      1  O   UNL     1       0.169   9.426  20.446  0.00  0.00    +0.000 OA
ATOM      2  C   UNL     1       0.700   9.402  19.335  0.00  0.00    +0.000 C 
ATOM      3  N   UNL     1       0.350  10.270  18.331  0.00  0.00    +0.000 N 
ATOM      4  N   UNL     1       1.684   8.520  19.036  0.00  0.00    +0.000 N 
ATOM      5  C   UNL     1       2.511   8.200  17.898  0.00  0.00    +0.000 C 
ATOM      6  C   UNL     1       2.626   6.783  18.528  0.00  0.00    +0.000 C 
ATOM      7  C   UNL     1       2.260   7.475  19.866  0.00  0.00    +0.000 C 
ATOM      8  H   UNL     1       0.477   9.926  17.390  0.00  0.00    +0.000 HD
ENDROOT
BRANCH   3   9
ATOM      9  C   UNL     1      -0.742  11.188  18.560  0.00  0.00    +0.000 C 
BRANCH   9  10
ATOM     10  C   UNL     1      -1.937  10.916  17.688  0.00  0.00    +0.000 A 
ATOM     11  C   UNL     1      -3.104  11.680  17.799  0.00  0.00    +0.000 A 
ATOM     12  C   UNL     1      -4.139  11.450  16.903  0.00  0.00    +0.000 A 
ATOM     13  N   UNL     1      -4.093  10.524  15.922  0.00  0.00    +0.000 NA
ATOM     14  C   UNL     1      -2.958   9.800  15.826  0.00  0.00    +0.000 A 
ATOM     15  C   UNL     1      -1.872   9.954  16.675  0.00  0.00    +0.000 A 
ENDBRANCH   9  10
ENDBRANCH   3   9
BRANCH   6  16
ATOM     16  C   UNL     1       1.624   5.792  17.931  0.00  0.00    +0.000 C 
BRANCH  16  17
ATOM     17  C   UNL     1       2.009   4.363  18.212  0.00  0.00    +0.000 A 
ATOM     18  C   UNL     1       2.864   3.663  17.350  0.00  0.00    +0.000 A 
ATOM     19  C   UNL     1       3.255   2.354  17.649  0.00  0.00    +0.000 A 
ATOM     20  C   UNL     1       2.805   1.732  18.814  0.00  0.00    +0.000 A 
ATOM     21  C   UNL     1       1.945   2.414  19.672  0.00  0.00    +0.000 A 
ATOM     22  C   UNL     1       1.546   3.712  19.361  0.00  0.00    +0.000 A 
ATOM     23  F   UNL     1       0.712   4.347  20.197  0.00  0.00    +0.000 F 
ENDBRANCH  16  17
ENDBRANCH   6  16
TORSDOF 4
ENDMDL
MODEL 6
REMARK VINA RESULT:      -7.2      4.274      6.782
REMARK  Name = 
REMARK  4 active torsions:
REMARK  status: ('A' for Active; 'I' for Inactive)
REMARK    1  A    between atoms: N_3  and  C_4
REMARK    2  A    between atoms: C_4  and  C_5
REMARK    3  A    between atoms: C_13  and  C_14
REMARK    4  A    between atoms: C_14  and  C_15
REMARK                            x       y       z     vdW  Elec       q    Type
REMARK                         _______ _______ _______ _____ _____    ______ ____
ROOT
ATOM      1  O   UNL     1       7.796   6.617  16.545  0.00  0.00    +0.000 OA
ATOM      2  C   UNL     1       6.939   7.297  17.111  0.00  0.00    +0.000 C 
ATOM      3  N   UNL     1       7.243   8.442  17.804  0.00  0.00    +0.000 N 
ATOM      4  N   UNL     1       5.627   6.964  17.070  0.00  0.00    +0.000 N 
ATOM      5  C   UNL     1       4.383   7.486  17.584  0.00  0.00    +0.000 C 
ATOM      6  C   UNL     1       3.863   6.024  17.482  0.00  0.00    +0.000 C 
ATOM      7  C   UNL     1       4.992   5.818  16.440  0.00  0.00    +0.000 C 
ATOM      8  H   UNL     1       6.620   8.673  18.564  0.00  0.00    +0.000 HD
ENDROOT
BRANCH   3   9
ATOM      9  C   UNL     1       8.632   8.815  17.947  0.00  0.00    +0.000 C 
BRANCH   9  10
ATOM     10  C   UNL     1       8.820  10.189  18.530  0.00  0.00    +0.000 A 
ATOM     11  C   UNL     1       9.281  10.363  19.839  0.00  0.00    +0.000 A 
ATOM     12  C   UNL     1       9.529  11.652  20.292  0.00  0.00    +0.000 A 
ATOM     13  N   UNL     1       9.350  12.760  19.544  0.00  0.00    +0.000 NA
ATOM     14  C   UNL     1       8.910  12.573  18.282  0.00  0.00    +0.000 A 
ATOM     15  C   UNL     1       8.631  11.328  17.740  0.00  0.00    +0.000 A 
ENDBRANCH   9  10
ENDBRANCH   3   9
BRANCH   6  16
ATOM     16  C   UNL     1       3.962   5.272  18.811  0.00  0.00    +0.000 C 
BRANCH  16  17
ATOM     17  C   UNL     1       2.797   4.339  19.019  0.00  0.00    +0.000 A 
ATOM     18  C   UNL     1       2.593   3.240  18.174  0.00  0.00    +0.000 A 
ATOM     19  C   UNL     1       1.538   2.352  18.409  0.00  0.00    +0.000 A 
ATOM     20  C   UNL     1       0.682   2.545  19.493  0.00  0.00    +0.000 A 
ATOM     21  C   UNL     1       0.868   3.641  20.333  0.00  0.00    +0.000 A 
ATOM     22  C   UNL     1       1.910   4.531  20.085  0.00  0.00    +0.000 A 
ATOM     23  F   UNL     1       2.066   5.584  20.901  0.00  0.00    +0.000 F 
ENDBRANCH  16  17
ENDBRANCH   6  16
TORSDOF 4
ENDMDL
MODEL 7
REMARK VINA RESULT:      -7.2      0.285      1.038
REMARK  Name = 
REMARK  4 active torsions:
REMARK  status: ('A' for Active; 'I' for Inactive)
REMARK    1  A    between atoms: N_3  and  C_4
REMARK    2  A    between atoms: C_4  and  C_5
REMARK    3  A    between atoms: C_13  and  C_14
REMARK    4  A    between atoms: C_14  and  C_15
REMARK                            x       y       z     vdW  Elec       q    Type
REMARK                         _______ _______ _______ _____ _____    ______ ____
ROOT
ATOM      1  O   UNL     1       5.381   6.351  14.923  0.00  0.00    +0.000 OA
ATOM      2  C   UNL     1       6.087   5.536  15.519  0.00  0.00    +0.000 C 
ATOM      3  N   UNL     1       7.077   4.820  14.894  0.00  0.00    +0.000 N 
ATOM      4  N   UNL     1       5.940   5.305  16.846  0.00  0.00    +0.000 N 
ATOM      5  C   UNL     1       6.550   4.467  17.850  0.00  0.00    +0.000 C 
ATOM      6  C   UNL     1       5.198   4.592  18.607  0.00  0.00    +0.000 C 
ATOM      7  C   UNL     1       4.985   5.883  17.776  0.00  0.00    +0.000 C 
ATOM      8  H   UNL     1       7.285   3.917  15.294  0.00  0.00    +0.000 HD
ENDROOT
BRANCH   3   9
ATOM      9  C   UNL     1       7.238   4.966  13.465  0.00  0.00    +0.000 C 
BRANCH   9  10
ATOM     10  C   UNL     1       6.559   3.878  12.679  0.00  0.00    +0.000 A 
ATOM     11  C   UNL     1       5.170   3.862  12.514  0.00  0.00    +0.000 A 
ATOM     12  C   UNL     1       4.607   2.890  11.698  0.00  0.00    +0.000 A 
ATOM     13  N   UNL     1       5.320   1.949  11.047  0.00  0.00    +0.000 NA
ATOM     14  C   UNL     1       6.659   1.982  11.212  0.00  0.00    +0.000 A 
ATOM     15  C   UNL     1       7.315   2.909  12.008  0.00  0.00    +0.000 A 
ENDBRANCH   9  10
ENDBRANCH   3   9
BRANCH   6  16
ATOM     16  C   UNL     1       4.267   3.405  18.348  0.00  0.00    +0.000 C 
BRANCH  16  17
ATOM     17  C   UNL     1       3.192   3.292  19.398  0.00  0.00    +0.000 A 
ATOM     18  C   UNL     1       3.459   2.713  20.645  0.00  0.00    +0.000 A 
ATOM     19  C   UNL     1       2.467   2.661  21.630  0.00  0.00    +0.000 A 
ATOM     20  C   UNL     1       1.201   3.193  21.384  0.00  0.00    +0.000 A 
ATOM     21  C   UNL     1       0.920   3.760  20.143  0.00  0.00    +0.000 A 
ATOM     22  C   UNL     1       1.908   3.796  19.161  0.00  0.00    +0.000 A 
ATOM     23  F   UNL     1       1.613   4.339  17.971  0.00  0.00    +0.000 F 
ENDBRANCH  16  17
ENDBRANCH   6  16
TORSDOF 4
ENDMDL
MODEL 8
REMARK VINA RESULT:      -7.2      1.039      1.769
REMARK  Name = 
REMARK  4 active torsions:
REMARK  status: ('A' for Active; 'I' for Inactive)
REMARK    1  A    between atoms: N_3  and  C_4
REMARK    2  A    between atoms: C_4  and  C_5
REMARK    3  A    between atoms: C_13  and  C_14
REMARK    4  A    between atoms: C_14  and  C_15
REMARK                            x       y       z     vdW  Elec       q    Type
REMARK                         _______ _______ _______ _____ _____    ______ ____
ROOT
ATOM      1  O   UNL     1       5.321   6.350  14.811  0.00  0.00    +0.000 OA
ATOM      2  C   UNL     1       6.022   5.516  15.383  0.00  0.00    +0.000 C 
ATOM      3  N   UNL     1       6.973   4.774  14.725  0.00  0.00    +0.000 N 
ATOM      4  N   UNL     1       5.912   5.287  16.713  0.00  0.00    +0.000 N 
ATOM      5  C   UNL     1       6.530   4.430  17.697  0.00  0.00    +0.000 C 
ATOM      6  C   UNL     1       5.207   4.592  18.497  0.00  0.00    +0.000 C 
ATOM      7  C   UNL     1       5.003   5.889  17.674  0.00  0.00    +0.000 C 
ATOM      8  H   UNL     1       7.168   3.865  15.119  0.00  0.00    +0.000 HD
ENDROOT
BRANCH   3   9
ATOM      9  C   UNL     1       7.092   4.918  13.292  0.00  0.00    +0.000 C 
BRANCH   9  10
ATOM     10  C   UNL     1       6.568   3.729  12.533  0.00  0.00    +0.000 A 
ATOM     11  C   UNL     1       5.197   3.550  12.324  0.00  0.00    +0.000 A 
ATOM     12  C   UNL     1       4.776   2.489  11.534  0.00  0.00    +0.000 A 
ATOM     13  N   UNL     1       5.614   1.609  10.948  0.00  0.00    +0.000 NA
ATOM     14  C   UNL     1       6.934   1.800  11.155  0.00  0.00    +0.000 A 
ATOM     15  C   UNL     1       7.451   2.826  11.931  0.00  0.00    +0.000 A 
ENDBRANCH   9  10
ENDBRANCH   3   9
BRANCH   6  16
ATOM     16  C   UNL     1       4.237   3.431  18.268  0.00  0.00    +0.000 C 
BRANCH  16  17
ATOM     17  C   UNL     1       3.196   3.343  19.353  0.00  0.00    +0.000 A 
ATOM     18  C   UNL     1       1.936   3.936  19.195  0.00  0.00    +0.000 A 
ATOM     19  C   UNL     1       0.960   3.803  20.188  0.00  0.00    +0.000 A 
ATOM     20  C   UNL     1       1.227   3.070  21.345  0.00  0.00    +0.000 A 
ATOM     21  C   UNL     1       2.479   2.486  21.518  0.00  0.00    +0.000 A 
ATOM     22  C   UNL     1       3.453   2.635  20.533  0.00  0.00    +0.000 A 
ATOM     23  F   UNL     1       4.654   2.071  20.724  0.00  0.00    +0.000 F 
ENDBRANCH  16  17
ENDBRANCH   6  16
TORSDOF 4
ENDMDL
MODEL 9
REMARK VINA RESULT:      -7.1      6.073      8.505
REMARK  Name = 
REMARK  4 active torsions:
REMARK  status: ('A' for Active; 'I' for Inactive)
REMARK    1  A    between atoms: N_3  and  C_4
REMARK    2  A    between atoms: C_4  and  C_5
REMARK    3  A    between atoms: C_13  and  C_14
REMARK    4  A    between atoms: C_14  and  C_15
REMARK                            x       y       z     vdW  Elec       q    Type
REMARK                         _______ _______ _______ _____ _____    ______ ____
ROOT
ATOM      1  O   UNL     1       0.092   9.102  20.771  0.00  0.00    +0.000 OA
ATOM      2  C   UNL     1       0.631   9.206  19.669  0.00  0.00    +0.000 C 
ATOM      3  N   UNL     1       0.241  10.140  18.741  0.00  0.00    +0.000 N 
ATOM      4  N   UNL     1       1.663   8.408  19.304  0.00  0.00    +0.000 N 
ATOM      5  C   UNL     1       2.515   8.236  18.152  0.00  0.00    +0.000 C 
ATOM      6  C   UNL     1       2.702   6.777  18.655  0.00  0.00    +0.000 C 
ATOM      7  C   UNL     1       2.290   7.326  20.044  0.00  0.00    +0.000 C 
ATOM      8  H   UNL     1       0.394   9.889  17.776  0.00  0.00    +0.000 HD
ENDROOT
BRANCH   3   9
ATOM      9  C   UNL     1      -0.901  10.974  19.038  0.00  0.00    +0.000 C 
BRANCH   9  10
ATOM     10  C   UNL     1      -1.971  10.910  17.983  0.00  0.00    +0.000 A 
ATOM     11  C   UNL     1      -1.874  10.023  16.906  0.00  0.00    +0.000 A 
ATOM     12  C   UNL     1      -2.935   9.936  16.016  0.00  0.00    +0.000 A 
ATOM     13  N   UNL     1      -4.068  10.661  16.123  0.00  0.00    +0.000 NA
ATOM     14  C   UNL     1      -4.148  11.507  17.171  0.00  0.00    +0.000 A 
ATOM     15  C   UNL     1      -3.140  11.668  18.111  0.00  0.00    +0.000 A 
ENDBRANCH   9  10
ENDBRANCH   3   9
BRANCH   6  16
ATOM     16  C   UNL     1       1.761   5.791  17.960  0.00  0.00    +0.000 C 
BRANCH  16  17
ATOM     17  C   UNL     1       2.172   4.360  18.190  0.00  0.00    +0.000 A 
ATOM     18  C   UNL     1       3.169   3.761  17.409  0.00  0.00    +0.000 A 
ATOM     19  C   UNL     1       3.578   2.449  17.667  0.00  0.00    +0.000 A 
ATOM     20  C   UNL     1       3.004   1.723  18.711  0.00  0.00    +0.000 A 
ATOM     21  C   UNL     1       2.003   2.304  19.486  0.00  0.00    +0.000 A 
ATOM     22  C   UNL     1       1.589   3.606  19.215  0.00  0.00    +0.000 A 
ATOM     23  F   UNL     1       0.618   4.143  19.969  0.00  0.00    +0.000 F 
ENDBRANCH  16  17
ENDBRANCH   6  16
TORSDOF 4
ENDMDL
