MODEL 1
REMARK VINA RESULT:      -8.1      0.000      0.000
REMARK  Name = 
REMARK  8 active torsions:
REMARK  status: ('A' for Active; 'I' for Inactive)
REMARK    1  A    between atoms: C_1  and  C_2
REMARK    2  A    between atoms: C_2  and  C_3
REMARK    3  A    between atoms: C_6  and  C_7
REMARK    4  A    between atoms: C_6  and  C_8
REMARK    5  A    between atoms: C_11  and  S_12
REMARK    6  A    between atoms: S_12  and  C_13
REMARK    7  A    between atoms: C_16  and  C_17
REMARK    8  A    between atoms: C_17  and  O_19
REMARK                            x       y       z     vdW  Elec       q    Type
REMARK                         _______ _______ _______ _____ _____    ______ ____
ROOT
ATOM      1  C   UNL     1      -0.538  10.727  17.994  0.00  0.00    +0.000 C 
ATOM      2  C   UNL     1       0.684  10.841  18.932  0.00  0.00    +0.000 C 
ATOM      3  C   UNL     1       1.714  11.799  18.282  0.00  0.00    +0.000 C 
ATOM      4  C   UNL     1       0.277  11.498  20.270  0.00  0.00    +0.000 C 
ATOM      5  C   UNL     1      -0.442  10.542  21.202  0.00  0.00    +0.000 C 
ATOM      6  C   UNL     1       0.398   9.292  21.559  0.00  0.00    +0.000 C 
ATOM      7  C   UNL     1       1.386   9.629  22.698  0.00  0.00    +0.000 C 
ATOM      8  C   UNL     1      -0.610   8.236  22.077  0.00  0.00    +0.000 C 
ATOM      9  C   UNL     1       1.183   8.748  20.358  0.00  0.00    +0.000 A 
ATOM     10  C   UNL     1       1.834   7.493  20.477  0.00  0.00    +0.000 A 
ATOM     11  C   UNL     1       2.500   6.900  19.403  0.00  0.00    +0.000 A 
ATOM     12  C   UNL     1       2.505   7.546  18.175  0.00  0.00    +0.000 A 
ATOM     13  C   UNL     1       1.920   8.806  18.049  0.00  0.00    +0.000 A 
ATOM     14  C   UNL     1       1.281   9.443  19.135  0.00  0.00    +0.000 A 
ENDROOT
BRANCH  11  15
ATOM     15  S   UNL     1       3.266   5.303  19.580  0.00  0.00    +0.000 S 
BRANCH  15  16
ATOM     16  C   UNL     1       4.211   5.109  18.076  0.00  0.00    +0.000 A 
ATOM     17  C   UNL     1       5.341   5.919  17.904  0.00  0.00    +0.000 A 
ATOM     18  C   UNL     1       6.165   5.772  16.782  0.00  0.00    +0.000 A 
ATOM     19  C   UNL     1       5.869   4.810  15.811  0.00  0.00    +0.000 A 
ATOM     20  C   UNL     1       4.753   3.983  15.983  0.00  0.00    +0.000 A 
ATOM     21  C   UNL     1       3.930   4.138  17.106  0.00  0.00    +0.000 A 
BRANCH  19  22
ATOM     22  C   UNL     1       6.801   4.666  14.665  0.00  0.00    +0.000 C 
ATOM     23  O   UNL     1       7.717   5.443  14.453  0.00  0.00    +0.000 OA
BRANCH  22  24
ATOM     24  O   UNL     1       6.530   3.616  13.858  0.00  0.00    +0.000 OA
ATOM     25  H   UNL     1       5.649   3.627  13.443  0.00  0.00    +0.000 HD
ENDBRANCH  22  24
ENDBRANCH  19  22
ENDBRANCH  15  16
ENDBRANCH  11  15
TORSDOF 4
ENDMDL
MODEL 2
REMARK VINA RESULT:      -8.1      0.206      1.194
REMARK  Name = 
REMARK  8 active torsions:
REMARK  status: ('A' for Active; 'I' for Inactive)
REMARK    1  A    between atoms: C_1  and  C_2
REMARK    2  A    between atoms: C_2  and  C_3
REMARK    3  A    between atoms: C_6  and  C_7
REMARK    4  A    between atoms: C_6  and  C_8
REMARK    5  A    between atoms: C_11  and  S_12
REMARK    6  A    between atoms: S_12  and  C_13
REMARK    7  A    between atoms: C_16  and  C_17
REMARK    8  A    between atoms: C_17  and  O_19
REMARK                            x       y       z     vdW  Elec       q    Type
REMARK                         _______ _______ _______ _____ _____    ______ ____
ROOT
ATOM      1  C   UNL     1      -0.421  10.645  17.892  0.00  0.00    +0.000 C 
ATOM      2  C   UNL     1       0.795  10.743  18.840  0.00  0.00    +0.000 C 
ATOM      3  C   UNL     1       1.838  11.694  18.203  0.00  0.00    +0.000 C 
ATOM      4  C   UNL     1       0.383  11.398  20.178  0.00  0.00    +0.000 C 
ATOM      5  C   UNL     1      -0.353  10.444  21.100  0.00  0.00    +0.000 C 
ATOM      6  C   UNL     1       0.473   9.185  21.458  0.00  0.00    +0.000 C 
ATOM      7  C   UNL     1       1.455   9.508  22.606  0.00  0.00    +0.000 C 
ATOM      8  C   UNL     1      -0.549   8.137  21.963  0.00  0.00    +0.000 C 
ATOM      9  C   UNL     1       1.262   8.639  20.261  0.00  0.00    +0.000 A 
ATOM     10  C   UNL     1       1.901   7.377  20.379  0.00  0.00    +0.000 A 
ATOM     11  C   UNL     1       2.569   6.783  19.308  0.00  0.00    +0.000 A 
ATOM     12  C   UNL     1       2.591   7.435  18.083  0.00  0.00    +0.000 A 
ATOM     13  C   UNL     1       2.018   8.700  17.958  0.00  0.00    +0.000 A 
ATOM     14  C   UNL     1       1.377   9.339  19.042  0.00  0.00    +0.000 A 
ENDROOT
BRANCH  11  15
ATOM     15  S   UNL     1       3.319   5.178  19.484  0.00  0.00    +0.000 S 
BRANCH  15  16
ATOM     16  C   UNL     1       4.433   5.067  18.091  0.00  0.00    +0.000 A 
ATOM     17  C   UNL     1       4.117   4.159  17.072  0.00  0.00    +0.000 A 
ATOM     18  C   UNL     1       4.909   4.069  15.921  0.00  0.00    +0.000 A 
ATOM     19  C   UNL     1       6.032   4.888  15.773  0.00  0.00    +0.000 A 
ATOM     20  C   UNL     1       6.345   5.812  16.776  0.00  0.00    +0.000 A 
ATOM     21  C   UNL     1       5.551   5.894  17.928  0.00  0.00    +0.000 A 
BRANCH  19  22
ATOM     22  C   UNL     1       6.810   4.784  14.513  0.00  0.00    +0.000 C 
ATOM     23  O   UNL     1       6.487   4.051  13.592  0.00  0.00    +0.000 OA
BRANCH  22  24
ATOM     24  O   UNL     1       7.924   5.549  14.483  0.00  0.00    +0.000 OA
ATOM     25  H   UNL     1       8.493   5.486  15.271  0.00  0.00    +0.000 HD
ENDBRANCH  22  24
ENDBRANCH  19  22
ENDBRANCH  15  16
ENDBRANCH  11  15
TORSDOF 4
ENDMDL
MODEL 3
REMARK VINA RESULT:      -7.8      4.311      7.954
REMARK  Name = 
REMARK  8 active torsions:
REMARK  status: ('A' for Active; 'I' for Inactive)
REMARK    1  A    between atoms: C_1  and  C_2
REMARK    2  A    between atoms: C_2  and  C_3
REMARK    3  A    between atoms: C_6  and  C_7
REMARK    4  A    between atoms: C_6  and  C_8
REMARK    5  A    between atoms: C_11  and  S_12
REMARK    6  A    between atoms: S_12  and  C_13
REMARK    7  A    between atoms: C_16  and  C_17
REMARK    8  A    between atoms: C_17  and  O_19
REMARK                            x       y       z     vdW  Elec       q    Type
REMARK                         _______ _______ _______ _____ _____    ______ ____
ROOT
ATOM      1  C   UNL     1       6.182   4.452  18.994  0.00  0.00    +0.000 C 
ATOM      2  C   UNL     1       5.072   4.226  17.945  0.00  0.00    +0.000 C 
ATOM      3  C   UNL     1       5.739   3.994  16.566  0.00  0.00    +0.000 C 
ATOM      4  C   UNL     1       4.288   2.932  18.260  0.00  0.00    +0.000 C 
ATOM      5  C   UNL     1       3.289   3.107  19.388  0.00  0.00    +0.000 C 
ATOM      6  C   UNL     1       2.236   4.205  19.104  0.00  0.00    +0.000 C 
ATOM      7  C   UNL     1       1.107   3.635  18.217  0.00  0.00    +0.000 C 
ATOM      8  C   UNL     1       1.638   4.588  20.480  0.00  0.00    +0.000 C 
ATOM      9  C   UNL     1       2.841   5.436  18.416  0.00  0.00    +0.000 A 
ATOM     10  C   UNL     1       2.046   6.604  18.277  0.00  0.00    +0.000 A 
ATOM     11  C   UNL     1       2.555   7.785  17.734  0.00  0.00    +0.000 A 
ATOM     12  C   UNL     1       3.884   7.826  17.338  0.00  0.00    +0.000 A 
ATOM     13  C   UNL     1       4.669   6.676  17.414  0.00  0.00    +0.000 A 
ATOM     14  C   UNL     1       4.160   5.458  17.918  0.00  0.00    +0.000 A 
ENDROOT
BRANCH  11  15
ATOM     15  S   UNL     1       1.538   9.241  17.618  0.00  0.00    +0.000 S 
BRANCH  15  16
ATOM     16  C   UNL     1       0.985   9.516  19.296  0.00  0.00    +0.000 A 
ATOM     17  C   UNL     1      -0.007  10.482  19.507  0.00  0.00    +0.000 A 
ATOM     18  C   UNL     1      -0.534  10.702  20.785  0.00  0.00    +0.000 A 
ATOM     19  C   UNL     1      -0.073   9.955  21.874  0.00  0.00    +0.000 A 
ATOM     20  C   UNL     1       0.903   8.974  21.670  0.00  0.00    +0.000 A 
ATOM     21  C   UNL     1       1.430   8.763  20.389  0.00  0.00    +0.000 A 
BRANCH  19  22
ATOM     22  C   UNL     1      -0.699  10.196  23.199  0.00  0.00    +0.000 C 
ATOM     23  O   UNL     1      -1.624  10.974  23.365  0.00  0.00    +0.000 OA
BRANCH  22  24
ATOM     24  O   UNL     1      -0.136   9.502  24.213  0.00  0.00    +0.000 OA
ATOM     25  H   UNL     1      -0.714   8.842  24.636  0.00  0.00    +0.000 HD
ENDBRANCH  22  24
ENDBRANCH  19  22
ENDBRANCH  15  16
ENDBRANCH  11  15
TORSDOF 4
ENDMDL
MODEL 4
REMARK VINA RESULT:      -7.5      4.233      7.847
REMARK  Name = 
REMARK  8 active torsions:
REMARK  status: ('A' for Active; 'I' for Inactive)
REMARK    1  A    between atoms: C_1  and  C_2
REMARK    2  A    between atoms: C_2  and  C_3
REMARK    3  A    between atoms: C_6  and  C_7
REMARK    4  A    between atoms: C_6  and  C_8
REMARK    5  A    between atoms: C_11  and  S_12
REMARK    6  A    between atoms: S_12  and  C_13
REMARK    7  A    between atoms: C_16  and  C_17
REMARK    8  A    between atoms: C_17  and  O_19
REMARK                            x       y       z     vdW  Elec       q    Type
REMARK                         _______ _______ _______ _____ _____    ______ ____
ROOT
ATOM      1  C   UNL     1       6.295   4.374  18.645  0.00  0.00    +0.000 C 
ATOM      2  C   UNL     1       5.036   4.154  17.777  0.00  0.00    +0.000 C 
ATOM      3  C   UNL     1       5.488   3.801  16.338  0.00  0.00    +0.000 C 
ATOM      4  C   UNL     1       4.239   2.931  18.285  0.00  0.00    +0.000 C 
ATOM      5  C   UNL     1       3.421   3.234  19.526  0.00  0.00    +0.000 C 
ATOM      6  C   UNL     1       2.397   4.375  19.317  0.00  0.00    +0.000 C 
ATOM      7  C   UNL     1       1.125   3.823  18.636  0.00  0.00    +0.000 C 
ATOM      8  C   UNL     1       2.021   4.873  20.734  0.00  0.00    +0.000 C 
ATOM      9  C   UNL     1       2.961   5.524  18.471  0.00  0.00    +0.000 A 
ATOM     10  C   UNL     1       2.216   6.727  18.366  0.00  0.00    +0.000 A 
ATOM     11  C   UNL     1       2.702   7.841  17.679  0.00  0.00    +0.000 A 
ATOM     12  C   UNL     1       3.962   7.778  17.101  0.00  0.00    +0.000 A 
ATOM     13  C   UNL     1       4.689   6.589  17.144  0.00  0.00    +0.000 A 
ATOM     14  C   UNL     1       4.195   5.436  17.795  0.00  0.00    +0.000 A 
ENDROOT
BRANCH  11  15
ATOM     15  S   UNL     1       1.756   9.347  17.608  0.00  0.00    +0.000 S 
BRANCH  15  16
ATOM     16  C   UNL     1       1.051   9.491  19.244  0.00  0.00    +0.000 A 
ATOM     17  C   UNL     1       1.574   8.675  20.255  0.00  0.00    +0.000 A 
ATOM     18  C   UNL     1       1.116   8.784  21.574  0.00  0.00    +0.000 A 
ATOM     19  C   UNL     1       0.123   9.714  21.900  0.00  0.00    +0.000 A 
ATOM     20  C   UNL     1      -0.392  10.546  20.900  0.00  0.00    +0.000 A 
ATOM     21  C   UNL     1       0.068  10.429  19.582  0.00  0.00    +0.000 A 
BRANCH  19  22
ATOM     22  C   UNL     1      -0.293   9.819  23.321  0.00  0.00    +0.000 C 
ATOM     23  O   UNL     1       0.420   9.474  24.249  0.00  0.00    +0.000 OA
BRANCH  22  24
ATOM     24  O   UNL     1      -1.542  10.304  23.499  0.00  0.00    +0.000 OA
ATOM     25  H   UNL     1      -1.800  11.022  22.893  0.00  0.00    +0.000 HD
ENDBRANCH  22  24
ENDBRANCH  19  22
ENDBRANCH  15  16
ENDBRANCH  11  15
TORSDOF 4
ENDMDL
MODEL 5
REMARK VINA RESULT:      -7.4      4.159      7.742
REMARK  Name = 
REMARK  8 active torsions:
REMARK  status: ('A' for Active; 'I' for Inactive)
REMARK    1  A    between atoms: C_1  and  C_2
REMARK    2  A    between atoms: C_2  and  C_3
REMARK    3  A    between atoms: C_6  and  C_7
REMARK    4  A    between atoms: C_6  and  C_8
REMARK    5  A    between atoms: C_11  and  S_12
REMARK    6  A    between atoms: S_12  and  C_13
REMARK    7  A    between atoms: C_16  and  C_17
REMARK    8  A    between atoms: C_17  and  O_19
REMARK                            x       y       z     vdW  Elec       q    Type
REMARK                         _______ _______ _______ _____ _____    ______ ____
ROOT
ATOM      1  C   UNL     1       5.520   4.707  18.919  0.00  0.00    +0.000 C 
ATOM      2  C   UNL     1       4.090   4.574  18.352  0.00  0.00    +0.000 C 
ATOM      3  C   UNL     1       4.097   5.063  16.882  0.00  0.00    +0.000 C 
ATOM      4  C   UNL     1       3.665   3.089  18.305  0.00  0.00    +0.000 C 
ATOM      5  C   UNL     1       3.257   2.548  19.663  0.00  0.00    +0.000 C 
ATOM      6  C   UNL     1       2.080   3.326  20.299  0.00  0.00    +0.000 C 
ATOM      7  C   UNL     1       0.741   2.823  19.717  0.00  0.00    +0.000 C 
ATOM      8  C   UNL     1       2.118   2.992  21.810  0.00  0.00    +0.000 C 
ATOM      9  C   UNL     1       2.188   4.840  20.077  0.00  0.00    +0.000 A 
ATOM     10  C   UNL     1       1.298   5.700  20.773  0.00  0.00    +0.000 A 
ATOM     11  C   UNL     1       1.388   7.090  20.681  0.00  0.00    +0.000 A 
ATOM     12  C   UNL     1       2.392   7.649  19.903  0.00  0.00    +0.000 A 
ATOM     13  C   UNL     1       3.243   6.825  19.167  0.00  0.00    +0.000 A 
ATOM     14  C   UNL     1       3.139   5.417  19.211  0.00  0.00    +0.000 A 
ENDROOT
BRANCH  11  15
ATOM     15  S   UNL     1       0.281   8.133  21.604  0.00  0.00    +0.000 S 
BRANCH  15  16
ATOM     16  C   UNL     1       0.180   9.627  20.628  0.00  0.00    +0.000 A 
ATOM     17  C   UNL     1      -0.708   9.641  19.545  0.00  0.00    +0.000 A 
ATOM     18  C   UNL     1      -0.888  10.799  18.779  0.00  0.00    +0.000 A 
ATOM     19  C   UNL     1      -0.177  11.964  19.087  0.00  0.00    +0.000 A 
ATOM     20  C   UNL     1       0.698  11.965  20.178  0.00  0.00    +0.000 A 
ATOM     21  C   UNL     1       0.876  10.801  20.937  0.00  0.00    +0.000 A 
BRANCH  19  22
ATOM     22  C   UNL     1      -0.439  13.176  18.271  0.00  0.00    +0.000 C 
ATOM     23  O   UNL     1      -0.115  14.298  18.627  0.00  0.00    +0.000 OA
BRANCH  22  24
ATOM     24  O   UNL     1      -1.093  12.937  17.114  0.00  0.00    +0.000 OA
ATOM     25  H   UNL     1      -0.622  12.367  16.479  0.00  0.00    +0.000 HD
ENDBRANCH  22  24
ENDBRANCH  19  22
ENDBRANCH  15  16
ENDBRANCH  11  15
TORSDOF 4
ENDMDL
MODEL 6
REMARK VINA RESULT:      -7.2      4.030      7.596
REMARK  Name = 
REMARK  8 active torsions:
REMARK  status: ('A' for Active; 'I' for Inactive)
REMARK    1  A    between atoms: C_1  and  C_2
REMARK    2  A    between atoms: C_2  and  C_3
REMARK    3  A    between atoms: C_6  and  C_7
REMARK    4  A    between atoms: C_6  and  C_8
REMARK    5  A    between atoms: C_11  and  S_12
REMARK    6  A    between atoms: S_12  and  C_13
REMARK    7  A    between atoms: C_16  and  C_17
REMARK    8  A    between atoms: C_17  and  O_19
REMARK                            x       y       z     vdW  Elec       q    Type
REMARK                         _______ _______ _______ _____ _____    ______ ____
ROOT
ATOM      1  C   UNL     1       5.508   4.669  18.871  0.00  0.00    +0.000 C 
ATOM      2  C   UNL     1       4.085   4.519  18.288  0.00  0.00    +0.000 C 
ATOM      3  C   UNL     1       4.103   5.005  16.818  0.00  0.00    +0.000 C 
ATOM      4  C   UNL     1       3.677   3.029  18.239  0.00  0.00    +0.000 C 
ATOM      5  C   UNL     1       3.261   2.486  19.593  0.00  0.00    +0.000 C 
ATOM      6  C   UNL     1       2.069   3.251  20.215  0.00  0.00    +0.000 C 
ATOM      7  C   UNL     1       0.741   2.732  19.619  0.00  0.00    +0.000 C 
ATOM      8  C   UNL     1       2.093   2.920  21.727  0.00  0.00    +0.000 C 
ATOM      9  C   UNL     1       2.161   4.766  19.991  0.00  0.00    +0.000 A 
ATOM     10  C   UNL     1       1.254   5.617  20.675  0.00  0.00    +0.000 A 
ATOM     11  C   UNL     1       1.329   7.007  20.582  0.00  0.00    +0.000 A 
ATOM     12  C   UNL     1       2.335   7.577  19.815  0.00  0.00    +0.000 A 
ATOM     13  C   UNL     1       3.204   6.761  19.089  0.00  0.00    +0.000 A 
ATOM     14  C   UNL     1       3.115   5.352  19.135  0.00  0.00    +0.000 A 
ENDROOT
BRANCH  11  15
ATOM     15  S   UNL     1       0.200   8.040  21.491  0.00  0.00    +0.000 S 
BRANCH  15  16
ATOM     16  C   UNL     1       0.209   9.585  20.593  0.00  0.00    +0.000 A 
ATOM     17  C   UNL     1       0.908  10.662  21.153  0.00  0.00    +0.000 A 
ATOM     18  C   UNL     1       1.013  11.881  20.471  0.00  0.00    +0.000 A 
ATOM     19  C   UNL     1       0.418  12.039  19.215  0.00  0.00    +0.000 A 
ATOM     20  C   UNL     1      -0.265  10.963  18.639  0.00  0.00    +0.000 A 
ATOM     21  C   UNL     1      -0.371   9.748  19.329  0.00  0.00    +0.000 A 
BRANCH  19  22
ATOM     22  C   UNL     1       0.599  13.336  18.516  0.00  0.00    +0.000 C 
ATOM     23  O   UNL     1       1.689  13.747  18.151  0.00  0.00    +0.000 OA
BRANCH  22  24
ATOM     24  O   UNL     1      -0.542  14.039  18.345  0.00  0.00    +0.000 OA
ATOM     25  H   UNL     1      -0.429  14.930  17.968  0.00  0.00    +0.000 HD
ENDBRANCH  22  24
ENDBRANCH  19  22
ENDBRANCH  15  16
ENDBRANCH  11  15
TORSDOF 4
ENDMDL
MODEL 7
REMARK VINA RESULT:      -7.2      4.225      8.349
REMARK  Name = 
REMARK  8 active torsions:
REMARK  status: ('A' for Active; 'I' for Inactive)
REMARK    1  A    between atoms: C_1  and  C_2
REMARK    2  A    between atoms: C_2  and  C_3
REMARK    3  A    between atoms: C_6  and  C_7
REMARK    4  A    between atoms: C_6  and  C_8
REMARK    5  A    between atoms: C_11  and  S_12
REMARK    6  A    between atoms: S_12  and  C_13
REMARK    7  A    between atoms: C_16  and  C_17
REMARK    8  A    between atoms: C_17  and  O_19
REMARK                            x       y       z     vdW  Elec       q    Type
REMARK                         _______ _______ _______ _____ _____    ______ ____
ROOT
ATOM      1  C   UNL     1       3.251   2.707  17.488  0.00  0.00    +0.000 C 
ATOM      2  C   UNL     1       4.095   3.677  18.344  0.00  0.00    +0.000 C 
ATOM      3  C   UNL     1       3.982   3.248  19.828  0.00  0.00    +0.000 C 
ATOM      4  C   UNL     1       5.592   3.556  17.978  0.00  0.00    +0.000 C 
ATOM      5  C   UNL     1       5.944   4.270  16.687  0.00  0.00    +0.000 C 
ATOM      6  C   UNL     1       5.618   5.782  16.720  0.00  0.00    +0.000 C 
ATOM      7  C   UNL     1       6.752   6.551  17.433  0.00  0.00    +0.000 C 
ATOM      8  C   UNL     1       5.566   6.238  15.241  0.00  0.00    +0.000 C 
ATOM      9  C   UNL     1       4.288   6.081  17.425  0.00  0.00    +0.000 A 
ATOM     10  C   UNL     1       3.755   7.395  17.354  0.00  0.00    +0.000 A 
ATOM     11  C   UNL     1       2.514   7.721  17.903  0.00  0.00    +0.000 A 
ATOM     12  C   UNL     1       1.768   6.726  18.517  0.00  0.00    +0.000 A 
ATOM     13  C   UNL     1       2.294   5.441  18.647  0.00  0.00    +0.000 A 
ATOM     14  C   UNL     1       3.567   5.102  18.139  0.00  0.00    +0.000 A 
ENDROOT
BRANCH  11  15
ATOM     15  S   UNL     1       1.861   9.370  17.753  0.00  0.00    +0.000 S 
BRANCH  15  16
ATOM     16  C   UNL     1       0.991   9.631  19.293  0.00  0.00    +0.000 A 
ATOM     17  C   UNL     1       1.372   8.858  20.398  0.00  0.00    +0.000 A 
ATOM     18  C   UNL     1       0.780   9.057  21.651  0.00  0.00    +0.000 A 
ATOM     19  C   UNL     1      -0.206  10.035  21.816  0.00  0.00    +0.000 A 
ATOM     20  C   UNL     1      -0.580  10.825  20.723  0.00  0.00    +0.000 A 
ATOM     21  C   UNL     1       0.014  10.617  19.471  0.00  0.00    +0.000 A 
BRANCH  19  22
ATOM     22  C   UNL     1      -0.768  10.236  23.175  0.00  0.00    +0.000 C 
ATOM     23  O   UNL     1      -1.739  10.943  23.394  0.00  0.00    +0.000 OA
BRANCH  22  24
ATOM     24  O   UNL     1      -0.096   9.592  24.155  0.00  0.00    +0.000 OA
ATOM     25  H   UNL     1       0.124  10.134  24.934  0.00  0.00    +0.000 HD
ENDBRANCH  22  24
ENDBRANCH  19  22
ENDBRANCH  15  16
ENDBRANCH  11  15
TORSDOF 4
ENDMDL
MODEL 8
REMARK VINA RESULT:      -7.2      1.054      1.529
REMARK  Name = 
REMARK  8 active torsions:
REMARK  status: ('A' for Active; 'I' for Inactive)
REMARK    1  A    between atoms: C_1  and  C_2
REMARK    2  A    between atoms: C_2  and  C_3
REMARK    3  A    between atoms: C_6  and  C_7
REMARK    4  A    between atoms: C_6  and  C_8
REMARK    5  A    between atoms: C_11  and  S_12
REMARK    6  A    between atoms: S_12  and  C_13
REMARK    7  A    between atoms: C_16  and  C_17
REMARK    8  A    between atoms: C_17  and  O_19
REMARK                            x       y       z     vdW  Elec       q    Type
REMARK                         _______ _______ _______ _____ _____    ______ ____
ROOT
ATOM      1  C   UNL     1      -0.254  11.490  18.456  0.00  0.00    +0.000 C 
ATOM      2  C   UNL     1       1.028  11.217  19.274  0.00  0.00    +0.000 C 
ATOM      3  C   UNL     1       2.218  11.914  18.570  0.00  0.00    +0.000 C 
ATOM      4  C   UNL     1       0.921  11.867  20.673  0.00  0.00    +0.000 C 
ATOM      5  C   UNL     1       0.052  11.072  21.628  0.00  0.00    +0.000 C 
ATOM      6  C   UNL     1       0.555   9.625  21.849  0.00  0.00    +0.000 C 
ATOM      7  C   UNL     1       1.687   9.615  22.899  0.00  0.00    +0.000 C 
ATOM      8  C   UNL     1      -0.651   8.837  22.415  0.00  0.00    +0.000 C 
ATOM      9  C   UNL     1       1.065   8.977  20.555  0.00  0.00    +0.000 A 
ATOM     10  C   UNL     1       1.366   7.590  20.556  0.00  0.00    +0.000 A 
ATOM     11  C   UNL     1       1.759   6.916  19.398  0.00  0.00    +0.000 A 
ATOM     12  C   UNL     1       1.836   7.620  18.204  0.00  0.00    +0.000 A 
ATOM     13  C   UNL     1       1.599   8.994  18.189  0.00  0.00    +0.000 A 
ATOM     14  C   UNL     1       1.245   9.702  19.359  0.00  0.00    +0.000 A 
ENDROOT
BRANCH  11  15
ATOM     15  S   UNL     1       2.084   5.167  19.432  0.00  0.00    +0.000 S 
BRANCH  15  16
ATOM     16  C   UNL     1       3.702   5.014  18.688  0.00  0.00    +0.000 A 
ATOM     17  C   UNL     1       3.787   4.411  17.427  0.00  0.00    +0.000 A 
ATOM     18  C   UNL     1       5.013   4.320  16.757  0.00  0.00    +0.000 A 
ATOM     19  C   UNL     1       6.175   4.832  17.342  0.00  0.00    +0.000 A 
ATOM     20  C   UNL     1       6.097   5.453  18.593  0.00  0.00    +0.000 A 
ATOM     21  C   UNL     1       4.868   5.537  19.260  0.00  0.00    +0.000 A 
BRANCH  19  22
ATOM     22  C   UNL     1       7.440   4.750  16.569  0.00  0.00    +0.000 C 
ATOM     23  O   UNL     1       7.600   5.310  15.496  0.00  0.00    +0.000 OA
BRANCH  22  24
ATOM     24  O   UNL     1       8.390   3.977  17.139  0.00  0.00    +0.000 OA
ATOM     25  H   UNL     1       9.174   4.455  17.466  0.00  0.00    +0.000 HD
ENDBRANCH  22  24
ENDBRANCH  19  22
ENDBRANCH  15  16
ENDBRANCH  11  15
TORSDOF 4
ENDMDL
MODEL 9
REMARK VINA RESULT:      -7.0      3.884      7.820
REMARK  Name = 
REMARK  8 active torsions:
REMARK  status: ('A' for Active; 'I' for Inactive)
REMARK    1  A    between atoms: C_1  and  C_2
REMARK    2  A    between atoms: C_2  and  C_3
REMARK    3  A    between atoms: C_6  and  C_7
REMARK    4  A    between atoms: C_6  and  C_8
REMARK    5  A    between atoms: C_11  and  S_12
REMARK    6  A    between atoms: S_12  and  C_13
REMARK    7  A    between atoms: C_16  and  C_17
REMARK    8  A    between atoms: C_17  and  O_19
REMARK                            x       y       z     vdW  Elec       q    Type
REMARK                         _______ _______ _______ _____ _____    ______ ____
ROOT
ATOM      1  C   UNL     1       2.089   2.859  17.079  0.00  0.00    +0.000 C 
ATOM      2  C   UNL     1       3.196   3.162  18.113  0.00  0.00    +0.000 C 
ATOM      3  C   UNL     1       3.302   1.961  19.085  0.00  0.00    +0.000 C 
ATOM      4  C   UNL     1       4.571   3.267  17.414  0.00  0.00    +0.000 C 
ATOM      5  C   UNL     1       4.771   4.590  16.701  0.00  0.00    +0.000 C 
ATOM      6  C   UNL     1       4.659   5.812  17.643  0.00  0.00    +0.000 C 
ATOM      7  C   UNL     1       5.996   6.031  18.384  0.00  0.00    +0.000 C 
ATOM      8  C   UNL     1       4.397   7.033  16.727  0.00  0.00    +0.000 C 
ATOM      9  C   UNL     1       3.532   5.659  18.674  0.00  0.00    +0.000 A 
ATOM     10  C   UNL     1       3.174   6.779  19.469  0.00  0.00    +0.000 A 
ATOM     11  C   UNL     1       2.109   6.736  20.370  0.00  0.00    +0.000 A 
ATOM     12  C   UNL     1       1.363   5.570  20.476  0.00  0.00    +0.000 A 
ATOM     13  C   UNL     1       1.730   4.440  19.745  0.00  0.00    +0.000 A 
ATOM     14  C   UNL     1       2.833   4.450  18.862  0.00  0.00    +0.000 A 
ENDROOT
BRANCH  11  15
ATOM     15  S   UNL     1       1.664   8.175  21.317  0.00  0.00    +0.000 S 
BRANCH  15  16
ATOM     16  C   UNL     1       0.693   9.156  20.181  0.00  0.00    +0.000 A 
ATOM     17  C   UNL     1      -0.270  10.018  20.720  0.00  0.00    +0.000 A 
ATOM     18  C   UNL     1      -1.018  10.865  19.893  0.00  0.00    +0.000 A 
ATOM     19  C   UNL     1      -0.813  10.859  18.509  0.00  0.00    +0.000 A 
ATOM     20  C   UNL     1       0.160  10.015  17.964  0.00  0.00    +0.000 A 
ATOM     21  C   UNL     1       0.902   9.167  18.797  0.00  0.00    +0.000 A 
BRANCH  19  22
ATOM     22  C   UNL     1      -1.600  11.809  17.684  0.00  0.00    +0.000 C 
ATOM     23  O   UNL     1      -2.669  11.516  17.172  0.00  0.00    +0.000 OA
BRANCH  22  24
ATOM     24  O   UNL     1      -1.019  13.018  17.521  0.00  0.00    +0.000 OA
ATOM     25  H   UNL     1      -1.632  13.775  17.500  0.00  0.00    +0.000 HD
ENDBRANCH  22  24
ENDBRANCH  19  22
ENDBRANCH  15  16
ENDBRANCH  11  15
TORSDOF 4
ENDMDL
